data_image0
_chemical_formula_structural       HSHFeS2HC2FeSH2C2SFeS2FeS2FeSFeS3C6H4C6H4C3SNFeH3CH2CH3FeC3SC2SHCSFeCHCNC4H12CHCSH4S2NHCH2C2H2FeH2NH2CFeH4C2NCFeH6CFeH2S2H4S2HFeCHCH3C2HCSC3H14SCHNC2H2CHFeSHFeS2FeSFeS3HSH6SH2FeS2FeS2FeSFeS5C2HCFeSFeSHSH6SC6H4CHNHSCHCH2C7H4C6HCH2C6H8C3H8NC4HSH3CHCH2C2H3CH2NH2CH3N2CH2CFeH3CH2C2FeNCHC2SH5CHCFeH2NC4H10C2H6NCH2C2FeHC2H2FeH2SHCH2C2H5SC3SH7CH3FeSCFe2S2FeSFeSFeS3HSCH4SCH2C6H5CFeC6H4C3HCSCH2NCHSH3CHCFeH2NH2NH3C2H3SH3NCH5CH5C2HSHCSH4SH2CHCNCHCSH3FeS2FeS2FeSFeS3H4SHC2H3CSFeS2FeSHFeSFeS3HC4HCH7CSHCHC6H4C6H4C3SH4SH2C5H2NH2CH7NHNC2HCHCH2NCH3CH3CHFeH4CH2NCHC2HC2HCH4CHC2H4CHC2HC2H3C2HCH4C3H3CSCSCH3CHCFeH5CHCS2Fe2SNFeS2FeSFeS3H2CS2FeSHCH2SCH2FeS2FeSFeS2FeS2FeSFeS3C6H5CFeHC6H4C6H4C4H4C6H4C6H3C2H7CSHNC4H12NC4H13CHCSFeHFeC2H2SHCH2NHFeSH2NC4H12NHC3H3C2H2FeH4FeCH3CH4CH2SH4C2HCHSHCNCHCHC2H2SH3Fe3S2FeS2FeSFeS5FeSFeSFeC2HCSH2C2SHSH2SC2SCH3CH2SFeSCHSC3HFeH3SHCH2CH4C2Fe2C2SH7SC4HCH2SHSHCHC6H4C6H4C6H4C3HSCH3CSHFeHSNC4H13CHC3SCH7SNC3H7FeH4FeH2C2H4CFeHCSH2C2NC2SCH3SHCNC2H2CH2N2HCH3CH3CFeCSH4CNCH4CHCSH5CH3Fe2S2FeHFeS3FeSHSFeS2FeS2FeSFeS3H2SC2HCHCFeS2FeS2FeSFeS3H3SFeH2CHC3NH3SCH2C6H4C4H4C6H6SH2C2HCH5NC7H4C6H5CNHCFeHC2HNC4H12CHCH3NC5H8CH2CNH8C2SHCSH2Fe2CSH3CSH5C3H2NH3NHC3SCH2CHC2HCH2CH2SC2HSH9NH4FeCH2CNCHCHCHC2H9CHCHCHC2HNH2SCSH2CHCH2C2HC3HCNH6FeH2CH2CS2HC2H3NC5H7S2CHSCHC2HNH2SHCFeS2FeSHFeSFeS3HCHCH8SCHCHC4HCH4C2SCHNCHC7H4CH2CH2FeHCFeC6H7SCH4CH2CH6NH2CHCHSCHNCHCSH2FeHCHFeCH3SH8CH3C2H2S2HSHCH4CHCSFeSFeSFeS2C3FeSH2SH2CHC5HCHS2CSC2SH2C2H8CH2NHCH3CHCHFeHCH4CHC2HFeCHSNSH3CHC3SH2CHCSC2HC4H4SC4FeH2S2CSHCSHC3HSFeHNC4H9CHFeCH2NCH2SFeHSNHFeC3H4CHNH4SHCH4FeH5FeHCH2SFeH3NH2SCH4CHCHCNH5C4FeS2FeSFeCFeS4FeSFeS2FeS2FeSFeS3C6H4CH2C6H10CH4SNHSNHC2H6C5H3C3SCHC5H2SH2SH2C2SH4CHC2HSHCH2FeH4CH2CNHCH2FeH5CHC2H3CHNC3HNH2CHSCHC2H2CH4C2H3NC4HCFeH3SHSH4CH7CH2CH2CHFeS2FeS2FeSFeS3HSCHFeS2FeS2FeSFeS3FeHFeH3S2FeH2FeS2CSHFeCHSFeH7C2HSHC2HCH2C6H5C3H2CH3C2H3C3HCH2C7H4SHCH2C6NH3SNC4H4SCHCH5NH5CFeCH5C2H2CHSH4CH6CHS2HNH3SCH3C2HCNC4H13CFeH2NH5CHCSHCHS2HCH2FeC2H5C3HCH2NFeC3H3CHC4HNH2CSC3H4CH5FeHCH2FeHSFeS2H3S3FeS2FeSFe2SFeCS2FeSFeS2FeSFeS3H2CH2NCHCHSH2CHSC6H4C3HCH2SNCNC4FeH3C6H4C6H5CNHFeH2CH4NC3H4FeH2CFeC2H3CHCHSHCH2C2H3SH4NH2CHC2H2CH2CNSCHFeHNC3H7CFeCNC4H12C3SCH3SH4CH2CH2SH2CSH3SH2SNH3CSHSC2H3C3H4SH3CH4SH4FeS2FeS2FeSFeS3H4SHSHFeS2Fe2SFeHS2CHNC2H3C6H4C6H4C2NH4CHC6H4C6H8CHC2SCH4C4H8CH2NFeHCHSHFeCH10SNHCH3C3HC2SHCH3C2SH5SHCH2SH2NHC2HNHCHSHCHC2FeCH2CHNCSHFeSFeSHCFeHC6H4SCH4SHC4HC3HSH7CSH4SHCFeC2HCH4C2HSHFeNH2CS2FeH2CH2SHSHC2H2FeH2CHCH6CH3CHCHSCNH2CHCH3NH2SH2SNFeNHCHCH2CH2CHC3H3CSH2SCFeS2FeS2FeSFeS3FeS2FeS2FeCFeS3H3NH4CSH2C2HC4SFeSFeS2FeSFeS3NHC3HCHCHSCHCH4CH3SHC6H4C6H6CH2CH3C2H4C6H5C2HC6H10FeHNC4H12NC4H12NC2H2NCH2CH2CH2CH2CH4NCHCH4SH4CHFeC2H2CNC2H3CH2CHFeS2FeS2FeSFeS3HFeS2HCSHFeSNS2HFeSFeS3H6CHCSCH2C3HCH3C4HSC6H4C6H4C6H4CHC2HCHC2HSFeCH2CHCH2CHCHC2NC3H8SCH3CH2NHC2HC2H2CHCHFeHCH2FeSH4CH4CH4NHCH4CFeC2H2C2H3SNFeH6FeH4C2H2SCHSFeS2FeS2FeSFeS3H3SFeS2FeS2FeSFeS3C2H3CHCH2C6H3C2FeHFeH2C6H4C8H5C6H4C6H3NC4H12NH5NCH9SHC2SHSCH4CHCHSH2CNCH3CH2NC4HCHNH3C2H2CH4CHNC4H8C2H3SH7C2H4CHCFeH4CNH3SH3C2H2SHC2HSHFeHC3NH4C2H2FeHC2SHFeSFeSFeS2FeCHS3CSFeS2FeSCFeHFeS3HFeS2FeS2FeHFeHS2H12CHNSC2SHCHCHNCHSC2H3CH3SCHNHC5HCFeH3FeH2C7H4C4H3C6H6FeSH2C6H4SHNC4H12SHC2H6CHC3SCNH3CHCH3C4H2SH4CHC2H3CHCH3NC2HC2H2CHSCNFeH2S2HCH2C2HSHCH3SHC2H5SCFeH2SHCH3CHCHFeS2CHC2HC2NH2NC2SCSH2CHC2HCFeS2C6H5CSCH2CH3C5HCH4SHCNFeH3SFeH3SHC2HC2H3C2H2SNH2FeH2CH3CHSHCH2C2HCSFeHSCH2C2HC2H4CH2CHS2H3CHFeCHCH2SHFeS2CHS2FeSH2FeHSCH2FeSCHSH2SHC2HCH4FeS2FeS2FeSFeS3FeSFe2S2FeSFeCS3CH2CSC4HCHCHSNH2CHCHC6H4CH3C2H4SH2C2H5C6H4C6H4C6H3C6HCHNC3H2CH2C2H11SNH6SCH2CH2FeH2CHNCFeHCH3CNC3H8CFeCHSH6CH4CHCH6SCHCHCSCHFeS2FeS2Fe2S3Fe2S2HCH2S2HCHCHSHC2H2FeS3HCHC6H3C2HC4H6SH3C7HCHC4H2C2FeHCNH3SHSHCH4CH2CFeSCFeHSCHSCSH2CHC2HCHC2N2C4H11Fe2CFeH2C3HSH2SHSC2NC2H9CH2C2H3CHC2H3NH4CHC2HFeHSH4C4S2CH7CSHCFeCSH3NCH3FeHCNHCHCHCH6CSHCH4CH4
_chemical_formula_sum              "H2304 S576 Fe288 C1440 N144"
_cell_length_a       63.731
_cell_length_b       64.724
_cell_length_c       97.3799
_cell_angle_alpha    77.1817
_cell_angle_beta     77.7422
_cell_angle_gamma    102.443

_space_group_name_H-M_alt    "P 1"
_space_group_IT_number       1

loop_
  _space_group_symop_operation_xyz
  'x, y, z'

loop_
  _atom_site_type_symbol
  _atom_site_label
  _atom_site_symmetry_multiplicity
  _atom_site_fract_x
  _atom_site_fract_y
  _atom_site_fract_z
  _atom_site_occupancy
  H   H1        1.0  0.18290  0.28124  0.02551  1.0000
  S   S1        1.0  0.46494  0.29175  0.06130  1.0000
  H   H2        1.0  0.45809  0.29644  0.01739  1.0000
  Fe  Fe1       1.0  0.02576  0.07721  0.12545  1.0000
  S   S2        1.0  0.04916  0.06261  0.13618  1.0000
  S   S3        1.0  0.03520  0.11423  0.11637  1.0000
  H   H3        1.0  0.07993  0.01150  0.17533  1.0000
  C   C1        1.0  0.49866  0.31372  0.10394  1.0000
  C   C2        1.0  0.43089  0.28860  0.00763  1.0000
  Fe  Fe2       1.0  0.47655  0.32187  0.04203  1.0000
  S   S4        1.0  0.49442  0.25011  0.04926  1.0000
  H   H4        1.0  0.36704  0.27018  0.02579  1.0000
  H   H5        1.0  0.43745  0.27688  0.00291  1.0000
  C   C3        1.0  0.24820  0.22804  0.99604  1.0000
  C   C4        1.0  0.41470  0.31933  0.01952  1.0000
  S   S5        1.0  0.08672  0.10177  0.19977  1.0000
  Fe  Fe3       1.0  0.14693  0.23698  0.02976  1.0000
  S   S6        1.0  0.18248  0.23570  0.02377  1.0000
  S   S7        1.0  0.13882  0.26868  0.02094  1.0000
  Fe  Fe4       1.0  0.12847  0.18705  0.04365  1.0000
  S   S8        1.0  0.16286  0.18246  0.03839  1.0000
  S   S9        1.0  0.10252  0.15395  0.05280  1.0000
  Fe  Fe5       1.0  0.17294  0.21207  0.04614  1.0000
  S   S10       1.0  0.19369  0.20846  0.06197  1.0000
  Fe  Fe6       1.0  0.16869  0.20625  0.01670  1.0000
  S   S11       1.0  0.13811  0.21537  0.05301  1.0000
  S   S12       1.0  0.13366  0.20895  0.02112  1.0000
  S   S13       1.0  0.29767  0.23182  0.03339  1.0000
  C   C5        1.0  0.22257  0.21581  0.05372  1.0000
  C   C6        1.0  0.23243  0.23139  0.04002  1.0000
  C   C7        1.0  0.25564  0.23688  0.03375  1.0000
  C   C8        1.0  0.26884  0.22641  0.04107  1.0000
  C   C9        1.0  0.25896  0.21095  0.05475  1.0000
  C   C10       1.0  0.23594  0.20582  0.06112  1.0000
  H   H6        1.0  0.22228  0.23961  0.03444  1.0000
  H   H7        1.0  0.26332  0.24933  0.02339  1.0000
  H   H8        1.0  0.26911  0.20292  0.06048  1.0000
  H   H9        1.0  0.22844  0.19391  0.07174  1.0000
  C   C11       1.0  0.05398  0.12539  0.09873  1.0000
  C   C12       1.0  0.06107  0.11160  0.09067  1.0000
  C   C13       1.0  0.07592  0.12070  0.07660  1.0000
  C   C14       1.0  0.08415  0.14362  0.07058  1.0000
  C   C15       1.0  0.07735  0.15749  0.07870  1.0000
  C   C16       1.0  0.06214  0.14837  0.09272  1.0000
  H   H10       1.0  0.05490  0.09390  0.09518  1.0000
  H   H11       1.0  0.08102  0.10990  0.07032  1.0000
  H   H12       1.0  0.08341  0.17519  0.07405  1.0000
  H   H13       1.0  0.05662  0.15912  0.09889  1.0000
  C   C17       1.0  0.06897  0.08286  0.19376  1.0000
  C   C18       1.0  0.06971  0.08739  0.17885  1.0000
  C   C19       1.0  0.05450  0.07353  0.17397  1.0000
  S   S14       1.0  0.33828  0.28719  0.00835  1.0000
  N   N1        1.0  0.25167  0.20592  0.00039  1.0000
  Fe  Fe7       1.0  0.31298  0.25564  0.01101  1.0000
  H   H14       1.0  0.08180  0.10191  0.17112  1.0000
  H   H15       1.0  0.05494  0.07745  0.16251  1.0000
  H   H16       1.0  0.23151  0.22708  0.99408  1.0000
  C   C20       1.0  0.35895  0.22740  0.02785  1.0000
  H   H17       1.0  0.49616  0.21864  0.09680  1.0000
  H   H18       1.0  0.14547  0.26647  0.99055  1.0000
  C   C21       1.0  0.24909  0.19481  0.98887  1.0000
  H   H19       1.0  0.48445  0.24798  0.08170  1.0000
  H   H20       1.0  0.28738  0.21789  0.99185  1.0000
  H   H21       1.0  0.03398  0.11407  0.16043  1.0000
  Fe  Fe8       1.0  0.03836  0.03454  0.12693  1.0000
  C   C22       1.0  0.41084  0.29261  0.00542  1.0000
  C   C23       1.0  0.43477  0.31531  0.02174  1.0000
  C   C24       1.0  0.44264  0.29964  0.01588  1.0000
  S   S15       1.0  0.47616  0.30955  0.09613  1.0000
  C   C25       1.0  0.40266  0.30787  0.01160  1.0000
  C   C26       1.0  0.27441  0.20815  0.00223  1.0000
  S   S16       1.0  0.18875  0.20121  0.99645  1.0000
  H   H22       1.0  0.01195  0.00649  0.23344  1.0000
  C   C27       1.0  0.23503  0.19275  0.01437  1.0000
  S   S17       1.0  0.44986  0.33100  0.03123  1.0000
  Fe  Fe9       1.0  0.32636  0.30026  0.98903  1.0000
  C   C28       1.0  0.03832  0.05520  0.18403  1.0000
  H   H23       1.0  0.01683  0.11161  0.19965  1.0000
  C   C29       1.0  0.47505  0.24997  0.09211  1.0000
  N   N2        1.0  0.13732  0.15215  0.09159  1.0000
  C   C30       1.0  0.14389  0.13231  0.09778  1.0000
  C   C31       1.0  0.13925  0.15467  0.07588  1.0000
  C   C32       1.0  0.15218  0.17184  0.09327  1.0000
  C   C33       1.0  0.11397  0.14979  0.09936  1.0000
  H   H24       1.0  0.14285  0.13000  0.10960  1.0000
  H   H25       1.0  0.16136  0.13347  0.09200  1.0000
  H   H26       1.0  0.13284  0.11717  0.09675  1.0000
  H   H27       1.0  0.13359  0.16899  0.07098  1.0000
  H   H28       1.0  0.15684  0.15741  0.06956  1.0000
  H   H29       1.0  0.12879  0.13990  0.07406  1.0000
  H   H30       1.0  0.14849  0.18727  0.08794  1.0000
  H   H31       1.0  0.17003  0.17360  0.08803  1.0000
  H   H32       1.0  0.15048  0.17110  0.10499  1.0000
  H   H33       1.0  0.10860  0.16463  0.09505  1.0000
  H   H34       1.0  0.11171  0.14748  0.11130  1.0000
  H   H35       1.0  0.10228  0.13533  0.09804  1.0000
  C   C34       1.0  0.35681  0.25911  0.03669  1.0000
  H   H36       1.0  0.39741  0.25236  0.02912  1.0000
  C   C35       1.0  0.03824  0.05011  0.19877  1.0000
  S   S18       1.0  0.39673  0.27824  0.99488  1.0000
  H   H37       1.0  0.36304  0.21132  0.02962  1.0000
  H   H38       1.0  0.33893  0.25680  0.03681  1.0000
  H   H39       1.0  0.47216  0.26584  0.11534  1.0000
  H   H40       1.0  0.35123  0.20694  0.05637  1.0000
  S   S19       1.0  0.29805  0.26995  0.99345  1.0000
  S   S20       1.0  0.33649  0.24352  0.99632  1.0000
  N   N3        1.0  0.36235  0.23782  0.03956  1.0000
  H   H41       1.0  0.47757  0.30293  0.12610  1.0000
  C   C36       1.0  0.17927  0.32688  0.99336  1.0000
  H   H42       1.0  0.02243  0.14399  0.17031  1.0000
  H   H43       1.0  0.34961  0.23065  0.06289  1.0000
  C   C37       1.0  0.18186  0.29382  0.01650  1.0000
  C   C38       1.0  0.34760  0.22321  0.05381  1.0000
  H   H44       1.0  0.08279  0.04273  0.23252  1.0000
  H   H45       1.0  0.47383  0.26724  0.08979  1.0000
  Fe  Fe10      1.0  0.48624  0.31167  0.07205  1.0000
  H   H46       1.0  0.49565  0.21763  0.11536  1.0000
  H   H47       1.0  0.05628  0.02205  0.17447  1.0000
  N   N4        1.0  0.00770  0.10917  0.17986  1.0000
  H   H48       1.0  0.14223  0.19624  0.99650  1.0000
  H   H49       1.0  0.50500  0.18349  0.07851  1.0000
  C   C39       1.0  0.06914  0.01284  0.22733  1.0000
  Fe  Fe11      1.0  0.36128  0.27610  0.99275  1.0000
  H   H50       1.0  0.38934  0.25001  0.04831  1.0000
  H   H51       1.0  0.02613  0.03565  0.20652  1.0000
  H   H52       1.0  0.00968  0.03377  0.23343  1.0000
  H   H53       1.0  0.07505  0.02041  0.21562  1.0000
  C   C40       1.0  0.49459  0.30852  0.11921  1.0000
  C   C41       1.0  0.05361  0.06377  0.20359  1.0000
  N   N5        1.0  0.48607  0.24500  0.10388  1.0000
  C   C42       1.0  0.19893  0.32902  0.99780  1.0000
  Fe  Fe12      1.0  0.49635  0.28434  0.05106  1.0000
  H   H54       1.0  0.48242  0.29393  0.21788  1.0000
  H   H55       1.0  0.48619  0.20415  0.06269  1.0000
  H   H56       1.0  0.01220  0.00954  0.07831  1.0000
  H   H57       1.0  0.35990  0.26787  0.04499  1.0000
  H   H58       1.0  0.34132  0.22432  0.02730  1.0000
  H   H59       1.0  0.40844  0.33138  0.02402  1.0000
  C   C43       1.0  0.16205  0.29185  0.01224  1.0000
  Fe  Fe13      1.0  0.01878  0.04531  0.15487  1.0000
  H   H60       1.0  0.00624  0.10604  0.15846  1.0000
  H   H61       1.0  0.27762  0.19180  0.00557  1.0000
  S   S21       1.0  0.01766  0.05058  0.11428  1.0000
  S   S22       1.0  0.07214  0.12504  0.23395  1.0000
  H   H62       1.0  0.32967  0.22011  0.05382  1.0000
  H   H63       1.0  0.36969  0.23807  0.01691  1.0000
  H   H64       1.0  0.05361  0.05938  0.21489  1.0000
  H   H65       1.0  0.38718  0.31100  0.01016  1.0000
  S   S23       1.0  0.06278  0.01705  0.11848  1.0000
  S   S24       1.0  0.01711  0.03903  0.17881  1.0000
  H   H66       1.0  0.39073  0.22594  0.04217  1.0000
  Fe  Fe14      1.0  0.07977  0.09820  0.22414  1.0000
  C   C44       1.0  0.20012  0.31253  0.00944  1.0000
  H   H67       1.0  0.18580  0.27828  0.98866  1.0000
  C   C45       1.0  0.38596  0.24165  0.03985  1.0000
  H   H68       1.0  0.21523  0.31417  0.01299  1.0000
  H   H69       1.0  0.46381  0.31106  0.21636  1.0000
  H   H70       1.0  0.36547  0.33260  0.99219  1.0000
  C   C46       1.0  0.50095  0.21284  0.06501  1.0000
  C   C47       1.0  0.01664  0.10366  0.16623  1.0000
  H   H71       1.0  0.01913  0.08659  0.22790  1.0000
  C   C48       1.0  0.16073  0.30856  0.00077  1.0000
  S   S25       1.0  0.01008  0.01597  0.14656  1.0000
  C   C49       1.0  0.06139  0.00720  0.17908  1.0000
  C   C50       1.0  0.47518  0.30569  0.22281  1.0000
  C   C51       1.0  0.02288  0.10725  0.18936  1.0000
  H   H72       1.0  0.21767  0.19103  0.01345  1.0000
  H   H73       1.0  0.01702  0.08615  0.16854  1.0000
  H   H74       1.0  0.14538  0.30724  0.99754  1.0000
  H   H75       1.0  0.45591  0.23761  0.12113  1.0000
  H   H76       1.0  0.23665  0.20055  0.02333  1.0000
  H   H77       1.0  0.23695  0.17586  0.01787  1.0000
  H   H78       1.0  0.02425  0.09015  0.19261  1.0000
  H   H79       1.0  0.48132  0.24534  0.12636  1.0000
  H   H80       1.0  0.46465  0.29660  0.23412  1.0000
  H   H81       1.0  0.45522  0.32702  0.18062  1.0000
  H   H82       1.0  0.45782  0.23893  0.09505  1.0000
  H   H83       1.0  0.27699  0.21666  0.01075  1.0000
  H   H84       1.0  0.04009  0.11816  0.18377  1.0000
  H   H85       1.0  0.25126  0.17795  0.99183  1.0000
  S   S26       1.0  0.42981  0.33222  0.20670  1.0000
  C   C52       1.0  0.00584  0.13199  0.17621  1.0000
  H   H86       1.0  0.24918  0.23662  0.00468  1.0000
  N   N6        1.0  0.49288  0.32474  0.22275  1.0000
  C   C53       1.0  0.47330  0.24854  0.11730  1.0000
  C   C54       1.0  0.48693  0.22184  0.10680  1.0000
  H   H87       1.0  0.05181  0.00829  0.15353  1.0000
  H   H88       1.0  0.46991  0.21016  0.11044  1.0000
  C   C55       1.0  0.07354  0.02551  0.23691  1.0000
  H   H89       1.0  0.14875  0.24105  0.98725  1.0000
  Fe  Fe15      1.0  0.37072  0.31396  0.36146  1.0000
  S   S27       1.0  0.35209  0.27934  0.37473  1.0000
  H   H90       1.0  0.36305  0.28782  0.40333  1.0000
  Fe  Fe16      1.0  0.40859  0.30055  0.34444  1.0000
  S   S28       1.0  0.39284  0.26501  0.35652  1.0000
  S   S29       1.0  0.44319  0.30902  0.32954  1.0000
  Fe  Fe17      1.0  0.36067  0.27169  0.35301  1.0000
  S   S30       1.0  0.34171  0.25195  0.34055  1.0000
  Fe  Fe18      1.0  0.38629  0.27695  0.37667  1.0000
  S   S31       1.0  0.39541  0.26322  0.39761  1.0000
  S   S32       1.0  0.37727  0.30681  0.33978  1.0000
  S   S33       1.0  0.40402  0.31204  0.36458  1.0000
  H   H91       1.0  0.16716  0.09368  0.25243  1.0000
  S   S34       1.0  0.42273  0.31832  0.24820  1.0000
  H   H92       1.0  0.49535  0.31516  0.37522  1.0000
  H   H93       1.0  0.12023  0.06330  0.25715  1.0000
  H   H94       1.0  0.32754  0.30742  0.35938  1.0000
  H   H95       1.0  0.43888  0.28300  0.37631  1.0000
  H   H96       1.0  0.45168  0.32350  0.37139  1.0000
  H   H97       1.0  0.33846  0.30814  0.39352  1.0000
  S   S35       1.0  0.36397  0.28513  0.27691  1.0000
  H   H98       1.0  0.35683  0.28435  0.24866  1.0000
  H   H99       1.0  0.14364  0.26135  0.25868  1.0000
  Fe  Fe19      1.0  0.23324  0.23379  0.31086  1.0000
  S   S36       1.0  0.24743  0.26450  0.29214  1.0000
  S   S37       1.0  0.24363  0.23765  0.33151  1.0000
  Fe  Fe20      1.0  0.20103  0.21142  0.29442  1.0000
  S   S38       1.0  0.21375  0.24130  0.27493  1.0000
  S   S39       1.0  0.17026  0.18312  0.29616  1.0000
  Fe  Fe21      1.0  0.24753  0.24131  0.27817  1.0000
  S   S40       1.0  0.27704  0.24960  0.25876  1.0000
  Fe  Fe22      1.0  0.21244  0.26135  0.29098  1.0000
  S   S41       1.0  0.19679  0.28942  0.28838  1.0000
  S   S42       1.0  0.23553  0.21023  0.29685  1.0000
  S   S43       1.0  0.19751  0.23188  0.31049  1.0000
  S   S44       1.0  0.46473  0.29314  0.46128  1.0000
  S   S45       1.0  0.46863  0.32146  0.41968  1.0000
  C   C56       1.0  0.12947  0.06026  0.26555  1.0000
  C   C57       1.0  0.35128  0.32378  0.42252  1.0000
  H   H100      1.0  0.11419  0.21707  0.29313  1.0000
  C   C58       1.0  0.15482  0.24721  0.28350  1.0000
  Fe  Fe23      1.0  0.09361  0.11615  0.24904  1.0000
  S   S46       1.0  0.12373  0.14051  0.25219  1.0000
  Fe  Fe24      1.0  0.07358  0.06691  0.25385  1.0000
  S   S47       1.0  0.07194  0.03171  0.26412  1.0000
  H   H101      1.0  0.39069  0.29250  0.29809  1.0000
  S   S48       1.0  0.06434  0.09056  0.26624  1.0000
  H   H102      1.0  0.31445  0.30854  0.27103  1.0000
  H   H103      1.0  0.16385  0.23817  0.29026  1.0000
  H   H104      1.0  0.13618  0.20389  0.29294  1.0000
  H   H105      1.0  0.19894  0.31101  0.34381  1.0000
  H   H106      1.0  0.36063  0.32098  0.29733  1.0000
  H   H107      1.0  0.16388  0.06995  0.27708  1.0000
  S   S49       1.0  0.47453  0.23626  0.47191  1.0000
  C   C59       1.0  0.15788  0.17119  0.28372  1.0000
  C   C60       1.0  0.13608  0.15674  0.28899  1.0000
  C   C61       1.0  0.12530  0.14734  0.27960  1.0000
  C   C62       1.0  0.13621  0.15211  0.26470  1.0000
  C   C63       1.0  0.15803  0.16649  0.25944  1.0000
  C   C64       1.0  0.16879  0.17590  0.26882  1.0000
  H   H108      1.0  0.12736  0.15286  0.30046  1.0000
  H   H109      1.0  0.10851  0.13648  0.28391  1.0000
  H   H110      1.0  0.16678  0.17033  0.24797  1.0000
  H   H111      1.0  0.18560  0.18674  0.26451  1.0000
  C   C65       1.0  0.21043  0.31519  0.28999  1.0000
  H   H112      1.0  0.30934  0.30603  0.32809  1.0000
  N   N7        1.0  0.35557  0.31604  0.40929  1.0000
  H   H113      1.0  0.13802  0.06201  0.29122  1.0000
  S   S50       1.0  0.37999  0.33128  0.23864  1.0000
  C   C66       1.0  0.23084  0.31907  0.29359  1.0000
  H   H114      1.0  0.33273  0.33073  0.39985  1.0000
  C   C67       1.0  0.12784  0.21323  0.28580  1.0000
  H   H115      1.0  0.10862  0.09208  0.26803  1.0000
  H   H116      1.0  0.33598  0.30315  0.32990  1.0000
  C   C68       1.0  0.34042  0.27364  0.27179  1.0000
  C   C69       1.0  0.34124  0.27626  0.25702  1.0000
  C   C70       1.0  0.32183  0.26822  0.25305  1.0000
  C   C71       1.0  0.30163  0.25761  0.26384  1.0000
  C   C72       1.0  0.30097  0.25455  0.27862  1.0000
  C   C73       1.0  0.32038  0.26251  0.28259  1.0000
  C   C74       1.0  0.46880  0.33001  0.30167  1.0000
  H   H117      1.0  0.21812  0.32348  0.32595  1.0000
  H   H118      1.0  0.28552  0.24593  0.28701  1.0000
  H   H119      1.0  0.31976  0.26034  0.29401  1.0000
  H   H120      1.0  0.23902  0.30611  0.29511  1.0000
  C   C75       1.0  0.41484  0.27951  0.40439  1.0000
  C   C76       1.0  0.42141  0.30253  0.39929  1.0000
  C   C77       1.0  0.43747  0.31505  0.40436  1.0000
  C   C78       1.0  0.44716  0.30478  0.41467  1.0000
  C   C79       1.0  0.44028  0.28176  0.42005  1.0000
  C   C80       1.0  0.42416  0.26922  0.41494  1.0000
  H   H121      1.0  0.41419  0.31077  0.39142  1.0000
  C   C81       1.0  0.06645  0.01581  0.25206  1.0000
  H   H122      1.0  0.44756  0.27361  0.42801  1.0000
  H   H123      1.0  0.41912  0.25142  0.41907  1.0000
  C   C82       1.0  0.31484  0.25009  0.33756  1.0000
  C   C83       1.0  0.29809  0.25585  0.34651  1.0000
  C   C84       1.0  0.27649  0.25232  0.34436  1.0000
  C   C85       1.0  0.27153  0.24349  0.33306  1.0000
  C   C86       1.0  0.28857  0.23866  0.32374  1.0000
  C   C87       1.0  0.30999  0.24172  0.32609  1.0000
  H   H124      1.0  0.30147  0.26215  0.35545  1.0000
  H   H125      1.0  0.26344  0.25594  0.35174  1.0000
  H   H126      1.0  0.28501  0.23170  0.31508  1.0000
  H   H127      1.0  0.32275  0.23712  0.31911  1.0000
  H   H128      1.0  0.36580  0.32520  0.42727  1.0000
  H   H129      1.0  0.32607  0.29587  0.31525  1.0000
  H   H130      1.0  0.41247  0.32038  0.31288  1.0000
  H   H131      1.0  0.15761  0.11367  0.26049  1.0000
  C   C88       1.0  0.44718  0.32269  0.31110  1.0000
  C   C89       1.0  0.42915  0.32585  0.30565  1.0000
  C   C90       1.0  0.28755  0.30866  0.25327  1.0000
  H   H132      1.0  0.14378  0.05445  0.26075  1.0000
  H   H133      1.0  0.19084  0.27502  0.33797  1.0000
  H   H134      1.0  0.23155  0.29214  0.35840  1.0000
  H   H135      1.0  0.28061  0.32152  0.27785  1.0000
  H   H136      1.0  0.33097  0.31735  0.25240  1.0000
  H   H137      1.0  0.15346  0.21655  0.25934  1.0000
  H   H138      1.0  0.28957  0.30434  0.35598  1.0000
  H   H139      1.0  0.21002  0.28762  0.32018  1.0000
  N   N8        1.0  0.22318  0.29363  0.33800  1.0000
  C   C91       1.0  0.21657  0.31429  0.33740  1.0000
  C   C92       1.0  0.22074  0.28192  0.35337  1.0000
  C   C93       1.0  0.24677  0.29887  0.32953  1.0000
  C   C94       1.0  0.20872  0.27940  0.33175  1.0000
  H   H140      1.0  0.46832  0.29920  0.38687  1.0000
  S   S51       1.0  0.26302  0.33536  0.35525  1.0000
  H   H141      1.0  0.48281  0.32763  0.30584  1.0000
  H   H142      1.0  0.32054  0.30293  0.41153  1.0000
  H   H143      1.0  0.25804  0.30945  0.33408  1.0000
  C   C95       1.0  0.48446  0.19757  0.47164  1.0000
  H   H144      1.0  0.10506  0.07390  0.28568  1.0000
  C   C96       1.0  0.46461  0.32382  0.36163  1.0000
  H   H145      1.0  0.24934  0.30774  0.31791  1.0000
  H   H146      1.0  0.15490  0.09016  0.28507  1.0000
  C   C97       1.0  0.13196  0.24598  0.26666  1.0000
  C   C98       1.0  0.28737  0.33497  0.26740  1.0000
  H   H147      1.0  0.44509  0.28538  0.35717  1.0000
  H   H148      1.0  0.36569  0.27057  0.30767  1.0000
  H   H149      1.0  0.17063  0.21842  0.27162  1.0000
  C   C99       1.0  0.16104  0.22746  0.26541  1.0000
  H   H150      1.0  0.16731  0.26248  0.27596  1.0000
  H   H151      1.0  0.14352  0.10238  0.24872  1.0000
  N   N9        1.0  0.13698  0.08025  0.27018  1.0000
  H   H152      1.0  0.25225  0.28363  0.32970  1.0000
  H   H153      1.0  0.38342  0.28193  0.31772  1.0000
  C   C100      1.0  0.36046  0.33267  0.30419  1.0000
  H   H154      1.0  0.33105  0.33684  0.26287  1.0000
  H   H155      1.0  0.37460  0.29476  0.41748  1.0000
  H   H156      1.0  0.48242  0.30676  0.34084  1.0000
  N   N10       1.0  0.30123  0.32814  0.25595  1.0000
  N   N11       1.0  0.47177  0.30335  0.36390  1.0000
  C   C101      1.0  0.45240  0.28420  0.36662  1.0000
  H   H157      1.0  0.45704  0.26842  0.36868  1.0000
  H   H158      1.0  0.21329  0.26370  0.33195  1.0000
  C   C102      1.0  0.48898  0.30462  0.35066  1.0000
  Fe  Fe25      1.0  0.49040  0.31572  0.46792  1.0000
  H   H159      1.0  0.50115  0.08554  0.36925  1.0000
  H   H160      1.0  0.37927  0.32631  0.38814  1.0000
  H   H161      1.0  0.14253  0.25234  0.29103  1.0000
  C   C103      1.0  0.14899  0.07535  0.28139  1.0000
  H   H162      1.0  0.39043  0.33390  0.40233  1.0000
  H   H163      1.0  0.34524  0.28171  0.42146  1.0000
  C   C104      1.0  0.01051  0.01795  0.24038  1.0000
  C   C105      1.0  0.31962  0.32032  0.36063  1.0000
  Fe  Fe26      1.0  0.38697  0.31432  0.25910  1.0000
  N   N12       1.0  0.14389  0.23347  0.27535  1.0000
  C   C106      1.0  0.35977  0.29416  0.41308  1.0000
  H   H164      1.0  0.48703  0.28568  0.37855  1.0000
  C   C107      1.0  0.29813  0.31855  0.35874  1.0000
  C   C108      1.0  0.33593  0.31436  0.40335  1.0000
  S   S52       1.0  0.05080  0.07152  0.23978  1.0000
  H   H165      1.0  0.49463  0.28936  0.35188  1.0000
  H   H166      1.0  0.11783  0.04645  0.27487  1.0000
  H   H167      1.0  0.22723  0.32551  0.34192  1.0000
  H   H168      1.0  0.32242  0.27041  0.24161  1.0000
  H   H169      1.0  0.37096  0.32909  0.31169  1.0000
  C   C109      1.0  0.11737  0.08727  0.27642  1.0000
  H   H170      1.0  0.11891  0.25085  0.27381  1.0000
  C   C110      1.0  0.32675  0.30800  0.32178  1.0000
  Fe  Fe27      1.0  0.48451  0.31061  0.43804  1.0000
  H   H171      1.0  0.33645  0.31223  0.43117  1.0000
  H   H172      1.0  0.02628  0.02150  0.24368  1.0000
  N   N13       1.0  0.39612  0.26086  0.30596  1.0000
  C   C111      1.0  0.38584  0.24090  0.31851  1.0000
  C   C112      1.0  0.39560  0.25496  0.29220  1.0000
  C   C113      1.0  0.41951  0.27036  0.30574  1.0000
  C   C114      1.0  0.38347  0.27725  0.30742  1.0000
  H   H173      1.0  0.38595  0.24475  0.32909  1.0000
  H   H174      1.0  0.39475  0.22802  0.31776  1.0000
  H   H175      1.0  0.36803  0.23358  0.31912  1.0000
  H   H176      1.0  0.40298  0.26971  0.28250  1.0000
  H   H177      1.0  0.40497  0.24262  0.29068  1.0000
  H   H178      1.0  0.37812  0.24784  0.29202  1.0000
  H   H179      1.0  0.42773  0.28549  0.29640  1.0000
  H   H180      1.0  0.42959  0.25846  0.30471  1.0000
  H   H181      1.0  0.42045  0.27511  0.31596  1.0000
  H   H182      1.0  0.20321  0.27777  0.36018  1.0000
  C   C115      1.0  0.49309  0.21989  0.47035  1.0000
  C   C116      1.0  0.15203  0.09821  0.25741  1.0000
  H   H183      1.0  0.22555  0.26620  0.35412  1.0000
  H   H184      1.0  0.45738  0.32624  0.35213  1.0000
  H   H185      1.0  0.12232  0.10193  0.28042  1.0000
  H   H186      1.0  0.27300  0.31219  0.24958  1.0000
  H   H187      1.0  0.12013  0.20187  0.28003  1.0000
  H   H188      1.0  0.44261  0.33284  0.40018  1.0000
  N   N14       1.0  0.33745  0.33083  0.31236  1.0000
  C   C117      1.0  0.49865  0.18388  0.47067  1.0000
  H   H189      1.0  0.12359  0.23602  0.26037  1.0000
  H   H190      1.0  0.32395  0.32525  0.29465  1.0000
  C   C118      1.0  0.37535  0.33187  0.39816  1.0000
  C   C119      1.0  0.32022  0.32249  0.26085  1.0000
  Fe  Fe28      1.0  0.48873  0.27241  0.46085  1.0000
  H   H191      1.0  0.18448  0.32941  0.28488  1.0000
  C   C120      1.0  0.48109  0.30074  0.37666  1.0000
  C   C121      1.0  0.32451  0.33643  0.30184  1.0000
  H   H192      1.0  0.49181  0.16666  0.47157  1.0000
  H   H193      1.0  0.49462  0.08317  0.34542  1.0000
  Fe  Fe29      1.0  0.04392  0.09747  0.25025  1.0000
  H   H194      1.0  0.28089  0.29450  0.26335  1.0000
  H   H195      1.0  0.17332  0.24228  0.25725  1.0000
  S   S53       1.0  0.00715  0.09616  0.25597  1.0000
  H   H196      1.0  0.47312  0.33210  0.24095  1.0000
  C   C122      1.0  0.28813  0.33558  0.35989  1.0000
  H   H197      1.0  0.30703  0.33518  0.30758  1.0000
  H   H198      1.0  0.29748  0.30291  0.24476  1.0000
  C   C123      1.0  0.20013  0.33218  0.28777  1.0000
  C   C124      1.0  0.43279  0.33615  0.29073  1.0000
  H   H199      1.0  0.00562  0.02806  0.26583  1.0000
  H   H200      1.0  0.46673  0.19086  0.47327  1.0000
  H   H201      1.0  0.50300  0.03578  0.33772  1.0000
  H   H202      1.0  0.50390  0.31884  0.34829  1.0000
  H   H203      1.0  0.49814  0.30816  0.24291  1.0000
  S   S54       1.0  0.10358  0.09158  0.23745  1.0000
  C   C125      1.0  0.22442  0.27457  0.63742  1.0000
  C   C126      1.0  0.47285  0.24354  0.50734  1.0000
  C   C127      1.0  0.45316  0.27020  0.50014  1.0000
  S   S55       1.0  0.18250  0.30102  0.65034  1.0000
  H   H204      1.0  0.21051  0.27133  0.63225  1.0000
  H   H205      1.0  0.02316  0.14816  0.66300  1.0000
  H   H206      1.0  0.44830  0.23957  0.53442  1.0000
  H   H207      1.0  0.22995  0.22454  0.72553  1.0000
  H   H208      1.0  0.43377  0.25954  0.52899  1.0000
  H   H209      1.0  0.49276  0.32386  0.60277  1.0000
  H   H210      1.0  0.29642  0.33284  0.58068  1.0000
  C   C128      1.0  0.48356  0.31690  0.61459  1.0000
  H   H211      1.0  0.24997  0.32717  0.61611  1.0000
  H   H212      1.0  0.06515  0.14602  0.68423  1.0000
  H   H213      1.0  0.21995  0.25520  0.73462  1.0000
  Fe  Fe30      1.0  0.03350  0.09370  0.72569  1.0000
  S   S56       1.0  0.06746  0.11531  0.71108  1.0000
  C   C129      1.0  0.26129  0.29688  0.63510  1.0000
  Fe  Fe31      1.0  0.37431  0.32368  0.63007  1.0000
  Fe  Fe32      1.0  0.14323  0.23667  0.69693  1.0000
  S   S57       1.0  0.17047  0.23187  0.70761  1.0000
  S   S58       1.0  0.10726  0.21595  0.70806  1.0000
  Fe  Fe33      1.0  0.17485  0.27624  0.67233  1.0000
  S   S59       1.0  0.20429  0.27443  0.68109  1.0000
  Fe  Fe34      1.0  0.19178  0.23813  0.68481  1.0000
  S   S60       1.0  0.21583  0.21816  0.68033  1.0000
  Fe  Fe35      1.0  0.18070  0.26866  0.70297  1.0000
  S   S61       1.0  0.19512  0.28336  0.71896  1.0000
  S   S62       1.0  0.16388  0.23995  0.67432  1.0000
  S   S63       1.0  0.15184  0.27351  0.69404  1.0000
  H   H214      1.0  0.03219  0.13559  0.70588  1.0000
  S   S64       1.0  0.34444  0.29606  0.63235  1.0000
  C   C130      1.0  0.01766  0.14958  0.67430  1.0000
  H   H215      1.0  0.22131  0.31493  0.72947  1.0000
  H   H216      1.0  0.26846  0.28259  0.63709  1.0000
  H   H217      1.0  0.28229  0.26704  0.70302  1.0000
  H   H218      1.0  0.26665  0.30086  0.60640  1.0000
  S   S65       1.0  0.31336  0.27345  0.67422  1.0000
  C   C131      1.0  0.24770  0.23464  0.72184  1.0000
  H   H219      1.0  0.22936  0.25903  0.64044  1.0000
  H   H220      1.0  0.48705  0.25178  0.49732  1.0000
  C   C132      1.0  0.24371  0.23309  0.67706  1.0000
  C   C133      1.0  0.25142  0.25526  0.66887  1.0000
  C   C134      1.0  0.27325  0.26755  0.66736  1.0000
  C   C135      1.0  0.28724  0.25773  0.67424  1.0000
  C   C136      1.0  0.27962  0.23547  0.68223  1.0000
  C   C137      1.0  0.25802  0.22308  0.68344  1.0000
  H   H221      1.0  0.24040  0.26291  0.66391  1.0000
  H   H222      1.0  0.27898  0.28480  0.66140  1.0000
  H   H223      1.0  0.29044  0.22782  0.68752  1.0000
  H   H224      1.0  0.25216  0.20590  0.68971  1.0000
  H   H225      1.0  0.25150  0.32916  0.67353  1.0000
  C   C138      1.0  0.19917  0.31192  0.71565  1.0000
  Fe  Fe36      1.0  0.33031  0.30163  0.65388  1.0000
  C   C139      1.0  0.07854  0.14308  0.71077  1.0000
  C   C140      1.0  0.06550  0.15444  0.71790  1.0000
  C   C141      1.0  0.07434  0.17692  0.71654  1.0000
  C   C142      1.0  0.09658  0.18809  0.70854  1.0000
  C   C143      1.0  0.10975  0.17667  0.70160  1.0000
  C   C144      1.0  0.10066  0.15434  0.70258  1.0000
  H   H226      1.0  0.04856  0.14601  0.72439  1.0000
  H   H227      1.0  0.06133  0.15166  0.66620  1.0000
  H   H228      1.0  0.12690  0.18506  0.69542  1.0000
  H   H229      1.0  0.11090  0.14572  0.69702  1.0000
  C   C145      1.0  0.05475  0.15275  0.67747  1.0000
  C   C146      1.0  0.19080  0.32909  0.64967  1.0000
  C   C147      1.0  0.44260  0.24788  0.52519  1.0000
  H   H230      1.0  0.28192  0.26787  0.72135  1.0000
  C   C148      1.0  0.44271  0.32808  0.59759  1.0000
  S   S66       1.0  0.31313  0.32596  0.64465  1.0000
  C   C149      1.0  0.47757  0.27647  0.51550  1.0000
  H   H231      1.0  0.03819  0.10981  0.69131  1.0000
  H   H232      1.0  0.02530  0.16034  0.69846  1.0000
  N   N15       1.0  0.24353  0.29296  0.62763  1.0000
  C   C150      1.0  0.27321  0.27123  0.71268  1.0000
  H   H233      1.0  0.21740  0.27832  0.64777  1.0000
  S   S67       1.0  0.31269  0.31968  0.60544  1.0000
  H   H234      1.0  0.05765  0.17051  0.67703  1.0000
  H   H235      1.0  0.44039  0.31047  0.59999  1.0000
  H   H236      1.0  0.25556  0.23006  0.73082  1.0000
  C   C151      1.0  0.23802  0.26438  0.73065  1.0000
  H   H237      1.0  0.06398  0.18563  0.72190  1.0000
  C   C152      1.0  0.23619  0.31317  0.62398  1.0000
  Fe  Fe37      1.0  0.33013  0.32280  0.62290  1.0000
  H   H238      1.0  0.46126  0.23061  0.50452  1.0000
  H   H239      1.0  0.46717  0.27950  0.49028  1.0000
  N   N16       1.0  0.24941  0.25847  0.71780  1.0000
  H   H240      1.0  0.01026  0.10714  0.68960  1.0000
  H   H241      1.0  0.23910  0.28133  0.70278  1.0000
  N   N17       1.0  0.46155  0.25949  0.51206  1.0000
  H   H242      1.0  0.22196  0.31055  0.61903  1.0000
  H   H243      1.0  0.48414  0.26918  0.52458  1.0000
  H   H244      1.0  0.03347  0.11452  0.67352  1.0000
  C   C153      1.0  0.18851  0.32314  0.70656  1.0000
  C   C154      1.0  0.18840  0.33591  0.66245  1.0000
  H   H245      1.0  0.44153  0.25797  0.49684  1.0000
  H   H246      1.0  0.18112  0.32384  0.67303  1.0000
  H   H247      1.0  0.23925  0.28417  0.60817  1.0000
  S   S68       1.0  0.40806  0.31812  0.62197  1.0000
  H   H248      1.0  0.25832  0.27233  0.61638  1.0000
  H   H249      1.0  0.22082  0.25382  0.70924  1.0000
  H   H250      1.0  0.27513  0.28928  0.70931  1.0000
  N   N18       1.0  0.03085  0.14054  0.68368  1.0000
  C   C155      1.0  0.23865  0.26360  0.70594  1.0000
  H   H251      1.0  0.25618  0.22971  0.71235  1.0000
  H   H252      1.0  0.47950  0.23513  0.51600  1.0000
  H   H253      1.0  0.47322  0.33584  0.58054  1.0000
  H   H254      1.0  0.24710  0.25977  0.69605  1.0000
  H   H255      1.0  0.17755  0.31424  0.70145  1.0000
  C   C156      1.0  0.25226  0.28730  0.61405  1.0000
  H   H256      1.0  0.27527  0.31154  0.62844  1.0000
  H   H257      1.0  0.25491  0.29993  0.64580  1.0000
  H   H258      1.0  0.48910  0.30215  0.61883  1.0000
  H   H259      1.0  0.01936  0.16733  0.67351  1.0000
  H   H260      1.0  0.46965  0.28904  0.51878  1.0000
  C   C157      1.0  0.21317  0.32355  0.72234  1.0000
  C   C158      1.0  0.02289  0.14277  0.69852  1.0000
  H   H261      1.0  0.23045  0.31837  0.63395  1.0000
  S   S69       1.0  0.00678  0.10810  0.73508  1.0000
  H   H262      1.0  0.44440  0.28232  0.50325  1.0000
  C   C159      1.0  0.02803  0.11697  0.68453  1.0000
  S   S70       1.0  0.36142  0.32698  0.65264  1.0000
  H   H263      1.0  0.43015  0.23508  0.52289  1.0000
  H   H264      1.0  0.12441  0.19699  0.73472  1.0000
  H   H265      1.0  0.49207  0.28553  0.50580  1.0000
  H   H266      1.0  0.23883  0.28223  0.72789  1.0000
  S   S71       1.0  0.01087  0.07060  0.71729  1.0000
  H   H267      1.0  0.46551  0.31104  0.61539  1.0000
  H   H268      1.0  0.47673  0.30866  0.64358  1.0000
  C   C160      1.0  0.42750  0.33633  0.60590  1.0000
  H   H269      1.0  0.45525  0.31991  0.63829  1.0000
  C   C161      1.0  0.47331  0.32406  0.63801  1.0000
  N   N19       1.0  0.48768  0.33333  0.62280  1.0000
  C   C162      1.0  0.50095  0.33295  0.49730  1.0000
  H   H270      1.0  0.47752  0.33429  0.51642  1.0000
  C   C163      1.0  0.49469  0.33506  0.51154  1.0000
  S   S72       1.0  0.48045  0.32744  0.48792  1.0000
  H   H271      1.0  0.47593  0.33597  0.64457  1.0000
  H   H272      1.0  0.09684  0.16319  0.73664  1.0000
  H   H273      1.0  0.13714  0.07625  0.85368  1.0000
  Fe  Fe38      1.0  0.20244  0.24858  0.89955  1.0000
  S   S73       1.0  0.22094  0.22518  0.89256  1.0000
  S   S74       1.0  0.21656  0.28503  0.88920  1.0000
  Fe  Fe39      1.0  0.17064  0.21291  0.92544  1.0000
  S   S75       1.0  0.18725  0.18715  0.92068  1.0000
  S   S76       1.0  0.14225  0.20396  0.94554  1.0000
  Fe  Fe40      1.0  0.21927  0.21363  0.91650  1.0000
  S   S77       1.0  0.25006  0.20911  0.92396  1.0000
  Fe  Fe41      1.0  0.18660  0.20146  0.89749  1.0000
  S   S78       1.0  0.17591  0.17775  0.88415  1.0000
  S   S79       1.0  0.20232  0.23806  0.92301  1.0000
  S   S80       1.0  0.16840  0.22618  0.90264  1.0000
  H   H274      1.0  0.09790  0.10374  0.87117  1.0000
  H   H275      1.0  0.07484  0.14936  0.75319  1.0000
  H   H276      1.0  0.26096  0.23861  0.98580  1.0000
  H   H277      1.0  0.16008  0.29385  0.95834  1.0000
  S   S81       1.0  0.31459  0.24184  0.96178  1.0000
  H   H278      1.0  0.04128  0.10082  0.76405  1.0000
  C   C164      1.0  0.22018  0.32076  0.90010  1.0000
  C   C165      1.0  0.17467  0.19888  0.98303  1.0000
  H   H279      1.0  0.01632  0.03641  0.85551  1.0000
  H   H280      1.0  0.18924  0.30252  0.95712  1.0000
  H   H281      1.0  0.28622  0.32899  0.91106  1.0000
  C   C166      1.0  0.05312  0.02356  0.82343  1.0000
  S   S82       1.0  0.35106  0.29129  0.97292  1.0000
  Fe  Fe42      1.0  0.06932  0.12495  0.85432  1.0000
  S   S83       1.0  0.08764  0.10924  0.83894  1.0000
  S   S84       1.0  0.08416  0.14727  0.86734  1.0000
  Fe  Fe43      1.0  0.02317  0.10154  0.85131  1.0000
  S   S85       1.0  0.03829  0.08415  0.83612  1.0000
  H   H282      1.0  0.13596  0.16020  0.91532  1.0000
  Fe  Fe44      1.0  0.05999  0.07827  0.85086  1.0000
  S   S86       1.0  0.06370  0.04410  0.85851  1.0000
  Fe  Fe45      1.0  0.06410  0.11652  0.82536  1.0000
  S   S87       1.0  0.07432  0.12634  0.80065  1.0000
  S   S88       1.0  0.04305  0.09313  0.86719  1.0000
  S   S89       1.0  0.04766  0.13478  0.83963  1.0000
  H   H283      1.0  0.39323  0.32076  0.97658  1.0000
  C   C167      1.0  0.01611  0.09723  0.78376  1.0000
  C   C168      1.0  0.05193  0.11521  0.79411  1.0000
  C   C169      1.0  0.05597  0.11211  0.78007  1.0000
  C   C170      1.0  0.03806  0.10324  0.77485  1.0000
  H   H284      1.0  0.12565  0.20644  0.75059  1.0000
  C   C171      1.0  0.02996  0.10947  0.80285  1.0000
  H   H285      1.0  0.07295  0.11611  0.77339  1.0000
  H   H286      1.0  0.09802  0.18600  0.77453  1.0000
  H   H287      1.0  0.02662  0.11233  0.81351  1.0000
  H   H288      1.0  0.30447  0.29852  0.91384  1.0000
  H   H289      1.0  0.28793  0.27041  0.91832  1.0000
  H   H290      1.0  0.06676  0.05445  0.82747  1.0000
  H   H291      1.0  0.24723  0.26218  0.92167  1.0000
  C   C172      1.0  0.08285  0.19224  0.75050  1.0000
  S   S90       1.0  0.32406  0.33497  0.98448  1.0000
  H   H292      1.0  0.28929  0.30806  0.89245  1.0000
  C   C173      1.0  0.09431  0.08580  0.87658  1.0000
  H   H293      1.0  0.12276  0.04695  0.87736  1.0000
  C   C174      1.0  0.15073  0.17062  0.87881  1.0000
  C   C175      1.0  0.13246  0.17861  0.88331  1.0000
  C   C176      1.0  0.11246  0.17156  0.87946  1.0000
  C   C177      1.0  0.11043  0.15663  0.87094  1.0000
  C   C178      1.0  0.12897  0.14927  0.86600  1.0000
  C   C179      1.0  0.14887  0.15604  0.87003  1.0000
  H   H294      1.0  0.13377  0.19026  0.88972  1.0000
  H   H295      1.0  0.09843  0.17780  0.88307  1.0000
  H   H296      1.0  0.12803  0.13851  0.85898  1.0000
  H   H297      1.0  0.16305  0.15014  0.86621  1.0000
  C   C180      1.0  0.26652  0.21942  0.93497  1.0000
  C   C181      1.0  0.26054  0.23233  0.94426  1.0000
  C   C182      1.0  0.27507  0.23995  0.95246  1.0000
  C   C183      1.0  0.29537  0.23425  0.95162  1.0000
  C   C184      1.0  0.30093  0.22129  0.94243  1.0000
  C   C185      1.0  0.28676  0.21403  0.93423  1.0000
  H   H298      1.0  0.24467  0.23612  0.94528  1.0000
  H   H299      1.0  0.27052  0.25001  0.95945  1.0000
  H   H300      1.0  0.31641  0.21670  0.94164  1.0000
  H   H301      1.0  0.29158  0.20401  0.92723  1.0000
  C   C186      1.0  0.20737  0.29954  0.90142  1.0000
  C   C187      1.0  0.18768  0.28977  0.91278  1.0000
  C   C188      1.0  0.18054  0.30141  0.92258  1.0000
  S   S91       1.0  0.02858  0.06790  0.74673  1.0000
  H   H302      1.0  0.25962  0.30207  0.89509  1.0000
  H   H303      1.0  0.07644  0.16214  0.77584  1.0000
  H   H304      1.0  0.17763  0.27347  0.91377  1.0000
  H   H305      1.0  0.16495  0.29406  0.93106  1.0000
  S   S92       1.0  0.18421  0.33680  0.93372  1.0000
  H   H306      1.0  0.12652  0.08627  0.89043  1.0000
  H   H307      1.0  0.05581  0.03090  0.81185  1.0000
  C   C189      1.0  0.18679  0.19945  0.96914  1.0000
  C   C190      1.0  0.17645  0.19987  0.95781  1.0000
  C   C191      1.0  0.15407  0.20010  0.96025  1.0000
  C   C192      1.0  0.14164  0.19851  0.97429  1.0000
  C   C193      1.0  0.05927  0.03692  0.83229  1.0000
  H   H308      1.0  0.20431  0.19999  0.96702  1.0000
  H   H309      1.0  0.18601  0.20028  0.94718  1.0000
  N   N20       1.0  0.17199  0.27012  0.97159  1.0000
  H   H310      1.0  0.13310  0.18608  0.91799  1.0000
  H   H311      1.0  0.10907  0.07370  0.85244  1.0000
  C   C194      1.0  0.24795  0.27880  0.92331  1.0000
  H   H312      1.0  0.16371  0.25787  0.95401  1.0000
  H   H313      1.0  0.20607  0.27890  0.97257  1.0000
  H   H314      1.0  0.07781  0.16409  0.94508  1.0000
  H   H315      1.0  0.23532  0.32844  0.89126  1.0000
  H   H316      1.0  0.27245  0.27999  0.89707  1.0000
  H   H317      1.0  0.26162  0.20415  0.97824  1.0000
  H   H318      1.0  0.07489  0.15440  0.92242  1.0000
  N   N21       1.0  0.10459  0.15861  0.92990  1.0000
  H   H319      1.0  0.25656  0.32279  0.91380  1.0000
  N   N22       1.0  0.11419  0.07770  0.87293  1.0000
  C   C195      1.0  0.10819  0.05369  0.87989  1.0000
  C   C196      1.0  0.13205  0.08908  0.87837  1.0000
  H   H320      1.0  0.23396  0.28407  0.91974  1.0000
  C   C197      1.0  0.12217  0.08215  0.85687  1.0000
  H   H321      1.0  0.08805  0.08323  0.88856  1.0000
  C   C198      1.0  0.15193  0.19769  0.98570  1.0000
  H   H322      1.0  0.28574  0.28540  0.93177  1.0000
  H   H323      1.0  0.09481  0.04461  0.87594  1.0000
  N   N23       1.0  0.09778  0.17850  0.75406  1.0000
  C   C199      1.0  0.27300  0.29630  0.89919  1.0000
  H   H324      1.0  0.30644  0.32405  0.93950  1.0000
  H   H325      1.0  0.24481  0.27706  0.93524  1.0000
  H   H326      1.0  0.06495  0.18292  0.75552  1.0000
  C   C200      1.0  0.31463  0.32868  0.95921  1.0000
  H   H327      1.0  0.16892  0.30207  0.97306  1.0000
  H   H328      1.0  0.10185  0.04966  0.89200  1.0000
  H   H329      1.0  0.08166  0.12724  0.94249  1.0000
  C   C201      1.0  0.17257  0.29309  0.96475  1.0000
  H   H330      1.0  0.31777  0.31277  0.96226  1.0000
  Fe  Fe46      1.0  0.32327  0.25996  0.97835  1.0000
  H   H331      1.0  0.09896  0.15196  0.91012  1.0000
  H   H332      1.0  0.10468  0.16075  0.77334  1.0000
  H   H333      1.0  0.12669  0.10011  0.85124  1.0000
  H   H334      1.0  0.08039  0.07703  0.87296  1.0000
  C   C202      1.0  0.05629  0.02752  0.84721  1.0000
  H   H335      1.0  0.26779  0.31592  0.92906  1.0000
  H   H336      1.0  0.14729  0.08331  0.87585  1.0000
  N   N24       1.0  0.26972  0.29465  0.91493  1.0000
  C   C203      1.0  0.09623  0.17031  0.94039  1.0000
  H   H337      1.0  0.13707  0.10720  0.87327  1.0000
  C   C204      1.0  0.01216  0.10031  0.79775  1.0000
  C   C205      1.0  0.09991  0.13502  0.93758  1.0000
  H   H338      1.0  0.18898  0.25289  0.98516  1.0000
  C   C206      1.0  0.09335  0.16098  0.91806  1.0000
  C   C207      1.0  0.28777  0.28692  0.91991  1.0000
  H   H339      1.0  0.10276  0.14730  0.75214  1.0000
  C   C208      1.0  0.09413  0.17162  0.77010  1.0000
  H   H340      1.0  0.13796  0.16648  0.93220  1.0000
  H   H341      1.0  0.09707  0.17860  0.91180  1.0000
  H   H342      1.0  0.10620  0.12579  0.92998  1.0000
  H   H343      1.0  0.10041  0.18837  0.93510  1.0000
  C   C209      1.0  0.30825  0.33507  0.94631  1.0000
  H   H344      1.0  0.12422  0.19831  0.97631  1.0000
  C   C210      1.0  0.12895  0.16818  0.92356  1.0000
  C   C211      1.0  0.27007  0.31649  0.91730  1.0000
  H   H345      1.0  0.24559  0.26071  0.73988  1.0000
  H   H346      1.0  0.19309  0.26790  0.95185  1.0000
  H   H347      1.0  0.10394  0.16834  0.94969  1.0000
  H   H348      1.0  0.10819  0.13276  0.94659  1.0000
  C   C212      1.0  0.19347  0.32252  0.92137  1.0000
  H   H349      1.0  0.13636  0.25789  0.97595  1.0000
  C   C213      1.0  0.21346  0.33207  0.91025  1.0000
  C   C214      1.0  0.12127  0.19140  0.74686  1.0000
  H   H350      1.0  0.08600  0.20715  0.75450  1.0000
  C   C215      1.0  0.17676  0.25897  0.96005  1.0000
  C   C216      1.0  0.14965  0.25837  0.98176  1.0000
  H   H351      1.0  0.13300  0.18149  0.74922  1.0000
  H   H352      1.0  0.17732  0.24189  0.96475  1.0000
  H   H353      1.0  0.08543  0.19810  0.73849  1.0000
  C   C217      1.0  0.18900  0.27003  0.97983  1.0000
  C   C218      1.0  0.09281  0.15873  0.74879  1.0000
  H   H354      1.0  0.41512  0.33660  0.98195  1.0000
  C   C219      1.0  0.40499  0.33745  0.97393  1.0000
  H   H355      1.0  0.23222  0.19322  0.98700  1.0000
  H   H356      1.0  0.32081  0.34203  0.23351  1.0000
  H   H357      1.0  0.24513  0.44261  0.99768  1.0000
  H   H358      1.0  0.21996  0.42030  0.00561  1.0000
  C   C220      1.0  0.48817  0.38053  0.18662  1.0000
  C   C221      1.0  0.23057  0.43268  0.99520  1.0000
  C   C222      1.0  0.46689  0.36874  0.19616  1.0000
  H   H359      1.0  0.49747  0.39530  0.18842  1.0000
  H   H360      1.0  0.45976  0.37461  0.20514  1.0000
  H   H361      1.0  0.36741  0.36111  0.98996  1.0000
  C   C223      1.0  0.45517  0.34913  0.19420  1.0000
  S   S93       1.0  0.42576  0.37090  0.23355  1.0000
  C   C224      1.0  0.37754  0.34914  0.98927  1.0000
  S   S94       1.0  0.22176  0.35261  0.98933  1.0000
  C   C225      1.0  0.49779  0.37258  0.17523  1.0000
  H   H362      1.0  0.20699  0.39594  0.99099  1.0000
  H   H363      1.0  0.38672  0.34911  0.99780  1.0000
  H   H364      1.0  0.50190  0.37119  0.12169  1.0000
  C   C226      1.0  0.25086  0.40695  0.98915  1.0000
  H   H365      1.0  0.49528  0.35505  0.22886  1.0000
  C   C227      1.0  0.48554  0.35362  0.17291  1.0000
  Fe  Fe47      1.0  0.02422  0.66871  0.99023  1.0000
  H   H366      1.0  0.24063  0.39367  0.99925  1.0000
  H   H367      1.0  0.22061  0.44396  0.99158  1.0000
  H   H368      1.0  0.26594  0.41600  0.99156  1.0000
  H   H369      1.0  0.47061  0.34544  0.22340  1.0000
  H   H370      1.0  0.49237  0.34785  0.16383  1.0000
  C   C228      1.0  0.46435  0.34195  0.18234  1.0000
  H   H371      1.0  0.49542  0.34135  0.20062  1.0000
  C   C229      1.0  0.48256  0.33999  0.22925  1.0000
  S   S95       1.0  0.49551  0.34288  0.05379  1.0000
  S   S96       1.0  0.01569  0.66993  0.01353  1.0000
  Fe  Fe48      1.0  0.41682  0.33867  0.22826  1.0000
  Fe  Fe49      1.0  0.26925  0.36846  0.33944  1.0000
  S   S97       1.0  0.24379  0.38581  0.33413  1.0000
  N   N25       1.0  0.24063  0.61836  0.36503  1.0000
  Fe  Fe50      1.0  0.30704  0.40107  0.31512  1.0000
  S   S98       1.0  0.28507  0.42097  0.30739  1.0000
  S   S99       1.0  0.34389  0.40946  0.30509  1.0000
  Fe  Fe51      1.0  0.27036  0.41711  0.33126  1.0000
  S   S100      1.0  0.26371  0.44831  0.33624  1.0000
  Fe  Fe52      1.0  0.26076  0.38828  0.31089  1.0000
  S   S101      1.0  0.24156  0.38320  0.29448  1.0000
  S   S102      1.0  0.29427  0.39928  0.33872  1.0000
  S   S103      1.0  0.28425  0.36878  0.31640  1.0000
  H   H372      1.0  0.21576  0.61572  0.35317  1.0000
  H   H373      1.0  0.23557  0.58329  0.37103  1.0000
  C   C230      1.0  0.24661  0.59842  0.36254  1.0000
  S   S104      1.0  0.02177  0.60972  0.30587  1.0000
  S   S105      1.0  0.39393  0.34425  0.26692  1.0000
  Fe  Fe53      1.0  0.00760  0.63823  0.30714  1.0000
  S   S106      1.0  0.05158  0.60236  0.33690  1.0000
  H   H374      1.0  0.21232  0.63156  0.36601  1.0000
  C   C231      1.0  0.35043  0.65842  0.38894  1.0000
  H   H375      1.0  0.24518  0.60955  0.43050  1.0000
  H   H376      1.0  0.33353  0.60520  0.38762  1.0000
  S   S107      1.0  0.00764  0.63581  0.33045  1.0000
  C   C232      1.0  0.32255  0.65413  0.37542  1.0000
  H   H377      1.0  0.08790  0.64666  0.28727  1.0000
  H   H378      1.0  0.36374  0.63042  0.46303  1.0000
  Fe  Fe54      1.0  0.31440  0.59694  0.48441  1.0000
  S   S108      1.0  0.32725  0.59711  0.46094  1.0000
  S   S109      1.0  0.12195  0.63409  0.40514  1.0000
  Fe  Fe55      1.0  0.14759  0.61576  0.40068  1.0000
  S   S110      1.0  0.13727  0.57881  0.40833  1.0000
  Fe  Fe56      1.0  0.27066  0.54501  0.41009  1.0000
  S   S111      1.0  0.30425  0.55498  0.39368  1.0000
  S   S112      1.0  0.26184  0.53960  0.43449  1.0000
  Fe  Fe57      1.0  0.24531  0.54511  0.38690  1.0000
  S   S113      1.0  0.27661  0.55546  0.36846  1.0000
  S   S114      1.0  0.21197  0.53704  0.38201  1.0000
  Fe  Fe58      1.0  0.28790  0.53052  0.38298  1.0000
  S   S115      1.0  0.30240  0.50391  0.37614  1.0000
  Fe  Fe59      1.0  0.29000  0.57890  0.38060  1.0000
  S   S116      1.0  0.30320  0.61569  0.37021  1.0000
  S   S117      1.0  0.25557  0.51867  0.40069  1.0000
  S   S118      1.0  0.25755  0.57043  0.39775  1.0000
  C   C233      1.0  0.15841  0.56770  0.40100  1.0000
  C   C234      1.0  0.17974  0.57374  0.40304  1.0000
  C   C235      1.0  0.19614  0.56389  0.39764  1.0000
  C   C236      1.0  0.19153  0.54876  0.38966  1.0000
  C   C237      1.0  0.17029  0.54302  0.38747  1.0000
  C   C238      1.0  0.15367  0.55221  0.39331  1.0000
  H   H379      1.0  0.18331  0.58539  0.40924  1.0000
  H   H380      1.0  0.21218  0.56780  0.39981  1.0000
  H   H381      1.0  0.16659  0.53127  0.38136  1.0000
  H   H382      1.0  0.13718  0.54740  0.39178  1.0000
  H   H383      1.0  0.34811  0.34029  0.42000  1.0000
  C   C239      1.0  0.32127  0.63167  0.37772  1.0000
  Fe  Fe60      1.0  0.42930  0.34999  0.25426  1.0000
  H   H384      1.0  0.10477  0.65425  0.48566  1.0000
  C   C240      1.0  0.30914  0.58069  0.45381  1.0000
  C   C241      1.0  0.31609  0.58061  0.43916  1.0000
  C   C242      1.0  0.30173  0.56797  0.43312  1.0000
  C   C243      1.0  0.28038  0.55535  0.44174  1.0000
  C   C244      1.0  0.27343  0.55550  0.45637  1.0000
  C   C245      1.0  0.28774  0.56821  0.46239  1.0000
  H   H385      1.0  0.33266  0.59025  0.43248  1.0000
  H   H386      1.0  0.30726  0.56783  0.42186  1.0000
  H   H387      1.0  0.25690  0.54576  0.46306  1.0000
  H   H388      1.0  0.28223  0.56827  0.47368  1.0000
  C   C246      1.0  0.06748  0.61858  0.34573  1.0000
  C   C247      1.0  0.08887  0.61633  0.34605  1.0000
  C   C248      1.0  0.10217  0.62888  0.35284  1.0000
  C   C249      1.0  0.09405  0.64349  0.35974  1.0000
  C   C250      1.0  0.07281  0.64601  0.35920  1.0000
  C   C251      1.0  0.05957  0.63360  0.35230  1.0000
  H   H389      1.0  0.09532  0.60498  0.34085  1.0000
  H   H390      1.0  0.11882  0.62740  0.35262  1.0000
  H   H391      1.0  0.09694  0.64546  0.31688  1.0000
  H   H392      1.0  0.04314  0.63553  0.35220  1.0000
  C   C252      1.0  0.37460  0.64768  0.45938  1.0000
  C   C253      1.0  0.20996  0.35285  0.28918  1.0000
  C   C254      1.0  0.24223  0.62005  0.37969  1.0000
  C   C255      1.0  0.22996  0.35669  0.29316  1.0000
  H   H393      1.0  0.25943  0.62101  0.38076  1.0000
  H   H394      1.0  0.27381  0.63962  0.35432  1.0000
  H   H395      1.0  0.20539  0.60210  0.37245  1.0000
  H   H396      1.0  0.34761  0.34248  0.32968  1.0000
  C   C256      1.0  0.27562  0.46367  0.34699  1.0000
  C   C257      1.0  0.27283  0.48485  0.34604  1.0000
  C   C258      1.0  0.28101  0.49738  0.35485  1.0000
  C   C259      1.0  0.29235  0.48893  0.36460  1.0000
  C   C260      1.0  0.29577  0.46802  0.36523  1.0000
  C   C261      1.0  0.28728  0.45534  0.35656  1.0000
  H   H397      1.0  0.26415  0.49156  0.33847  1.0000
  H   H398      1.0  0.27866  0.51362  0.35406  1.0000
  H   H399      1.0  0.30461  0.46141  0.37272  1.0000
  H   H400      1.0  0.28943  0.43899  0.35750  1.0000
  C   C262      1.0  0.35831  0.38884  0.26297  1.0000
  C   C263      1.0  0.37461  0.39184  0.27052  1.0000
  C   C264      1.0  0.37023  0.39851  0.28335  1.0000
  C   C265      1.0  0.34941  0.40180  0.28880  1.0000
  C   C266      1.0  0.33298  0.39847  0.28139  1.0000
  C   C267      1.0  0.33753  0.39225  0.26839  1.0000
  H   H401      1.0  0.39084  0.38968  0.26622  1.0000
  H   H402      1.0  0.38301  0.40115  0.28903  1.0000
  H   H403      1.0  0.31690  0.40111  0.28550  1.0000
  C   C268      1.0  0.32055  0.35559  0.36546  1.0000
  C   C269      1.0  0.29921  0.35388  0.36348  1.0000
  H   H404      1.0  0.31252  0.66136  0.36913  1.0000
  H   H405      1.0  0.32917  0.36998  0.36802  1.0000
  H   H406      1.0  0.29128  0.36676  0.36475  1.0000
  H   H407      1.0  0.27368  0.60391  0.44389  1.0000
  H   H408      1.0  0.29001  0.66201  0.42024  1.0000
  H   H409      1.0  0.29718  0.34971  0.26964  1.0000
  H   H410      1.0  0.24516  0.59636  0.35171  1.0000
  C   C270      1.0  0.33434  0.62249  0.38584  1.0000
  S   S119      1.0  0.17341  0.63803  0.40710  1.0000
  H   H411      1.0  0.37255  0.34842  0.39465  1.0000
  N   N26       1.0  0.08212  0.58032  0.39181  1.0000
  C   C271      1.0  0.06459  0.58476  0.38470  1.0000
  C   C272      1.0  0.07875  0.58663  0.40564  1.0000
  C   C273      1.0  0.10428  0.59336  0.38194  1.0000
  C   C274      1.0  0.08098  0.55663  0.39495  1.0000
  H   H412      1.0  0.06520  0.60258  0.38211  1.0000
  H   H413      1.0  0.04758  0.57530  0.39183  1.0000
  H   H414      1.0  0.06661  0.58028  0.37418  1.0000
  H   H415      1.0  0.09206  0.58401  0.41110  1.0000
  H   H416      1.0  0.07918  0.60436  0.40367  1.0000
  H   H417      1.0  0.06239  0.57681  0.41351  1.0000
  H   H418      1.0  0.10685  0.59009  0.37105  1.0000
  H   H419      1.0  0.11798  0.58936  0.38641  1.0000
  H   H420      1.0  0.10644  0.61133  0.38031  1.0000
  H   H421      1.0  0.09397  0.55287  0.40042  1.0000
  H   H422      1.0  0.08377  0.55142  0.38471  1.0000
  H   H423      1.0  0.06443  0.54622  0.40230  1.0000
  N   N27       1.0  0.21665  0.47384  0.38235  1.0000
  C   C275      1.0  0.20409  0.47886  0.39524  1.0000
  C   C276      1.0  0.20185  0.45618  0.37866  1.0000
  C   C277      1.0  0.23589  0.46648  0.38568  1.0000
  C   C278      1.0  0.22473  0.49386  0.36977  1.0000
  H   H424      1.0  0.21474  0.49224  0.39821  1.0000
  H   H425      1.0  0.19772  0.46421  0.40499  1.0000
  H   H426      1.0  0.18960  0.48472  0.39304  1.0000
  H   H427      1.0  0.19540  0.44082  0.38792  1.0000
  H   H428      1.0  0.18725  0.46126  0.37598  1.0000
  H   H429      1.0  0.21090  0.45199  0.36898  1.0000
  H   H430      1.0  0.23053  0.45198  0.39550  1.0000
  H   H431      1.0  0.24805  0.47975  0.38782  1.0000
  H   H432      1.0  0.24515  0.46168  0.37641  1.0000
  H   H433      1.0  0.23296  0.49039  0.35962  1.0000
  H   H434      1.0  0.23704  0.50711  0.37180  1.0000
  H   H435      1.0  0.21081  0.50072  0.36755  1.0000
  H   H436      1.0  0.31226  0.65079  0.41340  1.0000
  C   C279      1.0  0.34411  0.66197  0.45466  1.0000
  H   H437      1.0  0.06643  0.65748  0.36431  1.0000
  C   C280      1.0  0.21751  0.61687  0.36412  1.0000
  S   S120      1.0  0.45955  0.35665  0.26258  1.0000
  Fe  Fe61      1.0  0.38929  0.36176  0.24578  1.0000
  H   H438      1.0  0.06031  0.64995  0.29213  1.0000
  Fe  Fe62      1.0  0.14927  0.65850  0.40922  1.0000
  C   C281      1.0  0.33689  0.66740  0.38115  1.0000
  C   C282      1.0  0.34904  0.63590  0.39132  1.0000
  H   H439      1.0  0.05808  0.64962  0.32329  1.0000
  H   H440      1.0  0.27530  0.59417  0.42058  1.0000
  S   S121      1.0  0.36351  0.38059  0.24687  1.0000
  H   H441      1.0  0.39201  0.64716  0.45499  1.0000
  C   C283      1.0  0.25623  0.63808  0.35380  1.0000
  H   H442      1.0  0.06903  0.63118  0.30485  1.0000
  H   H443      1.0  0.25132  0.63803  0.43045  1.0000
  N   N28       1.0  0.36726  0.66182  0.44829  1.0000
  H   H444      1.0  0.25299  0.63098  0.41351  1.0000
  Fe  Fe63      1.0  0.02013  0.60618  0.32972  1.0000
  S   S122      1.0  0.16040  0.63275  0.37659  1.0000
  H   H445      1.0  0.20621  0.65871  0.44584  1.0000
  H   H446      1.0  0.34621  0.36363  0.31478  1.0000
  N   N29       1.0  0.33909  0.47214  0.31460  1.0000
  C   C284      1.0  0.32954  0.46892  0.30241  1.0000
  C   C285      1.0  0.33327  0.49091  0.31927  1.0000
  C   C286      1.0  0.36363  0.47654  0.30974  1.0000
  C   C287      1.0  0.32980  0.45199  0.32703  1.0000
  H   H447      1.0  0.33309  0.45445  0.29890  1.0000
  H   H448      1.0  0.33650  0.48359  0.29268  1.0000
  H   H449      1.0  0.31105  0.46595  0.30565  1.0000
  H   H450      1.0  0.33979  0.49354  0.32867  1.0000
  H   H451      1.0  0.34015  0.50649  0.31021  1.0000
  H   H452      1.0  0.31481  0.48801  0.32286  1.0000
  H   H453      1.0  0.36838  0.46257  0.30613  1.0000
  H   H454      1.0  0.37134  0.47882  0.31874  1.0000
  H   H455      1.0  0.37128  0.49166  0.30036  1.0000
  H   H456      1.0  0.33579  0.45403  0.33671  1.0000
  H   H457      1.0  0.33459  0.43765  0.32408  1.0000
  H   H458      1.0  0.31125  0.44766  0.33049  1.0000
  N   N30       1.0  0.28007  0.62708  0.42285  1.0000
  H   H459      1.0  0.30164  0.62154  0.43673  1.0000
  C   C288      1.0  0.28382  0.62099  0.43751  1.0000
  C   C289      1.0  0.29422  0.64959  0.41465  1.0000
  C   C290      1.0  0.28591  0.61131  0.41482  1.0000
  H   H460      1.0  0.30361  0.61110  0.41374  1.0000
  H   H461      1.0  0.28380  0.61558  0.40358  1.0000
  H   H462      1.0  0.36229  0.66319  0.42698  1.0000
  C   C291      1.0  0.33808  0.34626  0.32153  1.0000
  C   C292      1.0  0.25632  0.62636  0.42440  1.0000
  H   H463      1.0  0.29210  0.65461  0.40343  1.0000
  H   H464      1.0  0.32497  0.39019  0.26250  1.0000
  Fe  Fe64      1.0  0.18428  0.65716  0.38343  1.0000
  H   H465      1.0  0.26409  0.59914  0.36281  1.0000
  H   H466      1.0  0.35945  0.62882  0.39735  1.0000
  H   H467      1.0  0.23058  0.60564  0.38848  1.0000
  H   H468      1.0  0.20189  0.36592  0.28729  1.0000
  Fe  Fe65      1.0  0.13568  0.65218  0.38118  1.0000
  C   C293      1.0  0.07470  0.64753  0.29647  1.0000
  H   H469      1.0  0.38544  0.65315  0.43010  1.0000
  H   H470      1.0  0.25564  0.63743  0.34257  1.0000
  H   H471      1.0  0.25219  0.65346  0.35535  1.0000
  C   C294      1.0  0.36815  0.65312  0.43542  1.0000
  H   H472      1.0  0.27933  0.63231  0.44401  1.0000
  H   H473      1.0  0.37387  0.65374  0.46928  1.0000
  H   H474      1.0  0.33207  0.35360  0.29463  1.0000
  H   H475      1.0  0.36881  0.34963  0.29676  1.0000
  C   C295      1.0  0.45447  0.34365  0.28130  1.0000
  H   H476      1.0  0.23802  0.63505  0.38183  1.0000
  H   H477      1.0  0.33246  0.64510  0.45811  1.0000
  S   S123      1.0  0.10993  0.65937  0.36878  1.0000
  H   H478      1.0  0.35741  0.63587  0.43849  1.0000
  H   H479      1.0  0.17980  0.65527  0.43066  1.0000
  H   H480      1.0  0.21540  0.66319  0.40355  1.0000
  H   H481      1.0  0.32100  0.34559  0.32773  1.0000
  C   C296      1.0  0.24052  0.33979  0.29534  1.0000
  C   C297      1.0  0.10192  0.66159  0.30835  1.0000
  H   H482      1.0  0.34281  0.66839  0.46442  1.0000
  C   C298      1.0  0.17928  0.66637  0.43742  1.0000
  H   H483      1.0  0.11600  0.66132  0.29946  1.0000
  S   S124      1.0  0.35807  0.34212  0.36562  1.0000
  H   H484      1.0  0.31999  0.36150  0.24396  1.0000
  C   C299      1.0  0.06477  0.66589  0.31491  1.0000
  N   N31       1.0  0.08288  0.66548  0.30275  1.0000
  C   C300      1.0  0.19423  0.66830  0.44609  1.0000
  H   H485      1.0  0.25627  0.34291  0.29807  1.0000
  C   C301      1.0  0.30983  0.34643  0.24228  1.0000
  H   H486      1.0  0.48926  0.34649  0.27961  1.0000
  C   C302      1.0  0.33091  0.33901  0.36383  1.0000
  C   C303      1.0  0.47246  0.34065  0.28683  1.0000
  H   H487      1.0  0.27284  0.33933  0.26407  1.0000
  H   H488      1.0  0.05056  0.66983  0.31099  1.0000
  S   S125      1.0  0.02468  0.67132  0.29081  1.0000
  H   H489      1.0  0.29600  0.35095  0.23810  1.0000
  H   H490      1.0  0.41890  0.33874  0.28663  1.0000
  H   H491      1.0  0.47884  0.33860  0.35948  1.0000
  Fe  Fe66      1.0  0.31448  0.58229  0.51652  1.0000
  Fe  Fe67      1.0  0.05218  0.65054  0.68201  1.0000
  Fe  Fe68      1.0  0.23823  0.42283  0.62607  1.0000
  S   S126      1.0  0.26995  0.41292  0.62227  1.0000
  S   S127      1.0  0.21181  0.40246  0.64675  1.0000
  Fe  Fe69      1.0  0.25654  0.46290  0.59918  1.0000
  S   S128      1.0  0.28980  0.45605  0.59321  1.0000
  S   S129      1.0  0.24754  0.49060  0.58519  1.0000
  Fe  Fe70      1.0  0.26985  0.42093  0.59872  1.0000
  S   S130      1.0  0.27759  0.40142  0.58291  1.0000
  Fe  Fe71      1.0  0.28670  0.44895  0.61720  1.0000
  S   S131      1.0  0.31603  0.45918  0.62575  1.0000
  S   S132      1.0  0.23654  0.42803  0.60283  1.0000
  S   S133      1.0  0.25490  0.45848  0.62296  1.0000
  S   S134      1.0  0.26951  0.41649  0.69593  1.0000
  S   S135      1.0  0.29359  0.44035  0.71731  1.0000
  Fe  Fe72      1.0  0.27254  0.44808  0.70214  1.0000
  S   S136      1.0  0.27770  0.47934  0.68486  1.0000
  Fe  Fe73      1.0  0.28700  0.40720  0.71297  1.0000
  S   S137      1.0  0.24006  0.43614  0.71961  1.0000
  Fe  Fe74      1.0  0.23833  0.40383  0.71441  1.0000
  C   C304      1.0  0.33437  0.41401  0.73598  1.0000
  C   C305      1.0  0.09307  0.64747  0.72579  1.0000
  H   H492      1.0  0.15375  0.58608  0.72575  1.0000
  C   C306      1.0  0.24057  0.46586  0.55607  1.0000
  S   S138      1.0  0.30037  0.60912  0.52246  1.0000
  H   H493      1.0  0.01092  0.58343  0.66816  1.0000
  H   H494      1.0  0.21344  0.62410  0.50566  1.0000
  C   C307      1.0  0.46487  0.36523  0.58367  1.0000
  C   C308      1.0  0.44888  0.37352  0.59134  1.0000
  S   S139      1.0  0.01149  0.61591  0.61735  1.0000
  H   H495      1.0  0.09772  0.66001  0.62868  1.0000
  S   S140      1.0  0.32550  0.55987  0.53309  1.0000
  H   H496      1.0  0.33113  0.65344  0.52615  1.0000
  H   H497      1.0  0.37007  0.58977  0.55812  1.0000
  S   S141      1.0  0.36096  0.35011  0.61887  1.0000
  C   C309      1.0  0.03888  0.59587  0.64130  1.0000
  C   C310      1.0  0.19482  0.42681  0.67876  1.0000
  S   S142      1.0  0.05598  0.61139  0.73239  1.0000
  C   C311      1.0  0.22343  0.65436  0.52922  1.0000
  H   H498      1.0  0.26935  0.48061  0.52928  1.0000
  H   H499      1.0  0.32747  0.42129  0.72708  1.0000
  H   H500      1.0  0.33536  0.62450  0.54448  1.0000
  C   C312      1.0  0.20534  0.35748  0.71124  1.0000
  H   H501      1.0  0.23428  0.42284  0.66398  1.0000
  H   H502      1.0  0.39693  0.63502  0.53766  1.0000
  S   S143      1.0  0.07699  0.63407  0.68932  1.0000
  Fe  Fe75      1.0  0.06088  0.60708  0.68084  1.0000
  S   S144      1.0  0.08152  0.59119  0.66705  1.0000
  C   C313      1.0  0.03851  0.55760  0.64667  1.0000
  H   H503      1.0  0.04276  0.55846  0.63482  1.0000
  S   S145      1.0  0.29010  0.57141  0.50419  1.0000
  C   C314      1.0  0.09240  0.63060  0.64598  1.0000
  C   C315      1.0  0.09496  0.60929  0.64951  1.0000
  C   C316      1.0  0.10658  0.60179  0.63862  1.0000
  H   H504      1.0  0.12811  0.66313  0.50236  1.0000
  Fe  Fe76      1.0  0.32395  0.63087  0.50108  1.0000
  H   H505      1.0  0.08393  0.63672  0.65437  1.0000
  H   H506      1.0  0.10864  0.58533  0.64131  1.0000
  H   H507      1.0  0.23325  0.42120  0.68273  1.0000
  S   S146      1.0  0.11932  0.65210  0.60219  1.0000
  H   H508      1.0  0.19288  0.41549  0.67173  1.0000
  C   C317      1.0  0.27958  0.47054  0.55488  1.0000
  H   H509      1.0  0.20178  0.33975  0.62608  1.0000
  H   H510      1.0  0.23378  0.37823  0.67946  1.0000
  C   C318      1.0  0.23476  0.61930  0.51983  1.0000
  H   H511      1.0  0.03155  0.66388  0.64850  1.0000
  H   H512      1.0  0.28415  0.48856  0.54939  1.0000
  H   H513      1.0  0.24302  0.38427  0.65990  1.0000
  H   H514      1.0  0.16388  0.63013  0.57524  1.0000
  C   C319      1.0  0.34491  0.66824  0.52236  1.0000
  C   C320      1.0  0.21493  0.64740  0.51841  1.0000
  Fe  Fe77      1.0  0.26071  0.42570  0.73448  1.0000
  Fe  Fe78      1.0  0.01317  0.60894  0.69297  1.0000
  C   C321      1.0  0.24362  0.62650  0.53049  1.0000
  C   C322      1.0  0.23761  0.64380  0.53539  1.0000
  S   S147      1.0  0.34645  0.66530  0.49436  1.0000
  H   H515      1.0  0.19284  0.41639  0.68996  1.0000
  H   H516      1.0  0.25459  0.61829  0.53521  1.0000
  H   H517      1.0  0.24415  0.64913  0.54378  1.0000
  H   H518      1.0  0.12928  0.57003  0.72266  1.0000
  H   H519      1.0  0.27412  0.37077  0.64833  1.0000
  H   H520      1.0  0.38929  0.59481  0.54048  1.0000
  H   H521      1.0  0.12521  0.63237  0.57923  1.0000
  S   S148      1.0  0.34318  0.38322  0.64582  1.0000
  C   C323      1.0  0.33460  0.38355  0.66412  1.0000
  C   C324      1.0  0.32965  0.40248  0.66693  1.0000
  C   C325      1.0  0.32239  0.40345  0.68134  1.0000
  C   C326      1.0  0.32044  0.38554  0.69306  1.0000
  H   H522      1.0  0.49225  0.36057  0.60409  1.0000
  C   C327      1.0  0.33230  0.36542  0.67582  1.0000
  H   H523      1.0  0.33148  0.41641  0.65787  1.0000
  H   H524      1.0  0.31873  0.41824  0.68336  1.0000
  S   S149      1.0  0.29974  0.62434  0.48795  1.0000
  H   H525      1.0  0.25304  0.35730  0.69491  1.0000
  S   S150      1.0  0.20877  0.38590  0.70847  1.0000
  H   H526      1.0  0.41861  0.36562  0.60889  1.0000
  C   C328      1.0  0.15813  0.66911  0.56279  1.0000
  H   H527      1.0  0.30820  0.35654  0.61698  1.0000
  C   C329      1.0  0.26937  0.51084  0.57133  1.0000
  C   C330      1.0  0.29176  0.51241  0.57091  1.0000
  C   C331      1.0  0.30888  0.52757  0.55916  1.0000
  C   C332      1.0  0.30372  0.54139  0.54784  1.0000
  C   C333      1.0  0.28137  0.54017  0.54840  1.0000
  C   C334      1.0  0.26424  0.52493  0.56013  1.0000
  H   H528      1.0  0.29591  0.50200  0.57964  1.0000
  H   H529      1.0  0.32615  0.52856  0.55883  1.0000
  H   H530      1.0  0.27723  0.55086  0.53975  1.0000
  H   H531      1.0  0.24696  0.52391  0.56043  1.0000
  C   C335      1.0  0.28718  0.37873  0.58956  1.0000
  C   C336      1.0  0.29431  0.37628  0.60233  1.0000
  C   C337      1.0  0.30250  0.35830  0.60720  1.0000
  C   C338      1.0  0.10029  0.64386  0.63146  1.0000
  C   C339      1.0  0.29582  0.34493  0.58676  1.0000
  C   C340      1.0  0.28799  0.36305  0.58179  1.0000
  H   H532      1.0  0.29384  0.38835  0.60830  1.0000
  H   H533      1.0  0.00778  0.56940  0.63353  1.0000
  H   H534      1.0  0.12364  0.60934  0.61569  1.0000
  H   H535      1.0  0.28254  0.36489  0.57190  1.0000
  C   C341      1.0  0.30735  0.46716  0.64161  1.0000
  C   C342      1.0  0.31460  0.45961  0.65388  1.0000
  C   C343      1.0  0.30581  0.46369  0.66715  1.0000
  C   C344      1.0  0.29058  0.47631  0.66796  1.0000
  C   C345      1.0  0.28437  0.48509  0.65545  1.0000
  C   C346      1.0  0.29243  0.48016  0.64233  1.0000
  H   H536      1.0  0.32665  0.45022  0.65321  1.0000
  H   H537      1.0  0.31092  0.45719  0.67675  1.0000
  H   H538      1.0  0.27281  0.49510  0.65601  1.0000
  H   H539      1.0  0.28737  0.48667  0.63273  1.0000
  C   C347      1.0  0.20407  0.37424  0.64780  1.0000
  C   C348      1.0  0.20714  0.36735  0.63508  1.0000
  C   C349      1.0  0.15358  0.65278  0.54321  1.0000
  H   H540      1.0  0.27558  0.46844  0.56687  1.0000
  S   S151      1.0  0.06062  0.66088  0.61547  1.0000
  C   C350      1.0  0.19473  0.35851  0.66149  1.0000
  H   H541      1.0  0.21426  0.37939  0.62448  1.0000
  H   H542      1.0  0.18075  0.43447  0.67932  1.0000
  H   H543      1.0  0.19230  0.36380  0.67134  1.0000
  C   C351      1.0  0.32549  0.36654  0.69030  1.0000
  S   S152      1.0  0.03875  0.62530  0.67145  1.0000
  H   H544      1.0  0.21859  0.44772  0.69407  1.0000
  Fe  Fe79      1.0  0.08956  0.66228  0.59743  1.0000
  H   H545      1.0  0.21602  0.44721  0.65068  1.0000
  S   S153      1.0  0.31112  0.38662  0.71115  1.0000
  N   N32       1.0  0.35218  0.42301  0.60506  1.0000
  C   C352      1.0  0.34896  0.41402  0.59272  1.0000
  C   C353      1.0  0.37066  0.41644  0.61015  1.0000
  C   C354      1.0  0.33144  0.41424  0.61718  1.0000
  C   C355      1.0  0.35754  0.44732  0.60028  1.0000
  H   H546      1.0  0.33479  0.41829  0.58882  1.0000
  H   H547      1.0  0.34513  0.39569  0.59599  1.0000
  H   H548      1.0  0.36418  0.42047  0.58328  1.0000
  H   H549      1.0  0.36707  0.39820  0.61393  1.0000
  H   H550      1.0  0.38667  0.42281  0.60134  1.0000
  H   H551      1.0  0.37323  0.42264  0.61965  1.0000
  H   H552      1.0  0.33346  0.42013  0.62687  1.0000
  H   H553      1.0  0.32644  0.39591  0.62083  1.0000
  H   H554      1.0  0.31745  0.41970  0.61388  1.0000
  H   H555      1.0  0.35982  0.45448  0.60945  1.0000
  H   H556      1.0  0.34377  0.45284  0.59655  1.0000
  H   H557      1.0  0.37311  0.45464  0.59114  1.0000
  H   H558      1.0  0.29463  0.46470  0.55179  1.0000
  C   C356      1.0  0.26732  0.36152  0.68499  1.0000
  H   H559      1.0  0.25169  0.43079  0.57003  1.0000
  C   C357      1.0  0.20012  0.34487  0.63601  1.0000
  C   C358      1.0  0.21896  0.45760  0.68305  1.0000
  C   C359      1.0  0.48237  0.35354  0.61579  1.0000
  S   S154      1.0  0.03436  0.58835  0.70185  1.0000
  C   C360      1.0  0.11503  0.61534  0.62414  1.0000
  H   H560      1.0  0.24396  0.48405  0.55173  1.0000
  H   H561      1.0  0.32990  0.59552  0.54636  1.0000
  H   H562      1.0  0.35169  0.42446  0.73385  1.0000
  H   H563      1.0  0.26030  0.39778  0.66944  1.0000
  H   H564      1.0  0.29129  0.38541  0.65743  1.0000
  H   H565      1.0  0.22702  0.35510  0.72537  1.0000
  H   H566      1.0  0.09089  0.65194  0.71490  1.0000
  S   S155      1.0  0.48981  0.38355  0.57135  1.0000
  N   N33       1.0  0.36474  0.61302  0.54056  1.0000
  C   C361      1.0  0.34111  0.60975  0.54827  1.0000
  C   C362      1.0  0.36723  0.61681  0.52468  1.0000
  C   C363      1.0  0.37896  0.63232  0.54310  1.0000
  H   H567      1.0  0.27615  0.34844  0.68639  1.0000
  H   H568      1.0  0.33852  0.60641  0.56030  1.0000
  H   H569      1.0  0.32399  0.35263  0.69934  1.0000
  H   H570      1.0  0.36162  0.63135  0.52008  1.0000
  H   H571      1.0  0.35715  0.60233  0.52239  1.0000
  H   H572      1.0  0.38489  0.61975  0.51847  1.0000
  H   H573      1.0  0.03567  0.57497  0.66922  1.0000
  Fe  Fe80      1.0  0.04927  0.61692  0.70992  1.0000
  H   H574      1.0  0.37456  0.64772  0.53866  1.0000
  H   H575      1.0  0.24127  0.42474  0.55523  1.0000
  H   H576      1.0  0.02949  0.60811  0.64300  1.0000
  H   H577      1.0  0.28861  0.35669  0.65965  1.0000
  Fe  Fe81      1.0  0.27762  0.59983  0.50874  1.0000
  H   H578      1.0  0.48589  0.36656  0.62141  1.0000
  H   H579      1.0  0.08861  0.66460  0.50764  1.0000
  C   C364      1.0  0.22026  0.62964  0.51392  1.0000
  C   C365      1.0  0.02025  0.57149  0.66553  1.0000
  H   H580      1.0  0.25151  0.44470  0.66844  1.0000
  H   H581      1.0  0.20542  0.46657  0.65873  1.0000
  H   H582      1.0  0.20529  0.46575  0.68445  1.0000
  H   H583      1.0  0.45141  0.39115  0.58907  1.0000
  C   C366      1.0  0.21641  0.34633  0.72003  1.0000
  Fe  Fe82      1.0  0.03939  0.64512  0.60307  1.0000
  H   H584      1.0  0.36109  0.57823  0.54452  1.0000
  C   C367      1.0  0.24873  0.38185  0.67002  1.0000
  S   S156      1.0  0.24107  0.59709  0.51404  1.0000
  H   H585      1.0  0.11642  0.64757  0.56483  1.0000
  H   H586      1.0  0.37713  0.63031  0.55498  1.0000
  C   C368      1.0  0.37165  0.59312  0.54618  1.0000
  C   C369      1.0  0.07806  0.62892  0.73639  1.0000
  N   N34       1.0  0.25977  0.36393  0.67152  1.0000
  C   C370      1.0  0.43022  0.35910  0.60248  1.0000
  C   C371      1.0  0.12751  0.63688  0.56719  1.0000
  S   S157      1.0  0.02540  0.63559  0.70316  1.0000
  C   C372      1.0  0.21836  0.45745  0.65834  1.0000
  H   H587      1.0  0.23503  0.46975  0.65348  1.0000
  H   H588      1.0  0.17115  0.66153  0.53680  1.0000
  H   H589      1.0  0.22600  0.45781  0.55272  1.0000
  S   S158      1.0  0.06843  0.64343  0.58619  1.0000
  H   H590      1.0  0.23509  0.47078  0.67886  1.0000
  C   C373      1.0  0.23475  0.43261  0.67200  1.0000
  N   N35       1.0  0.26042  0.45839  0.55091  1.0000
  C   C374      1.0  0.25570  0.43452  0.55789  1.0000
  C   C375      1.0  0.26587  0.46271  0.53482  1.0000
  H   H591      1.0  0.23543  0.46194  0.56824  1.0000
  H   H592      1.0  0.27035  0.42827  0.55438  1.0000
  C   C376      1.0  0.11140  0.63619  0.62051  1.0000
  H   H593      1.0  0.28093  0.45750  0.53057  1.0000
  H   H594      1.0  0.25184  0.45368  0.53140  1.0000
  N   N36       1.0  0.21670  0.44363  0.67303  1.0000
  N   N37       1.0  0.02551  0.57320  0.64973  1.0000
  H   H595      1.0  0.18259  0.35437  0.69783  1.0000
  C   C377      1.0  0.30324  0.34263  0.59938  1.0000
  H   H596      1.0  0.12142  0.62139  0.56431  1.0000
  H   H597      1.0  0.33612  0.35073  0.67371  1.0000
  H   H598      1.0  0.27911  0.37709  0.68475  1.0000
  C   C378      1.0  0.19140  0.34586  0.70450  1.0000
  H   H599      1.0  0.04373  0.59763  0.62933  1.0000
  H   H600      1.0  0.02903  0.54031  0.65293  1.0000
  H   H601      1.0  0.05452  0.56137  0.64975  1.0000
  C   C379      1.0  0.16531  0.63387  0.56330  1.0000
  Fe  Fe83      1.0  0.34528  0.35092  0.64167  1.0000
  C   C380      1.0  0.27925  0.36939  0.65866  1.0000
  S   S159      1.0  0.34018  0.60500  0.49628  1.0000
  H   H602      1.0  0.05448  0.60057  0.64455  1.0000
  H   H603      1.0  0.16063  0.61793  0.56064  1.0000
  H   H604      1.0  0.00989  0.55466  0.67222  1.0000
  H   H605      1.0  0.14891  0.63732  0.54000  1.0000
  C   C381      1.0  0.13585  0.58466  0.72631  1.0000
  N   N38       1.0  0.15113  0.64816  0.55912  1.0000
  C   C382      1.0  0.46139  0.34245  0.58659  1.0000
  H   H606      1.0  0.14295  0.66335  0.53971  1.0000
  H   H607      1.0  0.23750  0.34443  0.66249  1.0000
  H   H608      1.0  0.46441  0.35013  0.61605  1.0000
  H   H609      1.0  0.09773  0.59551  0.73341  1.0000
  C   C383      1.0  0.11093  0.66039  0.72928  1.0000
  H   H610      1.0  0.25391  0.62986  0.73228  1.0000
  C   C384      1.0  0.24375  0.34308  0.67241  1.0000
  S   S160      1.0  0.25545  0.39185  0.73115  1.0000
  H   H611      1.0  0.13514  0.59952  0.71823  1.0000
  H   H612      1.0  0.18327  0.64190  0.55742  1.0000
  H   H613      1.0  0.33535  0.39747  0.73482  1.0000
  H   H614      1.0  0.20404  0.65551  0.51357  1.0000
  H   H615      1.0  0.15638  0.66620  0.57475  1.0000
  C   C385      1.0  0.01919  0.67154  0.64442  1.0000
  H   H616      1.0  0.28012  0.47150  0.73703  1.0000
  H   H617      1.0  0.50539  0.33883  0.53072  1.0000
  H   H618      1.0  0.22886  0.33856  0.68201  1.0000
  Fe  Fe84      1.0  0.22781  0.36464  0.96496  1.0000
  Fe  Fe85      1.0  0.23586  0.40509  0.93951  1.0000
  S   S161      1.0  0.24118  0.38660  0.92251  1.0000
  S   S162      1.0  0.23419  0.44047  0.93633  1.0000
  Fe  Fe86      1.0  0.21221  0.35944  0.93830  1.0000
  H   H619      1.0  0.18900  0.46930  0.80157  1.0000
  Fe  Fe87      1.0  0.26133  0.37123  0.93605  1.0000
  S   S163      1.0  0.29267  0.36223  0.92754  1.0000
  S   S164      1.0  0.20472  0.37913  0.95403  1.0000
  S   S165      1.0  0.25847  0.39186  0.95167  1.0000
  Fe  Fe88      1.0  0.16569  0.61416  0.77608  1.0000
  S   S166      1.0  0.15788  0.58002  0.77345  1.0000
  H   H620      1.0  0.22338  0.34845  0.90920  1.0000
  S   S167      1.0  0.13719  0.62811  0.78281  1.0000
  Fe  Fe89      1.0  0.27477  0.53204  0.81795  1.0000
  S   S168      1.0  0.29953  0.55325  0.79681  1.0000
  S   S169      1.0  0.28572  0.52471  0.83870  1.0000
  Fe  Fe90      1.0  0.23629  0.52641  0.80425  1.0000
  S   S170      1.0  0.25753  0.54756  0.78219  1.0000
  S   S171      1.0  0.20019  0.51140  0.80641  1.0000
  Fe  Fe91      1.0  0.28249  0.52903  0.78650  1.0000
  S   S172      1.0  0.30058  0.51998  0.76702  1.0000
  Fe  Fe92      1.0  0.27242  0.56959  0.79446  1.0000
  S   S173      1.0  0.27826  0.60620  0.78666  1.0000
  S   S174      1.0  0.26010  0.50606  0.80791  1.0000
  S   S175      1.0  0.24861  0.55010  0.81621  1.0000
  H   H621      1.0  0.14905  0.59169  0.95647  1.0000
  H   H622      1.0  0.11660  0.54762  0.74904  1.0000
  S   S176      1.0  0.19525  0.62284  0.91075  1.0000
  C   C386      1.0  0.37998  0.35521  0.96353  1.0000
  C   C387      1.0  0.38175  0.61285  0.84869  1.0000
  H   H623      1.0  0.29962  0.66487  0.88807  1.0000
  C   C388      1.0  0.37387  0.62212  0.82523  1.0000
  H   H624      1.0  0.39072  0.63033  0.84719  1.0000
  C   C389      1.0  0.32357  0.64503  0.80817  1.0000
  Fe  Fe93      1.0  0.34116  0.60791  0.90284  1.0000
  S   S177      1.0  0.31031  0.61832  0.90156  1.0000
  S   S178      1.0  0.37202  0.63685  0.89360  1.0000
  Fe  Fe94      1.0  0.31523  0.55876  0.91203  1.0000
  S   S179      1.0  0.28256  0.56607  0.91112  1.0000
  S   S180      1.0  0.31894  0.52392  0.91647  1.0000
  Fe  Fe95      1.0  0.30268  0.59214  0.89041  1.0000
  S   S181      1.0  0.29275  0.60131  0.86958  1.0000
  Fe  Fe96      1.0  0.29374  0.59162  0.92231  1.0000
  S   S182      1.0  0.27077  0.60076  0.93922  1.0000
  S   S183      1.0  0.33464  0.58319  0.89023  1.0000
  S   S184      1.0  0.32519  0.58279  0.92477  1.0000
  H   H625      1.0  0.36397  0.57897  0.83885  1.0000
  H   H626      1.0  0.22754  0.57832  0.76288  1.0000
  H   H627      1.0  0.25656  0.39843  0.98090  1.0000
  S   S185      1.0  0.25715  0.42833  0.75758  1.0000
  Fe  Fe97      1.0  0.15920  0.64634  0.79404  1.0000
  H   H628      1.0  0.06949  0.60931  0.75882  1.0000
  H   H629      1.0  0.37206  0.65432  0.94037  1.0000
  C   C390      1.0  0.11658  0.66261  0.92921  1.0000
  H   H630      1.0  0.38651  0.61440  0.82039  1.0000
  C   C391      1.0  0.29605  0.62088  0.79480  1.0000
  C   C392      1.0  0.16523  0.63090  0.96143  1.0000
  C   C393      1.0  0.31228  0.36324  0.96422  1.0000
  N   N39       1.0  0.39291  0.35450  0.97449  1.0000
  H   H631      1.0  0.29884  0.59210  0.80950  1.0000
  H   H632      1.0  0.39098  0.35953  0.95220  1.0000
  H   H633      1.0  0.31157  0.44248  0.74309  1.0000
  S   S186      1.0  0.08231  0.64831  0.95430  1.0000
  C   C394      1.0  0.33010  0.40265  0.76202  1.0000
  H   H634      1.0  0.31374  0.37415  0.97114  1.0000
  H   H635      1.0  0.14176  0.56343  0.75145  1.0000
  C   C395      1.0  0.21653  0.61669  0.91834  1.0000
  C   C396      1.0  0.23727  0.63231  0.91467  1.0000
  C   C397      1.0  0.25399  0.62739  0.92109  1.0000
  C   C398      1.0  0.24978  0.60708  0.93142  1.0000
  C   C399      1.0  0.22908  0.59148  0.93507  1.0000
  C   C400      1.0  0.21255  0.59619  0.92841  1.0000
  H   H636      1.0  0.24052  0.64808  0.90680  1.0000
  H   H637      1.0  0.27012  0.63927  0.91805  1.0000
  H   H638      1.0  0.22600  0.57561  0.94284  1.0000
  H   H639      1.0  0.19669  0.58393  0.93107  1.0000
  C   C401      1.0  0.28963  0.49419  0.76442  1.0000
  C   C402      1.0  0.28049  0.47523  0.77627  1.0000
  C   C403      1.0  0.27095  0.45500  0.77400  1.0000
  C   C404      1.0  0.27056  0.45361  0.75988  1.0000
  H   H640      1.0  0.12222  0.62242  0.94595  1.0000
  H   H641      1.0  0.15847  0.64272  0.92713  1.0000
  H   H642      1.0  0.28061  0.47625  0.78720  1.0000
  H   H643      1.0  0.26364  0.44045  0.78325  1.0000
  C   C405      1.0  0.28886  0.54671  0.84667  1.0000
  C   C406      1.0  0.29727  0.54506  0.85892  1.0000
  C   C407      1.0  0.29807  0.56156  0.86619  1.0000
  C   C408      1.0  0.29134  0.58025  0.86085  1.0000
  C   C409      1.0  0.28386  0.58238  0.84825  1.0000
  C   C410      1.0  0.28244  0.56555  0.84126  1.0000
  H   H644      1.0  0.30312  0.53098  0.86281  1.0000
  H   H645      1.0  0.30398  0.55982  0.87589  1.0000
  H   H646      1.0  0.27884  0.59690  0.84397  1.0000
  H   H647      1.0  0.27619  0.56714  0.83178  1.0000
  H   H648      1.0  0.12189  0.61150  0.96462  1.0000
  H   H649      1.0  0.25270  0.63016  0.77064  1.0000
  S   S187      1.0  0.34109  0.66014  0.81639  1.0000
  H   H650      1.0  0.29725  0.50720  0.74101  1.0000
  H   H651      1.0  0.21897  0.64044  0.84048  1.0000
  C   C411      1.0  0.28995  0.49261  0.75024  1.0000
  C   C412      1.0  0.37168  0.64631  0.92001  1.0000
  H   H652      1.0  0.26160  0.64670  0.74381  1.0000
  C   C413      1.0  0.08115  0.62348  0.75049  1.0000
  H   H653      1.0  0.22701  0.46326  0.76153  1.0000
  H   H654      1.0  0.10140  0.63165  0.76479  1.0000
  H   H655      1.0  0.14560  0.64660  0.84642  1.0000
  H   H656      1.0  0.37008  0.36742  0.96395  1.0000
  H   H657      1.0  0.22746  0.49465  0.78893  1.0000
  N   N40       1.0  0.24330  0.64669  0.81989  1.0000
  C   C414      1.0  0.37759  0.66040  0.92855  1.0000
  C   C415      1.0  0.16947  0.56142  0.78322  1.0000
  C   C416      1.0  0.18793  0.56877  0.78826  1.0000
  C   C417      1.0  0.19767  0.55349  0.79530  1.0000
  C   C418      1.0  0.18835  0.53086  0.79777  1.0000
  C   C419      1.0  0.16959  0.52357  0.79302  1.0000
  C   C420      1.0  0.16042  0.53883  0.78553  1.0000
  H   H658      1.0  0.19477  0.58616  0.78665  1.0000
  H   H659      1.0  0.21206  0.55916  0.79908  1.0000
  H   H660      1.0  0.16223  0.50611  0.79505  1.0000
  H   H661      1.0  0.14605  0.53310  0.78175  1.0000
  C   C421      1.0  0.25807  0.46309  0.93183  1.0000
  C   C422      1.0  0.27970  0.46086  0.92786  1.0000
  C   C423      1.0  0.29825  0.47957  0.92351  1.0000
  C   C424      1.0  0.29532  0.50062  0.92305  1.0000
  C   C425      1.0  0.27368  0.50268  0.92741  1.0000
  C   C426      1.0  0.25516  0.48399  0.93177  1.0000
  H   H662      1.0  0.28217  0.44482  0.92789  1.0000
  H   H663      1.0  0.31495  0.47782  0.92022  1.0000
  H   H664      1.0  0.27119  0.51870  0.92730  1.0000
  H   H665      1.0  0.23847  0.48584  0.93491  1.0000
  H   H666      1.0  0.21274  0.59695  0.75580  1.0000
  C   C427      1.0  0.30561  0.36947  0.95146  1.0000
  N   N41       1.0  0.23784  0.42187  0.98389  1.0000
  H   H667      1.0  0.33586  0.44588  0.74981  1.0000
  C   C428      1.0  0.31447  0.65572  0.93235  1.0000
  Fe  Fe98      1.0  0.15516  0.65634  0.76287  1.0000
  H   H668      1.0  0.26723  0.59212  0.76192  1.0000
  C   C429      1.0  0.31414  0.66716  0.85202  1.0000
  C   C430      1.0  0.25722  0.63364  0.82609  1.0000
  H   H669      1.0  0.25757  0.43126  0.96147  1.0000
  N   N42       1.0  0.25572  0.48346  0.88642  1.0000
  C   C431      1.0  0.27228  0.47815  0.87561  1.0000
  C   C432      1.0  0.26741  0.49795  0.89383  1.0000
  C   C433      1.0  0.24136  0.46287  0.89744  1.0000
  C   C434      1.0  0.24186  0.49487  0.87883  1.0000
  H   H670      1.0  0.26400  0.46709  0.86990  1.0000
  H   H671      1.0  0.28326  0.46981  0.88091  1.0000
  H   H672      1.0  0.28320  0.49326  0.86700  1.0000
  H   H673      1.0  0.25539  0.50189  0.90227  1.0000
  H   H674      1.0  0.27846  0.49010  0.89934  1.0000
  H   H675      1.0  0.27800  0.51388  0.88605  1.0000
  H   H676      1.0  0.22896  0.46623  0.90600  1.0000
  H   H677      1.0  0.25139  0.45378  0.90325  1.0000
  H   H678      1.0  0.23196  0.45155  0.89236  1.0000
  H   H679      1.0  0.23282  0.48445  0.87308  1.0000
  H   H680      1.0  0.25229  0.51044  0.87040  1.0000
  H   H681      1.0  0.22924  0.49924  0.88665  1.0000
  C   C435      1.0  0.24883  0.63228  0.74333  1.0000
  H   H682      1.0  0.41648  0.34068  0.96288  1.0000
  C   C436      1.0  0.29760  0.39831  0.75285  1.0000
  H   H683      1.0  0.17713  0.44889  0.79348  1.0000
  H   H684      1.0  0.17351  0.66513  0.85737  1.0000
  H   H685      1.0  0.15075  0.60316  0.93750  1.0000
  N   N43       1.0  0.20949  0.47024  0.78069  1.0000
  C   C437      1.0  0.19305  0.45799  0.79493  1.0000
  C   C438      1.0  0.23026  0.48205  0.78320  1.0000
  C   C439      1.0  0.20031  0.48638  0.77235  1.0000
  C   C440      1.0  0.21447  0.45462  0.77229  1.0000
  C   C441      1.0  0.22941  0.59361  0.75421  1.0000
  H   H686      1.0  0.29037  0.64419  0.87934  1.0000
  H   H687      1.0  0.16360  0.66136  0.93804  1.0000
  H   H688      1.0  0.23706  0.47059  0.79014  1.0000
  H   H689      1.0  0.23745  0.60164  0.77857  1.0000
  H   H690      1.0  0.33343  0.62082  0.84210  1.0000
  H   H691      1.0  0.21237  0.49591  0.76157  1.0000
  H   H692      1.0  0.12525  0.66745  0.78028  1.0000
  H   H693      1.0  0.18451  0.47814  0.77032  1.0000
  C   C442      1.0  0.31718  0.62193  0.81275  1.0000
  H   H694      1.0  0.33844  0.58615  0.83816  1.0000
  H   H695      1.0  0.19957  0.44580  0.80156  1.0000
  C   C443      1.0  0.30228  0.64390  0.79027  1.0000
  N   N44       1.0  0.36394  0.61133  0.84108  1.0000
  H   H696      1.0  0.31981  0.40118  0.77316  1.0000
  H   H697      1.0  0.34504  0.57924  0.85531  1.0000
  H   H698      1.0  0.24334  0.49086  0.77271  1.0000
  H   H699      1.0  0.36095  0.62104  0.81913  1.0000
  H   H700      1.0  0.30229  0.38529  0.94847  1.0000
  H   H701      1.0  0.23794  0.62719  0.80502  1.0000
  H   H702      1.0  0.10922  0.64739  0.92703  1.0000
  H   H703      1.0  0.15750  0.61729  0.97175  1.0000
  C   C444      1.0  0.31646  0.34272  0.96822  1.0000
  C   C445      1.0  0.25181  0.43882  0.97026  1.0000
  S   S188      1.0  0.14523  0.64953  0.81650  1.0000
  H   H704      1.0  0.38212  0.64000  0.82303  1.0000
  C   C446      1.0  0.35239  0.58790  0.84344  1.0000
  S   S189      1.0  0.18582  0.62914  0.78951  1.0000
  H   H705      1.0  0.35154  0.66763  0.86085  1.0000
  H   H706      1.0  0.21302  0.62052  0.83053  1.0000
  Fe  Fe99      1.0  0.20066  0.65764  0.76924  1.0000
  Fe  Fe100     1.0  0.05301  0.65979  0.96430  1.0000
  C   C447      1.0  0.24364  0.64471  0.80501  1.0000
  S   S190      1.0  0.03011  0.66673  0.95035  1.0000
  H   H707      1.0  0.28642  0.39666  0.76376  1.0000
  H   H708      1.0  0.28969  0.40546  0.74455  1.0000
  H   H709      1.0  0.36775  0.33902  0.96554  1.0000
  C   C448      1.0  0.30353  0.60988  0.80603  1.0000
  S   S191      1.0  0.23821  0.67038  0.76186  1.0000
  H   H710      1.0  0.32996  0.64273  0.87105  1.0000
  H   H711      1.0  0.27496  0.63992  0.81947  1.0000
  H   H712      1.0  0.30840  0.43402  0.76234  1.0000
  H   H713      1.0  0.11528  0.56164  0.76310  1.0000
  H   H714      1.0  0.25682  0.63426  0.83747  1.0000
  C   C449      1.0  0.15756  0.60615  0.94674  1.0000
  C   C450      1.0  0.34771  0.62247  0.84705  1.0000
  C   C451      1.0  0.30335  0.35532  0.94258  1.0000
  H   H715      1.0  0.35554  0.64041  0.84482  1.0000
  H   H716      1.0  0.25147  0.61601  0.82634  1.0000
  N   N45       1.0  0.12284  0.58282  0.74124  1.0000
  H   H717      1.0  0.34061  0.61525  0.85908  1.0000
  H   H718      1.0  0.37480  0.60497  0.86071  1.0000
  H   H719      1.0  0.27409  0.60404  0.74248  1.0000
  N   N46       1.0  0.15473  0.62692  0.94976  1.0000
  H   H720      1.0  0.34725  0.41290  0.76066  1.0000
  C   C452      1.0  0.13067  0.62529  0.95453  1.0000
  C   C453      1.0  0.09926  0.58108  0.74142  1.0000
  C   C454      1.0  0.23985  0.61649  0.76943  1.0000
  S   S192      1.0  0.18249  0.64125  0.75538  1.0000
  C   C455      1.0  0.11431  0.65462  0.74328  1.0000
  H   H721      1.0  0.39430  0.60452  0.84456  1.0000
  H   H722      1.0  0.28147  0.62071  0.75421  1.0000
  C   C456      1.0  0.28030  0.47240  0.74797  1.0000
  H   H723      1.0  0.22151  0.44225  0.77828  1.0000
  C   C457      1.0  0.22007  0.63833  0.82933  1.0000
  C   C458      1.0  0.12413  0.56296  0.75163  1.0000
  H   H724      1.0  0.10019  0.65957  0.79494  1.0000
  C   C459      1.0  0.33537  0.66080  0.86952  1.0000
  H   H725      1.0  0.33121  0.38584  0.76164  1.0000
  H   H726      1.0  0.12791  0.64067  0.95695  1.0000
  C   C460      1.0  0.37900  0.65396  0.90471  1.0000
  H   H727      1.0  0.36177  0.62943  0.92525  1.0000
  H   H728      1.0  0.18343  0.63221  0.95815  1.0000
  S   S193      1.0  0.02499  0.63758  0.98376  1.0000
  C   C461      1.0  0.16093  0.65843  0.83938  1.0000
  C   C462      1.0  0.26828  0.60707  0.75327  1.0000
  H   H729      1.0  0.26695  0.44901  0.97199  1.0000
  S   S194      1.0  0.23278  0.34277  0.95049  1.0000
  H   H730      1.0  0.29669  0.65250  0.78150  1.0000
  H   H731      1.0  0.19662  0.49849  0.77841  1.0000
  H   H732      1.0  0.33008  0.65115  0.93319  1.0000
  H   H733      1.0  0.28414  0.67026  0.87503  1.0000
  H   H734      1.0  0.18379  0.64707  0.93254  1.0000
  H   H735      1.0  0.23378  0.59009  0.74345  1.0000
  H   H736      1.0  0.33878  0.66333  0.87987  1.0000
  H   H737      1.0  0.32259  0.61320  0.82152  1.0000
  H   H738      1.0  0.29780  0.38151  0.75194  1.0000
  N   N47       1.0  0.24659  0.61235  0.75504  1.0000
  H   H739      1.0  0.16345  0.64653  0.96391  1.0000
  H   H740      1.0  0.23270  0.65375  0.80021  1.0000
  H   H741      1.0  0.22398  0.62126  0.77090  1.0000
  H   H742      1.0  0.17553  0.60667  0.94353  1.0000
  Fe  Fe101     1.0  0.20575  0.65816  0.89750  1.0000
  C   C463      1.0  0.09927  0.63610  0.75389  1.0000
  H   H743      1.0  0.19924  0.44539  0.77011  1.0000
  H   H744      1.0  0.22299  0.40031  0.97272  1.0000
  C   C464      1.0  0.16558  0.64536  0.93631  1.0000
  N   N48       1.0  0.32030  0.41243  0.75058  1.0000
  C   C465      1.0  0.31578  0.65592  0.79705  1.0000
  H   H745      1.0  0.23286  0.63696  0.74444  1.0000
  C   C466      1.0  0.31906  0.43467  0.75149  1.0000
  H   H746      1.0  0.26075  0.65173  0.79744  1.0000
  C   C467      1.0  0.16511  0.66288  0.82412  1.0000
  H   H747      1.0  0.40048  0.38942  0.97166  1.0000
  C   C468      1.0  0.21800  0.40894  0.98097  1.0000
  C   C469      1.0  0.10623  0.66768  0.94175  1.0000
  H   H748      1.0  0.30650  0.64568  0.92595  1.0000
  H   H749      1.0  0.20895  0.64728  0.82470  1.0000
  H   H750      1.0  0.14988  0.60437  0.74560  1.0000
  H   H751      1.0  0.13139  0.61793  0.73801  1.0000
  H   H752      1.0  0.24238  0.45014  0.96586  1.0000
  H   H753      1.0  0.30299  0.65042  0.94361  1.0000
  H   H754      1.0  0.08900  0.58028  0.75241  1.0000
  H   H755      1.0  0.42098  0.38082  0.96019  1.0000
  H   H756      1.0  0.30832  0.64916  0.85324  1.0000
  C   C470      1.0  0.29721  0.66225  0.87755  1.0000
  H   H757      1.0  0.20793  0.41958  0.97665  1.0000
  C   C471      1.0  0.13212  0.60260  0.74557  1.0000
  H   H758      1.0  0.41915  0.37626  0.97935  1.0000
  C   C472      1.0  0.40911  0.37623  0.97127  1.0000
  H   H759      1.0  0.12281  0.60174  0.75683  1.0000
  C   C473      1.0  0.17669  0.66893  0.84560  1.0000
  C   C474      1.0  0.25228  0.67011  0.81912  1.0000
  H   H760      1.0  0.09152  0.56612  0.73849  1.0000
  N   N49       1.0  0.31826  0.67139  0.86564  1.0000
  H   H761      1.0  0.17813  0.33964  0.98449  1.0000
  H   H762      1.0  0.10018  0.67147  0.77631  1.0000
  S   S195      1.0  0.13693  0.67129  0.74730  1.0000
  C   C475      1.0  0.05695  0.99357  0.15839  1.0000
  S   S196      1.0  0.01244  0.92592  0.21354  1.0000
  H   H763      1.0  0.02244  0.81069  0.09250  1.0000
  H   H764      1.0  0.05095  0.95416  0.17745  1.0000
  C   C476      1.0  0.00651  0.73708  0.01615  1.0000
  H   H765      1.0  0.02117  0.97838  0.19253  1.0000
  C   C477      1.0  0.03687  0.94625  0.11674  1.0000
  H   H766      1.0  0.07140  0.94944  0.10683  1.0000
  H   H767      1.0  0.08484  0.98767  0.10790  1.0000
  C   C478      1.0  0.02938  0.97860  0.12344  1.0000
  C   C479      1.0  0.04402  0.85190  0.07574  1.0000
  H   H768      1.0  0.03223  0.71289  0.99235  1.0000
  C   C480      1.0  0.06721  0.97914  0.11209  1.0000
  C   C481      1.0  0.02241  0.71442  0.00239  1.0000
  C   C482      1.0  0.02633  0.98244  0.18036  1.0000
  H   H769      1.0  0.02752  0.74938  0.99396  1.0000
  C   C483      1.0  0.05876  0.96899  0.18049  1.0000
  N   N50       1.0  0.05087  0.98806  0.17457  1.0000
  H   H770      1.0  0.05299  0.85756  0.08347  1.0000
  H   H771      1.0  0.07721  0.97257  0.17635  1.0000
  H   H772      1.0  0.01778  0.96794  0.17729  1.0000
  H   H773      1.0  0.01448  0.82243  0.06844  1.0000
  H   H774      1.0  0.01770  0.98663  0.12818  1.0000
  H   H775      1.0  0.01972  0.99636  0.17610  1.0000
  Fe  Fe102     1.0  0.02087  0.94716  0.22804  1.0000
  H   H776      1.0  0.00853  0.97191  0.09355  1.0000
  H   H777      1.0  0.05460  0.96459  0.19267  1.0000
  C   C484      1.0  0.05219  0.98982  0.11801  1.0000
  H   H778      1.0  0.04768  0.86626  0.06600  1.0000
  H   H779      1.0  0.04879  0.97977  0.15453  1.0000
  C   C485      1.0  0.05959  0.95749  0.11147  1.0000
  S   S197      1.0  0.05248  0.97495  0.22048  1.0000
  S   S198      1.0  0.02842  0.91908  0.11554  1.0000
  H   H780      1.0  0.01848  0.86579  0.09581  1.0000
  C   C486      1.0  0.02171  0.95681  0.12279  1.0000
  C   C487      1.0  0.01084  0.86029  0.08748  1.0000
  H   H781      1.0  0.05131  0.83925  0.07203  1.0000
  H   H782      1.0  0.02338  0.82896  0.10404  1.0000
  H   H783      1.0  0.07530  0.99741  0.15362  1.0000
  N   N51       1.0  0.01975  0.84297  0.08274  1.0000
  C   C488      1.0  0.01569  0.82399  0.09560  1.0000
  C   C489      1.0  0.05713  0.99053  0.23282  1.0000
  C   C490      1.0  0.01965  0.73505  0.00329  1.0000
  C   C491      1.0  0.01302  0.69600  0.01460  1.0000
  C   C492      1.0  0.00843  0.83571  0.07215  1.0000
  H   H784      1.0  0.05655  0.00389  0.19123  1.0000
  H   H785      1.0  0.01387  0.87505  0.07814  1.0000
  H   H786      1.0  0.00703  0.00250  0.10498  1.0000
  H   H787      1.0  0.01107  0.84957  0.06230  1.0000
  H   H788      1.0  0.32214  0.75032  0.44665  1.0000
  H   H789      1.0  0.21600  0.76442  0.38985  1.0000
  H   H790      1.0  0.49618  0.98539  0.34953  1.0000
  S   S199      1.0  0.16096  0.67854  0.38562  1.0000
  S   S200      1.0  0.47228  0.90954  0.36857  1.0000
  C   C493      1.0  0.29141  0.71809  0.44266  1.0000
  H   H791      1.0  0.46214  0.87541  0.41743  1.0000
  S   S201      1.0  0.47640  0.84698  0.37983  1.0000
  C   C494      1.0  0.26545  0.73466  0.45467  1.0000
  H   H792      1.0  0.09606  0.70076  0.29570  1.0000
  C   C495      1.0  0.43795  0.83600  0.41722  1.0000
  C   C496      1.0  0.04951  0.98092  0.24799  1.0000
  H   H793      1.0  0.42982  0.82360  0.44655  1.0000
  N   N52       1.0  0.21144  0.73082  0.40176  1.0000
  H   H794      1.0  0.44318  0.84867  0.40642  1.0000
  H   H795      1.0  0.48302  0.85223  0.40710  1.0000
  S   S202      1.0  0.40786  0.78763  0.47336  1.0000
  H   H796      1.0  0.24365  0.73015  0.38964  1.0000
  C   C497      1.0  0.30502  0.75247  0.44799  1.0000
  Fe  Fe103     1.0  0.36531  0.75509  0.39304  1.0000
  S   S203      1.0  0.33606  0.75002  0.41226  1.0000
  S   S204      1.0  0.38132  0.79091  0.37978  1.0000
  Fe  Fe104     1.0  0.36072  0.70608  0.39890  1.0000
  S   S205      1.0  0.33220  0.69793  0.41870  1.0000
  H   H797      1.0  0.43727  0.87045  0.32405  1.0000
  Fe  Fe105     1.0  0.31900  0.72171  0.40505  1.0000
  S   S206      1.0  0.28137  0.70916  0.41004  1.0000
  Fe  Fe106     1.0  0.35154  0.72654  0.42428  1.0000
  S   S207      1.0  0.34935  0.72009  0.44837  1.0000
  S   S208      1.0  0.34666  0.72869  0.38464  1.0000
  S   S209      1.0  0.38177  0.73284  0.40563  1.0000
  H   H798      1.0  0.30608  0.71582  0.46671  1.0000
  C   C498      1.0  0.20065  0.70850  0.40126  1.0000
  H   H799      1.0  0.37735  0.69549  0.43510  1.0000
  C   C499      1.0  0.45628  0.86225  0.42806  1.0000
  H   H800      1.0  0.47507  0.82302  0.41511  1.0000
  H   H801      1.0  0.20278  0.69562  0.41010  1.0000
  H   H802      1.0  0.24451  0.75047  0.39961  1.0000
  H   H803      1.0  0.46413  0.88949  0.31439  1.0000
  H   H804      1.0  0.26367  0.74329  0.44394  1.0000
  H   H805      1.0  0.45776  0.86196  0.31249  1.0000
  H   H806      1.0  0.10995  0.71435  0.47545  1.0000
  H   H807      1.0  0.07583  0.68998  0.28689  1.0000
  S   S210      1.0  0.14497  0.67688  0.42662  1.0000
  C   C500      1.0  0.45210  0.84103  0.34080  1.0000
  H   H808      1.0  0.21569  0.74538  0.37891  1.0000
  C   C501      1.0  0.16369  0.67860  0.43764  1.0000
  H   H809      1.0  0.09768  0.67604  0.47418  1.0000
  C   C502      1.0  0.24570  0.68160  0.40629  1.0000
  C   C503      1.0  0.26720  0.69573  0.39939  1.0000
  C   C504      1.0  0.27541  0.70086  0.38417  1.0000
  C   C505      1.0  0.26153  0.69293  0.37587  1.0000
  H   H810      1.0  0.25207  0.71881  0.45901  1.0000
  C   C506      1.0  0.00657  0.71116  0.26004  1.0000
  H   H811      1.0  0.29198  0.71183  0.37873  1.0000
  H   H812      1.0  0.26762  0.69769  0.36405  1.0000
  H   H813      1.0  0.04903  0.98586  0.26928  1.0000
  H   H814      1.0  0.17772  0.70572  0.46229  1.0000
  C   C507      1.0  0.23203  0.67353  0.39803  1.0000
  C   C508      1.0  0.23559  0.73352  0.39993  1.0000
  S   S211      1.0  0.21275  0.68399  0.46587  1.0000
  C   C509      1.0  0.23951  0.67980  0.38276  1.0000
  H   H815      1.0  0.27674  0.70218  0.47169  1.0000
  N   N53       1.0  0.45420  0.84013  0.42579  1.0000
  C   C510      1.0  0.12283  0.70955  0.48060  1.0000
  H   H816      1.0  0.23862  0.72197  0.40915  1.0000
  C   C511      1.0  0.39128  0.76900  0.46641  1.0000
  C   C512      1.0  0.37734  0.74867  0.47556  1.0000
  C   C513      1.0  0.36451  0.73394  0.46988  1.0000
  C   C514      1.0  0.36563  0.73930  0.45495  1.0000
  C   C515      1.0  0.37954  0.75960  0.44569  1.0000
  C   C516      1.0  0.39231  0.77440  0.45143  1.0000
  C   C517      1.0  0.05452  0.99345  0.25758  1.0000
  H   H817      1.0  0.35400  0.71815  0.47706  1.0000
  H   H818      1.0  0.38048  0.76388  0.43414  1.0000
  H   H819      1.0  0.40290  0.79007  0.44423  1.0000
  H   H820      1.0  0.01399  0.72719  0.25216  1.0000
  C   C518      1.0  0.01864  0.70238  0.26919  1.0000
  H   H821      1.0  0.43633  0.81965  0.41499  1.0000
  H   H822      1.0  0.30441  0.76231  0.43723  1.0000
  C   C519      1.0  0.20816  0.74732  0.38982  1.0000
  H   H823      1.0  0.43390  0.83883  0.34527  1.0000
  H   H824      1.0  0.13849  0.71318  0.47174  1.0000
  Fe  Fe107     1.0  0.21090  0.70234  0.48312  1.0000
  H   H825      1.0  0.45854  0.83480  0.35024  1.0000
  C   C520      1.0  0.44638  0.82325  0.44013  1.0000
  Fe  Fe108     1.0  0.49134  0.88409  0.37072  1.0000
  C   C521      1.0  0.40699  0.80622  0.38117  1.0000
  C   C522      1.0  0.41221  0.82936  0.37730  1.0000
  C   C523      1.0  0.43309  0.84210  0.37737  1.0000
  C   C524      1.0  0.44921  0.83179  0.38081  1.0000
  C   C525      1.0  0.44381  0.80867  0.38501  1.0000
  C   C526      1.0  0.42274  0.79592  0.38529  1.0000
  H   H826      1.0  0.39998  0.83742  0.37428  1.0000
  H   H827      1.0  0.43668  0.85984  0.37469  1.0000
  H   H828      1.0  0.45611  0.80053  0.38781  1.0000
  H   H829      1.0  0.41897  0.77813  0.38822  1.0000
  H   H830      1.0  0.39983  0.68501  0.43920  1.0000
  H   H831      1.0  0.19007  0.74556  0.39085  1.0000
  H   H832      1.0  0.30775  0.71431  0.44156  1.0000
  S   S212      1.0  0.21339  0.73832  0.47848  1.0000
  C   C527      1.0  0.46086  0.87812  0.34304  1.0000
  H   H833      1.0  0.48927  0.00348  0.36029  1.0000
  H   H834      1.0  0.33788  0.68472  0.37919  1.0000
  H   H835      1.0  0.45813  0.82577  0.44698  1.0000
  H   H836      1.0  0.18238  0.70585  0.40276  1.0000
  C   C528      1.0  0.19357  0.68226  0.45522  1.0000
  H   H837      1.0  0.42103  0.83623  0.42309  1.0000
  H   H838      1.0  0.20774  0.70555  0.39062  1.0000
  C   C529      1.0  0.20127  0.73382  0.41605  1.0000
  H   H839      1.0  0.28647  0.72781  0.47581  1.0000
  H   H840      1.0  0.18288  0.73116  0.41801  1.0000
  H   H841      1.0  0.04038  0.96367  0.25230  1.0000
  H   H842      1.0  0.30276  0.76250  0.45584  1.0000
  H   H843      1.0  0.20863  0.75063  0.41676  1.0000
  H   H844      1.0  0.15138  0.70258  0.44671  1.0000
  N   N54       1.0  0.28781  0.73098  0.45323  1.0000
  H   H845      1.0  0.20388  0.72178  0.42522  1.0000
  H   H846      1.0  0.27818  0.70215  0.44600  1.0000
  C   C530      1.0  0.08999  0.68680  0.29131  1.0000
  H   H847      1.0  0.29113  0.72732  0.43167  1.0000
  C   C531      1.0  0.45545  0.87186  0.32041  1.0000
  H   H848      1.0  0.23918  0.67759  0.41806  1.0000
  S   S213      1.0  0.48951  0.94964  0.39199  1.0000
  C   C532      1.0  0.28928  0.71861  0.46753  1.0000
  H   H849      1.0  0.26220  0.74490  0.46219  1.0000
  N   N55       1.0  0.46415  0.86434  0.33298  1.0000
  C   C533      1.0  0.48826  0.86646  0.32771  1.0000
  H   H850      1.0  0.44453  0.80631  0.43889  1.0000
  C   C534      1.0  0.47621  0.83908  0.41771  1.0000
  S   S214      1.0  0.27327  0.76428  0.48291  1.0000
  H   H851      1.0  0.49793  0.88395  0.32203  1.0000
  H   H852      1.0  0.43998  0.86364  0.43413  1.0000
  Fe  Fe109     1.0  0.49815  0.92590  0.34702  1.0000
  H   H853      1.0  0.45391  0.83014  0.33350  1.0000
  C   C535      1.0  0.16318  0.69281  0.44666  1.0000
  H   H854      1.0  0.48868  0.84121  0.42410  1.0000
  Fe  Fe110     1.0  0.49741  0.92808  0.37767  1.0000
  C   C536      1.0  0.17804  0.69461  0.45547  1.0000
  H   H855      1.0  0.32004  0.77692  0.48055  1.0000
  H   H856      1.0  0.46757  0.87309  0.35253  1.0000
  H   H857      1.0  0.38121  0.69186  0.45310  1.0000
  S   S215      1.0  0.49007  0.94349  0.32714  1.0000
  H   H858      1.0  0.50341  0.99382  0.39458  1.0000
  H   H859      1.0  0.46848  0.86595  0.43445  1.0000
  H   H860      1.0  0.49524  0.86066  0.33697  1.0000
  H   H861      1.0  0.49587  0.98848  0.31084  1.0000
  H   H862      1.0  0.46955  0.89587  0.33747  1.0000
  H   H863      1.0  0.44286  0.87679  0.34742  1.0000
  H   H864      1.0  0.10831  0.67457  0.31344  1.0000
  H   H865      1.0  0.07061  0.67839  0.32049  1.0000
  C   C537      1.0  0.00927  0.68151  0.27923  1.0000
  H   H866      1.0  0.00768  0.99021  0.26639  1.0000
  H   H867      1.0  0.12591  0.67420  0.47062  1.0000
  H   H868      1.0  0.10363  0.68712  0.28193  1.0000
  C   C538      1.0  0.38212  0.68452  0.44373  1.0000
  C   C539      1.0  0.50300  0.99694  0.35548  1.0000
  H   H869      1.0  0.33811  0.67271  0.44668  1.0000
  H   H870      1.0  0.49148  0.85653  0.31992  1.0000
  S   S216      1.0  0.36903  0.67497  0.39584  1.0000
  S   S217      1.0  0.00665  0.91899  0.24851  1.0000
  H   H871      1.0  0.03531  0.71176  0.26840  1.0000
  S   S218      1.0  0.22135  0.67229  0.37212  1.0000
  H   H872      1.0  0.14885  0.68320  0.48702  1.0000
  C   C540      1.0  0.11070  0.67204  0.47949  1.0000
  H   H873      1.0  0.37689  0.74397  0.48696  1.0000
  H   H874      1.0  0.34891  0.81976  0.54624  1.0000
  H   H875      1.0  0.25840  0.76690  0.51277  1.0000
  H   H876      1.0  0.10913  0.70007  0.65277  1.0000
  C   C541      1.0  0.01598  0.69860  0.70021  1.0000
  H   H877      1.0  0.47149  0.98566  0.59943  1.0000
  C   C542      1.0  0.47533  0.83488  0.56097  1.0000
  S   S219      1.0  0.46462  0.89882  0.69878  1.0000
  Fe  Fe111     1.0  0.40909  0.79780  0.52451  1.0000
  S   S220      1.0  0.42817  0.82709  0.53094  1.0000
  Fe  Fe112     1.0  0.36105  0.78387  0.52239  1.0000
  S   S221      1.0  0.32702  0.78969  0.52739  1.0000
  Fe  Fe113     1.0  0.38599  0.74952  0.52822  1.0000
  S   S222      1.0  0.37680  0.71316  0.53957  1.0000
  S   S223      1.0  0.37738  0.77394  0.54008  1.0000
  C   C543      1.0  0.50401  0.80930  0.66353  1.0000
  C   C544      1.0  0.46452  0.81377  0.56042  1.0000
  C   C545      1.0  0.48019  0.83224  0.66925  1.0000
  Fe  Fe114     1.0  0.18824  0.72830  0.50048  1.0000
  S   S224      1.0  0.15822  0.74122  0.50178  1.0000
  H   H878      1.0  0.33334  0.71471  0.50747  1.0000
  H   H879      1.0  0.34130  0.78669  0.49780  1.0000
  S   S225      1.0  0.21385  0.73403  0.51296  1.0000
  H   H880      1.0  0.33736  0.83823  0.52530  1.0000
  H   H881      1.0  0.37647  0.83055  0.54819  1.0000
  C   C546      1.0  0.31198  0.78246  0.51511  1.0000
  H   H882      1.0  0.28125  0.68396  0.53706  1.0000
  C   C547      1.0  0.08949  0.72436  0.63623  1.0000
  C   C548      1.0  0.29438  0.68704  0.50832  1.0000
  C   C549      1.0  0.27644  0.77106  0.50953  1.0000
  C   C550      1.0  0.28857  0.77695  0.51924  1.0000
  C   C551      1.0  0.02906  0.70973  0.66964  1.0000
  H   H883      1.0  0.27978  0.77717  0.52999  1.0000
  C   C552      1.0  0.36903  0.69878  0.52733  1.0000
  H   H884      1.0  0.09800  0.69213  0.50869  1.0000
  S   S226      1.0  0.41915  0.77237  0.51371  1.0000
  S   S227      1.0  0.44089  0.86944  0.67194  1.0000
  C   C553      1.0  0.28776  0.77110  0.49553  1.0000
  S   S228      1.0  0.36668  0.75748  0.51205  1.0000
  C   C554      1.0  0.45023  0.81101  0.55126  1.0000
  C   C555      1.0  0.44645  0.82939  0.54251  1.0000
  S   S229      1.0  0.05920  0.68553  0.66885  1.0000
  H   H885      1.0  0.44222  0.79466  0.55094  1.0000
  H   H886      1.0  0.45453  0.86489  0.53637  1.0000
  C   C556      1.0  0.43981  0.89671  0.63087  1.0000
  C   C557      1.0  0.43367  0.88729  0.64602  1.0000
  H   H887      1.0  0.42727  0.90008  0.62542  1.0000
  H   H888      1.0  0.41639  0.88335  0.65225  1.0000
  H   H889      1.0  0.02258  0.68844  0.64572  1.0000
  H   H890      1.0  0.48647  0.94809  0.61622  1.0000
  H   H891      1.0  0.04225  0.68244  0.69927  1.0000
  H   H892      1.0  0.03424  0.71420  0.65783  1.0000
  H   H893      1.0  0.32149  0.73589  0.51210  1.0000
  H   H894      1.0  0.08964  0.72861  0.64668  1.0000
  C   C558      1.0  0.35531  0.67724  0.50736  1.0000
  H   H895      1.0  0.27905  0.72331  0.50355  1.0000
  H   H896      1.0  0.45960  0.82472  0.73641  1.0000
  N   N56       1.0  0.50236  0.97684  0.59781  1.0000
  H   H897      1.0  0.15096  0.70649  0.52863  1.0000
  C   C559      1.0  0.09462  0.71907  0.52673  1.0000
  H   H898      1.0  0.34233  0.85669  0.54463  1.0000
  H   H899      1.0  0.29463  0.69316  0.49667  1.0000
  H   H900      1.0  0.42789  0.86652  0.61414  1.0000
  C   C560      1.0  0.09508  0.70203  0.53824  1.0000
  H   H901      1.0  0.07890  0.72241  0.52602  1.0000
  C   C561      1.0  0.13316  0.68061  0.49564  1.0000
  H   H902      1.0  0.49529  0.90014  0.62359  1.0000
  Fe  Fe115     1.0  0.50032  0.85770  0.69683  1.0000
  H   H903      1.0  0.01765  0.70752  0.60205  1.0000
  C   C562      1.0  0.49389  0.83219  0.64414  1.0000
  H   H904      1.0  0.35647  0.86218  0.51158  1.0000
  H   H905      1.0  0.08908  0.73918  0.62801  1.0000
  H   H906      1.0  0.38086  0.70369  0.49083  1.0000
  H   H907      1.0  0.13725  0.69119  0.50283  1.0000
  C   C563      1.0  0.35533  0.84643  0.51952  1.0000
  H   H908      1.0  0.48986  0.84799  0.64013  1.0000
  C   C564      1.0  0.37267  0.69676  0.50242  1.0000
  C   C565      1.0  0.02938  0.72182  0.61791  1.0000
  H   H909      1.0  0.40299  0.86309  0.52940  1.0000
  Fe  Fe116     1.0  0.21203  0.69853  0.51484  1.0000
  C   C566      1.0  0.01097  0.71592  0.67685  1.0000
  H   H910      1.0  0.11381  0.74473  0.50711  1.0000
  S   S230      1.0  0.50127  0.86660  0.60249  1.0000
  N   N57       1.0  0.10881  0.71622  0.63099  1.0000
  S   S231      1.0  0.50249  0.88412  0.67694  1.0000
  H   H911      1.0  0.39929  0.85032  0.51533  1.0000
  H   H912      1.0  0.13115  0.73825  0.63845  1.0000
  H   H913      1.0  0.39467  0.87696  0.51411  1.0000
  C   C567      1.0  0.36017  0.86435  0.53834  1.0000
  H   H914      1.0  0.49465  0.93724  0.66806  1.0000
  C   C568      1.0  0.46190  0.90094  0.62275  1.0000
  C   C569      1.0  0.09489  0.68217  0.50101  1.0000
  C   C570      1.0  0.47212  0.88818  0.64514  1.0000
  S   S232      1.0  0.23849  0.70515  0.49412  1.0000
  H   H915      1.0  0.46470  0.81912  0.67081  1.0000
  H   H916      1.0  0.47927  0.81848  0.64506  1.0000
  C   C571      1.0  0.37941  0.70759  0.51235  1.0000
  H   H917      1.0  0.39274  0.72280  0.50838  1.0000
  C   C572      1.0  0.49658  0.96550  0.61363  1.0000
  S   S233      1.0  0.06963  0.68466  0.55012  1.0000
  C   C573      1.0  0.27900  0.71559  0.51496  1.0000
  C   C574      1.0  0.32323  0.78222  0.50117  1.0000
  H   H918      1.0  0.36988  0.86740  0.54629  1.0000
  C   C575      1.0  0.02362  0.73114  0.62937  1.0000
  C   C576      1.0  0.11546  0.69774  0.53914  1.0000
  C   C577      1.0  0.01323  0.71419  0.61113  1.0000
  C   C578      1.0  0.12973  0.73357  0.62828  1.0000
  H   H919      1.0  0.02258  0.67329  0.63246  1.0000
  H   H920      1.0  0.26244  0.70339  0.52050  1.0000
  H   H921      1.0  0.37311  0.81761  0.53417  1.0000
  H   H922      1.0  0.30792  0.67871  0.50852  1.0000
  S   S234      1.0  0.05653  0.71898  0.61270  1.0000
  C   C579      1.0  0.47156  0.85326  0.55221  1.0000
  C   C580      1.0  0.35192  0.67893  0.53238  1.0000
  C   C581      1.0  0.31894  0.72183  0.50724  1.0000
  C   C582      1.0  0.11435  0.73163  0.51602  1.0000
  Fe  Fe117     1.0  0.23879  0.74043  0.49140  1.0000
  H   H923      1.0  0.12233  0.67482  0.72104  1.0000
  H   H924      1.0  0.45224  0.85743  0.61493  1.0000
  S   S235      1.0  0.46870  0.91027  0.60366  1.0000
  S   S236      1.0  0.39182  0.80903  0.50733  1.0000
  C   C583      1.0  0.13526  0.71002  0.52816  1.0000
  S   S237      1.0  0.09117  0.69575  0.58394  1.0000
  H   H925      1.0  0.42506  0.83871  0.62418  1.0000
  C   C584      1.0  0.13460  0.72687  0.51652  1.0000
  S   S238      1.0  0.49266  0.83723  0.57312  1.0000
  H   H926      1.0  0.11573  0.68455  0.54805  1.0000
  C   C585      1.0  0.10758  0.71049  0.61725  1.0000
  C   C586      1.0  0.36663  0.82861  0.54015  1.0000
  C   C587      1.0  0.45715  0.85050  0.54313  1.0000
  H   H927      1.0  0.13050  0.74873  0.61987  1.0000
  S   S239      1.0  0.18409  0.69199  0.50435  1.0000
  Fe  Fe118     1.0  0.46530  0.87066  0.71691  1.0000
  H   H928      1.0  0.48366  0.83065  0.68011  1.0000
  N   N58       1.0  0.43433  0.84510  0.60070  1.0000
  C   C588      1.0  0.44362  0.82599  0.60109  1.0000
  C   C589      1.0  0.41104  0.83883  0.59985  1.0000
  C   C590      1.0  0.44782  0.86348  0.58771  1.0000
  C   C591      1.0  0.43486  0.85216  0.61409  1.0000
  H   H929      1.0  0.46120  0.83011  0.60177  1.0000
  H   H930      1.0  0.44391  0.82055  0.59098  1.0000
  H   H931      1.0  0.43377  0.81167  0.61064  1.0000
  H   H932      1.0  0.40365  0.85299  0.59936  1.0000
  H   H933      1.0  0.41012  0.83325  0.58990  1.0000
  H   H934      1.0  0.40032  0.82512  0.60955  1.0000
  H   H935      1.0  0.44228  0.87870  0.58748  1.0000
  H   H936      1.0  0.44696  0.85914  0.57738  1.0000
  H   H937      1.0  0.46572  0.86770  0.58755  1.0000
  C   C592      1.0  0.44975  0.88299  0.65319  1.0000
  H   H938      1.0  0.47987  0.86963  0.55234  1.0000
  Fe  Fe119     1.0  0.06008  0.69288  0.60114  1.0000
  C   C593      1.0  0.03352  0.69173  0.69300  1.0000
  H   H939      1.0  0.03616  0.73742  0.63448  1.0000
  H   H940      1.0  0.46734  0.79939  0.56707  1.0000
  N   N59       1.0  0.29743  0.70519  0.51527  1.0000
  C   C594      1.0  0.47813  0.89674  0.62984  1.0000
  H   H941      1.0  0.48466  0.88516  0.65062  1.0000
  H   H942      1.0  0.49163  0.96428  0.64667  1.0000
  S   S240      1.0  0.46299  0.84629  0.70385  1.0000
  Fe  Fe120     1.0  0.46520  0.87490  0.68528  1.0000
  H   H943      1.0  0.48540  0.98516  0.58140  1.0000
  S   S241      1.0  0.21678  0.67677  0.53458  1.0000
  N   N60       1.0  0.49930  0.83062  0.65831  1.0000
  H   H944      1.0  0.28037  0.72876  0.52064  1.0000
  Fe  Fe121     1.0  0.39885  0.78166  0.49810  1.0000
  C   C595      1.0  0.39237  0.86065  0.52184  1.0000
  C   C596      1.0  0.03974  0.69691  0.67773  1.0000
  C   C597      1.0  0.29737  0.69637  0.53064  1.0000
  H   H945      1.0  0.36135  0.88063  0.53097  1.0000
  H   H946      1.0  0.14463  0.72796  0.62428  1.0000
  H   H947      1.0  0.10772  0.72501  0.60854  1.0000
  H   H948      1.0  0.36106  0.83547  0.51310  1.0000
  C   C598      1.0  0.10840  0.69642  0.64220  1.0000
  H   H949      1.0  0.31098  0.68831  0.53134  1.0000
  N   N61       1.0  0.36863  0.85002  0.52995  1.0000
  H   H950      1.0  0.09182  0.69770  0.61894  1.0000
  H   H951      1.0  0.07343  0.71165  0.63834  1.0000
  H   H952      1.0  0.47642  0.84831  0.66596  1.0000
  H   H953      1.0  0.01105  0.69435  0.71205  1.0000
  S   S242      1.0  0.03629  0.67695  0.59013  1.0000
  H   H954      1.0  0.48919  0.79519  0.66547  1.0000
  C   C599      1.0  0.48165  0.97690  0.59331  1.0000
  H   H955      1.0  0.48678  0.97392  0.62030  1.0000
  H   H956      1.0  0.09268  0.68312  0.64459  1.0000
  H   H957      1.0  0.31975  0.72877  0.49554  1.0000
  H   H958      1.0  0.29995  0.70973  0.53613  1.0000
  Fe  Fe122     1.0  0.49919  0.90090  0.59420  1.0000
  H   H959      1.0  0.47105  0.95976  0.59546  1.0000
  H   H960      1.0  0.27819  0.67428  0.51401  1.0000
  H   H961      1.0  0.01686  0.78002  0.70969  1.0000
  H   H962      1.0  0.12259  0.68962  0.63862  1.0000
  H   H963      1.0  0.12167  0.70395  0.61301  1.0000
  Fe  Fe123     1.0  0.06745  0.67684  0.57409  1.0000
  H   H964      1.0  0.34370  0.67225  0.54397  1.0000
  C   C600      1.0  0.31116  0.77675  0.49138  1.0000
  H   H965      1.0  0.01090  0.78735  0.69229  1.0000
  H   H966      1.0  0.12635  0.72059  0.48763  1.0000
  S   S243      1.0  0.50280  0.87988  0.71142  1.0000
  Fe  Fe124     1.0  0.50198  0.90576  0.69197  1.0000
  H   H967      1.0  0.14784  0.68037  0.55980  1.0000
  H   H968      1.0  0.08123  0.68666  0.49660  1.0000
  H   H969      1.0  0.17593  0.67800  0.55691  1.0000
  N   N62       1.0  0.11538  0.68609  0.48917  1.0000
  H   H970      1.0  0.50530  0.94811  0.59082  1.0000
  H   H971      1.0  0.40687  0.72170  0.95614  1.0000
  S   S244      1.0  0.02872  0.72846  0.94663  1.0000
  C   C601      1.0  0.25162  0.68696  0.77133  1.0000
  H   H972      1.0  0.44731  0.79268  0.79473  1.0000
  H   H973      1.0  0.44505  0.78470  0.74898  1.0000
  H   H974      1.0  0.14401  0.68976  0.79450  1.0000
  H   H975      1.0  0.43760  0.74897  0.97887  1.0000
  C   C602      1.0  0.40639  0.81836  0.80083  1.0000
  H   H976      1.0  0.28304  0.67972  0.76451  1.0000
  C   C603      1.0  0.41035  0.82444  0.75848  1.0000
  H   H977      1.0  0.33744  0.70361  0.90499  1.0000
  C   C604      1.0  0.42327  0.80071  0.81840  1.0000
  N   N63       1.0  0.41778  0.80105  0.80436  1.0000
  H   H978      1.0  0.40765  0.70678  0.90125  1.0000
  H   H979      1.0  0.13469  0.72742  0.77343  1.0000
  H   H980      1.0  0.28935  0.67648  0.91796  1.0000
  H   H981      1.0  0.42986  0.73161  0.94000  1.0000
  H   H982      1.0  0.43188  0.76940  0.94146  1.0000
  C   C605      1.0  0.39755  0.68999  0.90656  1.0000
  C   C606      1.0  0.03997  0.99148  0.84449  1.0000
  C   C607      1.0  0.29769  0.68488  0.92496  1.0000
  C   C608      1.0  0.09523  0.70094  0.79130  1.0000
  Fe  Fe125     1.0  0.32170  0.72988  0.79738  1.0000
  S   S245      1.0  0.31967  0.70962  0.81965  1.0000
  S   S246      1.0  0.28765  0.73143  0.79472  1.0000
  Fe  Fe126     1.0  0.37256  0.74249  0.78850  1.0000
  S   S247      1.0  0.37414  0.72234  0.81014  1.0000
  Fe  Fe127     1.0  0.34591  0.69675  0.80807  1.0000
  C   C609      1.0  0.13640  0.67717  0.91940  1.0000
  Fe  Fe128     1.0  0.34785  0.73699  0.81971  1.0000
  S   S248      1.0  0.34502  0.74958  0.83964  1.0000
  S   S249      1.0  0.34654  0.71549  0.78553  1.0000
  S   S250      1.0  0.34780  0.75883  0.79832  1.0000
  S   S251      1.0  0.22223  0.71971  0.87687  1.0000
  Fe  Fe129     1.0  0.24323  0.70086  0.88727  1.0000
  S   S252      1.0  0.28077  0.71366  0.88253  1.0000
  Fe  Fe130     1.0  0.37166  0.76559  0.91469  1.0000
  S   S253      1.0  0.38341  0.74150  0.90402  1.0000
  S   S254      1.0  0.33444  0.76267  0.91962  1.0000
  Fe  Fe131     1.0  0.41862  0.78559  0.91858  1.0000
  S   S255      1.0  0.43336  0.76216  0.90799  1.0000
  S   S256      1.0  0.43660  0.81299  0.92764  1.0000
  Fe  Fe132     1.0  0.41367  0.76944  0.89161  1.0000
  S   S257      1.0  0.42554  0.77126  0.86767  1.0000
  Fe  Fe133     1.0  0.40149  0.73599  0.92107  1.0000
  S   S258      1.0  0.39645  0.70023  0.93270  1.0000
  S   S259      1.0  0.40088  0.79456  0.90106  1.0000
  S   S260      1.0  0.38787  0.75839  0.93295  1.0000
  C   C610      1.0  0.29479  0.72877  0.89256  1.0000
  C   C611      1.0  0.31819  0.73544  0.88815  1.0000
  C   C612      1.0  0.33033  0.74624  0.89620  1.0000
  C   C613      1.0  0.31926  0.75062  0.90876  1.0000
  C   C614      1.0  0.29575  0.74464  0.91295  1.0000
  C   C615      1.0  0.28350  0.73363  0.90491  1.0000
  H   H983      1.0  0.32707  0.73238  0.87840  1.0000
  H   H984      1.0  0.34833  0.75138  0.89256  1.0000
  H   H985      1.0  0.28701  0.74817  0.92259  1.0000
  H   H986      1.0  0.26544  0.72873  0.90836  1.0000
  C   C616      1.0  0.40183  0.80165  0.76541  1.0000
  H   H987      1.0  0.38564  0.79527  0.77333  1.0000
  H   H988      1.0  0.40069  0.83558  0.76111  1.0000
  C   C617      1.0  0.40310  0.76461  0.86004  1.0000
  C   C618      1.0  0.40496  0.75392  0.84895  1.0000
  C   C619      1.0  0.38715  0.74887  0.84271  1.0000
  C   C620      1.0  0.36762  0.75498  0.84732  1.0000
  C   C621      1.0  0.36590  0.76578  0.85831  1.0000
  C   C622      1.0  0.38346  0.77039  0.86475  1.0000
  H   H989      1.0  0.42008  0.74925  0.84536  1.0000
  H   H990      1.0  0.38855  0.74023  0.83440  1.0000
  H   H991      1.0  0.35091  0.77065  0.86191  1.0000
  H   H992      1.0  0.38194  0.77879  0.87321  1.0000
  H   H993      1.0  0.22298  0.69761  0.77974  1.0000
  H   H994      1.0  0.09855  0.72288  0.93442  1.0000
  H   H995      1.0  0.11813  0.72429  0.90961  1.0000
  H   H996      1.0  0.32011  0.67360  0.79360  1.0000
  H   H997      1.0  0.40197  0.81901  0.79031  1.0000
  H   H998      1.0  0.00939  0.98999  0.77671  1.0000
  C   C623      1.0  0.04668  0.00476  0.85328  1.0000
  H   H999      1.0  0.29152  0.72171  0.84388  1.0000
  H   H1000     1.0  0.43451  0.81677  0.81790  1.0000
  H   H1001     1.0  0.26192  0.71506  0.85159  1.0000
  H   H1002     1.0  0.41721  0.83497  0.79971  1.0000
  S   S261      1.0  0.40569  0.75892  0.77150  1.0000
  N   N64       1.0  0.11587  0.69452  0.78649  1.0000
  H   H1003     1.0  0.08568  0.74966  0.90025  1.0000
  S   S262      1.0  0.05424  0.69022  0.97203  1.0000
  N   N65       1.0  0.02240  0.96293  0.77351  1.0000
  H   H1004     1.0  0.10274  0.71931  0.89665  1.0000
  C   C624      1.0  0.27416  0.71412  0.78567  1.0000
  C   C625      1.0  0.28530  0.70192  0.77805  1.0000
  H   H1005     1.0  0.02743  0.93161  0.77186  1.0000
  H   H1006     1.0  0.39063  0.81532  0.80950  1.0000
  H   H1007     1.0  0.40796  0.79719  0.82756  1.0000
  H   H1008     1.0  0.30266  0.70312  0.77749  1.0000
  H   H1009     1.0  0.01107  0.76018  0.93062  1.0000
  H   H1010     1.0  0.10086  0.75439  0.91338  1.0000
  C   C626      1.0  0.47713  0.85019  0.94625  1.0000
  C   C627      1.0  0.45996  0.84188  0.94009  1.0000
  C   C628      1.0  0.45911  0.82287  0.93516  1.0000
  C   C629      1.0  0.47599  0.81239  0.93645  1.0000
  C   C630      1.0  0.04337  0.00082  0.82950  1.0000
  H   H1011     1.0  0.47708  0.86458  0.95015  1.0000
  H   H1012     1.0  0.44704  0.85017  0.93928  1.0000
  H   H1013     1.0  0.47600  0.79805  0.93251  1.0000
  C   C631      1.0  0.13561  0.70205  0.93460  1.0000
  C   C632      1.0  0.24029  0.69866  0.77929  1.0000
  C   C633      1.0  0.49395  0.83965  0.94762  1.0000
  S   S263      1.0  0.17061  0.71558  0.90977  1.0000
  C   C634      1.0  0.41443  0.78727  0.76210  1.0000
  H   H1014     1.0  0.43179  0.78775  0.82145  1.0000
  C   C635      1.0  0.44347  0.81839  0.74443  1.0000
  C   C636      1.0  0.03328  0.97416  0.75781  1.0000
  C   C637      1.0  0.11590  0.68734  0.94451  1.0000
  C   C638      1.0  0.29543  0.76066  0.82492  1.0000
  C   C639      1.0  0.32638  0.69539  0.86341  1.0000
  H   H1015     1.0  0.03948  0.99232  0.75580  1.0000
  H   H1016     1.0  0.34217  0.70292  0.85444  1.0000
  S   S264      1.0  0.03558  0.98441  0.81820  1.0000
  H   H1017     1.0  0.07096  0.74899  0.91835  1.0000
  H   H1018     1.0  0.11835  0.68236  0.80842  1.0000
  S   S265      1.0  0.21621  0.68432  0.90828  1.0000
  H   H1019     1.0  0.46903  0.76324  0.95606  1.0000
  H   H1020     1.0  0.24307  0.72211  0.79193  1.0000
  C   C640      1.0  0.42799  0.76342  0.95358  1.0000
  C   C641      1.0  0.25167  0.71249  0.78621  1.0000
  S   S266      1.0  0.21707  0.69753  0.84373  1.0000
  H   H1021     1.0  0.29776  0.75443  0.85273  1.0000
  H   H1022     1.0  0.02142  0.97148  0.75106  1.0000
  H   H1023     1.0  0.10829  0.69111  0.95436  1.0000
  H   H1024     1.0  0.10063  0.69727  0.91225  1.0000
  C   C642      1.0  0.43001  0.73599  0.97416  1.0000
  H   H1025     1.0  0.14304  0.71726  0.93676  1.0000
  C   C643      1.0  0.12828  0.69447  0.79773  1.0000
  C   C644      1.0  0.43850  0.80564  0.79256  1.0000
  H   H1026     1.0  0.46548  0.75579  0.93983  1.0000
  S   S267      1.0  0.17529  0.67595  0.77455  1.0000
  H   H1027     1.0  0.29249  0.75499  0.81534  1.0000
  C   C645      1.0  0.28171  0.75674  0.85070  1.0000
  H   H1028     1.0  0.24159  0.74261  0.84578  1.0000
  H   H1029     1.0  0.03112  0.95860  0.79397  1.0000
  Fe  Fe134     1.0  0.02895  0.69527  0.95965  1.0000
  H   H1030     1.0  0.18825  0.68194  0.80332  1.0000
  H   H1031     1.0  0.31174  0.75832  0.82619  1.0000
  H   H1032     1.0  0.40958  0.75977  0.95801  1.0000
  H   H1033     1.0  0.41157  0.73132  0.97895  1.0000
  C   C646      1.0  0.39214  0.67577  0.89804  1.0000
  H   H1034     1.0  0.32971  0.69912  0.87347  1.0000
  H   H1035     1.0  0.06121  0.71246  0.90373  1.0000
  C   C647      1.0  0.43521  0.79572  0.75158  1.0000
  N   N66       1.0  0.43599  0.74385  0.95801  1.0000
  H   H1036     1.0  0.05954  0.69000  0.91893  1.0000
  C   C648      1.0  0.39031  0.68237  0.92185  1.0000
  H   H1037     1.0  0.04768  0.96805  0.75358  1.0000
  H   H1038     1.0  0.46720  0.73544  0.95512  1.0000
  Fe  Fe135     1.0  0.19411  0.70048  0.89704  1.0000
  H   H1039     1.0  0.43074  0.71104  0.95540  1.0000
  H   H1040     1.0  0.32956  0.67410  0.84273  1.0000
  H   H1041     1.0  0.32619  0.67636  0.90363  1.0000
  H   H1042     1.0  0.43593  0.77736  0.95739  1.0000
  H   H1043     1.0  0.28582  0.67990  0.93606  1.0000
  C   C649      1.0  0.42544  0.72629  0.95219  1.0000
  H   H1044     1.0  0.26842  0.74778  0.86106  1.0000
  C   C650      1.0  0.12996  0.71035  0.77243  1.0000
  C   C651      1.0  0.06173  0.70810  0.91534  1.0000
  H   H1045     1.0  0.25616  0.76937  0.83333  1.0000
  H   H1046     1.0  0.43491  0.80615  0.78179  1.0000
  H   H1047     1.0  0.39852  0.77900  0.79521  1.0000
  C   C652      1.0  0.40284  0.77940  0.80563  1.0000
  H   H1048     1.0  0.39803  0.68179  0.88623  1.0000
  N   N67       1.0  0.31898  0.67961  0.92550  1.0000
  C   C653      1.0  0.14602  0.69690  0.92208  1.0000
  C   C654      1.0  0.03877  0.96678  0.78205  1.0000
  C   C655      1.0  0.27585  0.72473  0.84169  1.0000
  H   H1049     1.0  0.28281  0.77459  0.84863  1.0000
  N   N68       1.0  0.27719  0.74847  0.83833  1.0000
  H   H1050     1.0  0.35007  0.68219  0.91053  1.0000
  H   H1051     1.0  0.45026  0.82182  0.79128  1.0000
  C   C656      1.0  0.19646  0.68435  0.83654  1.0000
  H   H1052     1.0  0.21537  0.70136  0.81427  1.0000
  S   S268      1.0  0.23457  0.67294  0.87747  1.0000
  C   C657      1.0  0.46052  0.74982  0.95202  1.0000
  H   H1053     1.0  0.38690  0.77547  0.81431  1.0000
  C   C658      1.0  0.20033  0.68916  0.82130  1.0000
  C   C659      1.0  0.25582  0.75167  0.83595  1.0000
  H   H1054     1.0  0.04699  0.71147  0.92198  1.0000
  H   H1055     1.0  0.06920  0.71968  0.93949  1.0000
  C   C660      1.0  0.27415  0.68866  0.77071  1.0000
  H   H1056     1.0  0.13292  0.71096  0.79965  1.0000
  H   H1057     1.0  0.41084  0.76590  0.80830  1.0000
  H   H1058     1.0  0.27282  0.71802  0.83247  1.0000
  H   H1059     1.0  0.05322  0.96031  0.77852  1.0000
  C   C661      1.0  0.33377  0.68569  0.91048  1.0000
  C   C662      1.0  0.43116  0.83286  0.74793  1.0000
  H   H1060     1.0  0.04538  0.98467  0.78087  1.0000
  H   H1061     1.0  0.29711  0.77866  0.82216  1.0000
  H   H1062     1.0  0.25198  0.74529  0.82676  1.0000
  N   N69       1.0  0.08283  0.72062  0.91713  1.0000
  C   C663      1.0  0.10189  0.71517  0.90851  1.0000
  C   C664      1.0  0.49310  0.82061  0.94269  1.0000
  C   C665      1.0  0.08522  0.74449  0.91202  1.0000
  C   C666      1.0  0.08245  0.71466  0.93273  1.0000
  H   H1063     1.0  0.31396  0.70408  0.86050  1.0000
  C   C667      1.0  0.01380  0.93899  0.77560  1.0000
  Fe  Fe136     1.0  0.21203  0.69076  0.86820  1.0000
  H   H1064     1.0  0.07914  0.69655  0.93723  1.0000
  H   H1065     1.0  0.03259  0.97393  0.84924  1.0000
  H   H1066     1.0  0.09903  0.71767  0.79296  1.0000
  S   S269      1.0  0.44198  0.86150  0.73968  1.0000
  H   H1067     1.0  0.08546  0.70113  0.78307  1.0000
  S   S270      1.0  0.18203  0.67319  0.88743  1.0000
  H   H1068     1.0  0.14570  0.70594  0.76851  1.0000
  H   H1069     1.0  0.50123  0.87995  0.90649  1.0000
  H   H1070     1.0  0.24256  0.68050  0.81414  1.0000
  H   H1071     1.0  0.50201  0.90482  0.92187  1.0000
  C   C668      1.0  0.18493  0.67822  0.81509  1.0000
  H   H1072     1.0  0.12125  0.71043  0.76364  1.0000
  H   H1073     1.0  0.43584  0.72123  0.97789  1.0000
  H   H1074     1.0  0.26995  0.67689  0.81228  1.0000
  H   H1075     1.0  0.30049  0.70285  0.92038  1.0000
  H   H1076     1.0  0.30108  0.67464  0.84888  1.0000
  H   H1077     1.0  0.04422  0.99740  0.86482  1.0000
  H   H1078     1.0  0.08423  0.68920  0.80185  1.0000
  C   C669      1.0  0.33001  0.69229  0.93417  1.0000
  H   H1079     1.0  0.14406  0.67320  0.90969  1.0000
  H   H1080     1.0  0.25161  0.67243  0.83018  1.0000
  C   C670      1.0  0.10999  0.67225  0.78447  1.0000
  H   H1081     1.0  0.31939  0.68824  0.94558  1.0000
  H   H1082     1.0  0.34624  0.68884  0.93473  1.0000
  C   C671      1.0  0.00753  0.72534  0.93778  1.0000
  H   H1083     1.0  0.33365  0.71042  0.92923  1.0000
  Fe  Fe137     1.0  0.65194  0.22436  0.19794  1.0000
  S   S271      1.0  0.66537  0.24171  0.17381  1.0000
  S   S272      1.0  0.65715  0.19217  0.20935  1.0000
  Fe  Fe138     1.0  0.63107  0.25991  0.20463  1.0000
  S   S273      1.0  0.64178  0.28026  0.18124  1.0000
  S   S274      1.0  0.61022  0.26717  0.22371  1.0000
  Fe  Fe139     1.0  0.63191  0.24833  0.17577  1.0000
  S   S275      1.0  0.61097  0.24625  0.15979  1.0000
  Fe  Fe140     1.0  0.67451  0.27251  0.18085  1.0000
  S   S276      1.0  0.70464  0.30081  0.16771  1.0000
  S   S277      1.0  0.61769  0.22865  0.19937  1.0000
  S   S278      1.0  0.66456  0.25464  0.20482  1.0000
  H   H1084     1.0  0.92552  0.02193  0.19647  1.0000
  S   S279      1.0  0.53008  0.28779  0.20068  1.0000
  C   C672      1.0  0.72435  0.32225  0.20029  1.0000
  H   H1085     1.0  0.88238  0.08338  0.13415  1.0000
  Fe  Fe141     1.0  0.62371  0.21651  0.08861  1.0000
  S   S280      1.0  0.64378  0.23156  0.06521  1.0000
  S   S281      1.0  0.64370  0.21231  0.10499  1.0000
  Fe  Fe142     1.0  0.58008  0.21070  0.08050  1.0000
  S   S282      1.0  0.59668  0.22506  0.05641  1.0000
  S   S283      1.0  0.54289  0.19790  0.08885  1.0000
  Fe  Fe143     1.0  0.62015  0.20429  0.06048  1.0000
  S   S284      1.0  0.63599  0.18340  0.04763  1.0000
  Fe  Fe144     1.0  0.61847  0.25054  0.06368  1.0000
  S   S285      1.0  0.62563  0.28727  0.05389  1.0000
  S   S286      1.0  0.60175  0.18814  0.08415  1.0000
  S   S287      1.0  0.60003  0.23748  0.08746  1.0000
  Fe  Fe145     1.0  0.87681  0.00915  0.21574  1.0000
  H   H1086     1.0  0.56829  0.13318  0.99126  1.0000
  Fe  Fe146     1.0  0.52501  0.33119  0.04488  1.0000
  H   H1087     1.0  0.66193  0.01065  0.98938  1.0000
  H   H1088     1.0  0.97816  0.09719  0.19811  1.0000
  H   H1089     1.0  0.50924  0.30602  0.13740  1.0000
  S   S288      1.0  0.66391  0.06191  0.99111  1.0000
  S   S289      1.0  0.51635  0.30094  0.06373  1.0000
  Fe  Fe147     1.0  0.98963  0.03369  0.13480  1.0000
  H   H1090     1.0  0.86694  0.01615  0.13348  1.0000
  H   H1091     1.0  0.55549  0.32747  0.09454  1.0000
  Fe  Fe148     1.0  0.59508  0.08385  0.01478  1.0000
  S   S290      1.0  0.61775  0.06652  0.02452  1.0000
  S   S291      1.0  0.58565  0.11429  0.01934  1.0000
  C   C673      1.0  0.52069  0.32115  0.09510  1.0000
  S   S292      1.0  0.60360  0.02855  0.00768  1.0000
  H   H1092     1.0  0.67557  0.30410  0.08455  1.0000
  Fe  Fe149     1.0  0.59017  0.03582  0.02868  1.0000
  C   C674      1.0  0.60960  0.29758  0.10708  1.0000
  H   H1093     1.0  0.84337  0.04176  0.15104  1.0000
  S   S293      1.0  0.56661  0.05303  0.02041  1.0000
  Fe  Fe150     1.0  0.62890  0.06111  0.00237  1.0000
  H   H1094     1.0  0.54745  0.28379  0.02991  1.0000
  H   H1095     1.0  0.55381  0.19526  0.19137  1.0000
  H   H1096     1.0  0.98624  0.07633  0.19056  1.0000
  H   H1097     1.0  0.71434  0.08409  0.01445  1.0000
  H   H1098     1.0  0.98836  0.02038  0.07981  1.0000
  H   H1099     1.0  0.58264  0.25500  0.18459  1.0000
  H   H1100     1.0  0.92892  0.02137  0.17787  1.0000
  C   C675      1.0  0.98821  0.07033  0.22451  1.0000
  C   C676      1.0  0.59353  0.15245  0.22318  1.0000
  H   H1101     1.0  0.65257  0.30483  0.10861  1.0000
  S   S294      1.0  0.57248  0.31218  0.16104  1.0000
  H   H1102     1.0  0.50902  0.27731  0.09661  1.0000
  C   C677      1.0  0.94397  0.03296  0.11457  1.0000
  C   C678      1.0  0.92948  0.03498  0.10556  1.0000
  H   H1103     1.0  0.72758  0.03011  0.01930  1.0000
  C   C679      1.0  0.59491  0.13502  0.23411  1.0000
  H   H1104     1.0  0.95779  0.04686  0.11347  1.0000
  H   H1105     1.0  0.51926  0.20773  0.19500  1.0000
  C   C680      1.0  0.62121  0.16348  0.04056  1.0000
  C   C681      1.0  0.59951  0.16259  0.03946  1.0000
  C   C682      1.0  0.58882  0.14730  0.03307  1.0000
  C   C683      1.0  0.59946  0.13243  0.02798  1.0000
  C   C684      1.0  0.62098  0.13302  0.02936  1.0000
  C   C685      1.0  0.63185  0.14860  0.03549  1.0000
  H   H1106     1.0  0.59111  0.17393  0.04328  1.0000
  H   H1107     1.0  0.57219  0.14703  0.03207  1.0000
  H   H1108     1.0  0.62944  0.12180  0.02542  1.0000
  H   H1109     1.0  0.64864  0.14919  0.03622  1.0000
  H   H1110     1.0  0.73848  0.05893  0.01743  1.0000
  C   C686      1.0  0.52811  0.24694  0.06245  1.0000
  C   C687      1.0  0.53924  0.23517  0.07094  1.0000
  C   C688      1.0  0.53072  0.21233  0.07687  1.0000
  H   H1111     1.0  0.86687  0.04544  0.11213  1.0000
  H   H1112     1.0  0.58600  0.29442  0.13428  1.0000
  C   C689      1.0  0.87713  0.05759  0.11627  1.0000
  H   H1113     1.0  0.55395  0.24380  0.07334  1.0000
  H   H1114     1.0  0.93214  0.05051  0.09754  1.0000
  H   H1115     1.0  0.69448  0.03611  0.00107  1.0000
  C   C690      1.0  0.65304  0.29622  0.07159  1.0000
  C   C691      1.0  0.64019  0.30416  0.06276  1.0000
  H   H1116     1.0  0.69233  0.33251  0.14675  1.0000
  H   H1117     1.0  0.65399  0.27939  0.07317  1.0000
  H   H1118     1.0  0.55453  0.30013  0.04185  1.0000
  C   C692      1.0  0.63344  0.16935  0.21761  1.0000
  C   C693      1.0  0.61273  0.16965  0.21500  1.0000
  C   C694      1.0  0.68894  0.03300  0.01317  1.0000
  H   H1119     1.0  0.68607  0.07348  0.01392  1.0000
  C   C695      1.0  0.51248  0.31023  0.12561  1.0000
  H   H1120     1.0  0.61147  0.18307  0.20671  1.0000
  H   H1121     1.0  0.57859  0.27991  0.01082  1.0000
  C   C696      1.0  0.69568  0.04416  0.03424  1.0000
  C   C697      1.0  0.62011  0.23595  0.14498  1.0000
  C   C698      1.0  0.60559  0.23069  0.13651  1.0000
  C   C699      1.0  0.61277  0.22353  0.12418  1.0000
  C   C700      1.0  0.63441  0.22127  0.12039  1.0000
  C   C701      1.0  0.64881  0.22616  0.12900  1.0000
  C   C702      1.0  0.64173  0.23364  0.14121  1.0000
  H   H1122     1.0  0.58869  0.23199  0.13950  1.0000
  H   H1123     1.0  0.60139  0.21929  0.11780  1.0000
  H   H1124     1.0  0.66556  0.22440  0.12613  1.0000
  H   H1125     1.0  0.65311  0.23776  0.14759  1.0000
  S   S295      1.0  0.50726  0.31343  0.03122  1.0000
  H   H1126     1.0  0.62161  0.30715  0.09630  1.0000
  C   C703      1.0  0.71523  0.30852  0.19246  1.0000
  H   H1127     1.0  0.70882  0.07540  0.99892  1.0000
  H   H1128     1.0  0.70692  0.29129  0.19787  1.0000
  C   C704      1.0  0.58812  0.27550  0.21839  1.0000
  C   C705      1.0  0.56623  0.26632  0.22740  1.0000
  C   C706      1.0  0.54828  0.27094  0.22227  1.0000
  C   C707      1.0  0.55232  0.28495  0.20822  1.0000
  C   C708      1.0  0.57431  0.29531  0.19972  1.0000
  C   C709      1.0  0.59216  0.29030  0.20467  1.0000
  N   N70       1.0  0.70367  0.04893  0.01816  1.0000
  H   H1129     1.0  0.63282  0.33143  0.22771  1.0000
  H   H1130     1.0  0.57770  0.30669  0.18910  1.0000
  H   H1131     1.0  0.60906  0.29786  0.19781  1.0000
  S   S296      1.0  0.55728  0.31833  0.12423  1.0000
  N   N71       1.0  0.55249  0.22839  0.19096  1.0000
  C   C710      1.0  0.55098  0.22501  0.20670  1.0000
  C   C711      1.0  0.52981  0.22474  0.18888  1.0000
  C   C712      1.0  0.56339  0.21267  0.18552  1.0000
  C   C713      1.0  0.56572  0.25122  0.18277  1.0000
  H   H1132     1.0  0.53719  0.11332  0.01279  1.0000
  H   H1133     1.0  0.97222  0.01918  0.19794  1.0000
  H   H1134     1.0  0.51776  0.25688  0.10799  1.0000
  H   H1135     1.0  0.88220  0.06205  0.14962  1.0000
  S   S297      1.0  0.52442  0.32403  0.16350  1.0000
  C   C714      1.0  0.63918  0.32604  0.06075  1.0000
  H   H1136     1.0  0.54674  0.08922  0.01458  1.0000
  C   C715      1.0  0.71708  0.31710  0.17762  1.0000
  H   H1137     1.0  0.83728  0.03544  0.13511  1.0000
  H   H1138     1.0  0.95118  0.03757  0.18301  1.0000
  H   H1139     1.0  0.52408  0.32594  0.08333  1.0000
  H   H1140     1.0  0.59372  0.30227  0.10735  1.0000
  H   H1141     1.0  0.55477  0.07377  0.99365  1.0000
  N   N72       1.0  0.58266  0.29495  0.02799  1.0000
  H   H1142     1.0  0.97341  0.09474  0.18092  1.0000
  H   H1143     1.0  0.67139  0.03398  0.01605  1.0000
  H   H1144     1.0  0.60623  0.27983  0.10742  1.0000
  H   H1145     1.0  0.89495  0.03044  0.13237  1.0000
  H   H1146     1.0  0.65105  0.15055  0.22970  1.0000
  C   C716      1.0  0.50762  0.31697  0.23133  1.0000
  Fe  Fe151     1.0  0.54426  0.31329  0.17886  1.0000
  C   C717      1.0  0.53622  0.09805  0.00918  1.0000
  H   H1147     1.0  0.52914  0.12995  0.98938  1.0000
  H   H1148     1.0  0.55947  0.31317  0.02286  1.0000
  H   H1149     1.0  0.53042  0.22713  0.17710  1.0000
  H   H1150     1.0  0.97681  0.01873  0.17197  1.0000
  H   H1151     1.0  0.69912  0.33258  0.12787  1.0000
  C   C718      1.0  0.70328  0.07150  0.01109  1.0000
  C   C719      1.0  0.58233  0.27420  0.03824  1.0000
  H   H1152     1.0  0.90388  0.06933  0.13279  1.0000
  H   H1153     1.0  0.99914  0.13665  0.18627  1.0000
  C   C720      1.0  0.63920  0.29499  0.11875  1.0000
  H   H1154     1.0  0.57878  0.10966  0.99230  1.0000
  S   S298      1.0  0.82693  0.00875  0.11355  1.0000
  H   H1155     1.0  0.53424  0.26460  0.05828  1.0000
  H   H1156     1.0  0.58051  0.21494  0.18697  1.0000
  H   H1157     1.0  0.52654  0.07078  0.99284  1.0000
  H   H1158     1.0  0.89493  0.05923  0.11097  1.0000
  C   C721      1.0  0.88572  0.06707  0.13747  1.0000
  H   H1159     1.0  0.84008  0.01421  0.19570  1.0000
  H   H1160     1.0  0.98319  0.01323  0.10654  1.0000
  H   H1161     1.0  0.51473  0.32548  0.20243  1.0000
  H   H1162     1.0  0.51871  0.08743  0.01358  1.0000
  H   H1163     1.0  0.56521  0.21500  0.17360  1.0000
  H   H1164     1.0  0.57004  0.25975  0.03741  1.0000
  C   C722      1.0  0.59007  0.29387  0.01279  1.0000
  H   H1165     1.0  0.52120  0.33099  0.23140  1.0000
  S   S299      1.0  0.88763  0.04502  0.21474  1.0000
  S   S300      1.0  0.57775  0.00948  0.04993  1.0000
  H   H1166     1.0  0.84357  0.06350  0.13578  1.0000
  N   N73       1.0  0.61848  0.30195  0.11932  1.0000
  H   H1167     1.0  0.99449  0.13408  0.16907  1.0000
  H   H1168     1.0  0.59056  0.30931  0.00477  1.0000
  H   H1169     1.0  0.64573  0.29699  0.12825  1.0000
  S   S301      1.0  0.60853  0.08100  0.99210  1.0000
  C   C723      1.0  0.53850  0.32219  0.10148  1.0000
  H   H1170     1.0  0.54207  0.20767  0.21316  1.0000
  H   H1171     1.0  0.65042  0.30211  0.22492  1.0000
  H   H1172     1.0  0.67835  0.04562  0.03767  1.0000
  C   C724      1.0  0.66524  0.31025  0.07804  1.0000
  C   C725      1.0  0.72671  0.04695  0.01407  1.0000
  H   H1173     1.0  0.59332  0.31467  0.04167  1.0000
  C   C726      1.0  0.60175  0.28944  0.13336  1.0000
  N   N74       1.0  0.67929  0.18380  0.07535  1.0000
  C   C727      1.0  0.65483  0.17505  0.08147  1.0000
  C   C728      1.0  0.68995  0.16615  0.07961  1.0000
  C   C729      1.0  0.68750  0.20234  0.08115  1.0000
  C   C730      1.0  0.68475  0.19164  0.05921  1.0000
  H   H1174     1.0  0.64647  0.18799  0.07840  1.0000
  H   H1175     1.0  0.64989  0.16927  0.09365  1.0000
  H   H1176     1.0  0.64784  0.16122  0.07722  1.0000
  H   H1177     1.0  0.70844  0.17215  0.07518  1.0000
  H   H1178     1.0  0.68604  0.15989  0.09174  1.0000
  H   H1179     1.0  0.68397  0.15191  0.07543  1.0000
  H   H1180     1.0  0.68330  0.19710  0.09334  1.0000
  H   H1181     1.0  0.67965  0.21590  0.07818  1.0000
  H   H1182     1.0  0.70590  0.20941  0.07684  1.0000
  H   H1183     1.0  0.70305  0.19836  0.05414  1.0000
  H   H1184     1.0  0.67679  0.20489  0.05566  1.0000
  H   H1185     1.0  0.67844  0.17814  0.05448  1.0000
  H   H1186     1.0  0.52122  0.23651  0.19278  1.0000
  C   C731      1.0  0.54358  0.08246  0.98890  1.0000
  Fe  Fe152     1.0  0.58238  0.04839  0.99882  1.0000
  H   H1187     1.0  0.70654  0.05573  0.03843  1.0000
  H   H1188     1.0  0.55742  0.26343  0.18611  1.0000
  N   N75       1.0  0.66314  0.33567  0.21134  1.0000
  H   H1189     1.0  0.63599  0.33571  0.10766  1.0000
  H   H1190     1.0  0.87347  0.02331  0.14917  1.0000
  H   H1191     1.0  0.73300  0.04984  0.00202  1.0000
  H   H1192     1.0  0.53130  0.26302  0.22895  1.0000
  H   H1193     1.0  0.59843  0.32972  0.02294  1.0000
  C   C732      1.0  0.50903  0.23576  0.05942  1.0000
  H   H1194     1.0  0.59900  0.27095  0.03606  1.0000
  C   C733      1.0  0.84171  0.00542  0.18746  1.0000
  S   S302      1.0  0.89153  0.02065  0.09723  1.0000
  H   H1195     1.0  0.54181  0.23583  0.21128  1.0000
  C   C734      1.0  0.84805  0.04776  0.13887  1.0000
  H   H1196     1.0  0.87375  0.07371  0.11231  1.0000
  S   S303      1.0  0.94944  0.05145  0.21893  1.0000
  S   S304      1.0  0.99568  0.06154  0.14503  1.0000
  H   H1197     1.0  0.60713  0.29148  0.01037  1.0000
  C   C735      1.0  0.96484  0.06369  0.22958  1.0000
  H   H1198     1.0  0.51567  0.30544  0.22666  1.0000
  H   H1199     1.0  0.57794  0.27489  0.04979  1.0000
  Fe  Fe153     1.0  0.91195  0.03597  0.22713  1.0000
  C   C736      1.0  0.61575  0.13429  0.23632  1.0000
  C   C737      1.0  0.62329  0.32578  0.11812  1.0000
  H   H1200     1.0  0.59744  0.27149  0.13449  1.0000
  H   H1201     1.0  0.56785  0.22890  0.20860  1.0000
  H   H1202     1.0  0.64843  0.30596  0.20647  1.0000
  H   H1203     1.0  0.72283  0.31562  0.21179  1.0000
  H   H1204     1.0  0.57751  0.15290  0.22126  1.0000
  C   C738      1.0  0.56000  0.29806  0.03075  1.0000
  C   C739      1.0  0.93780  0.02175  0.18655  1.0000
  C   C740      1.0  0.98540  0.09374  0.18767  1.0000
  H   H1205     1.0  0.63030  0.33619  0.20932  1.0000
  C   C741      1.0  0.66420  0.33213  0.07607  1.0000
  H   H1206     1.0  0.60804  0.29195  0.14287  1.0000
  H   H1207     1.0  0.56808  0.25411  0.17077  1.0000
  N   N76       1.0  0.87199  0.05041  0.13241  1.0000
  Fe  Fe154     1.0  0.55452  0.32673  0.14563  1.0000
  C   C742      1.0  0.91118  0.01716  0.10721  1.0000
  C   C743      1.0  0.87706  0.02914  0.13706  1.0000
  C   C744      1.0  0.94009  0.01308  0.12524  1.0000
  H   H1208     1.0  0.61558  0.31209  0.02805  1.0000
  H   H1209     1.0  0.60800  0.33155  0.11835  1.0000
  H   H1210     1.0  0.62972  0.32966  0.12729  1.0000
  C   C745      1.0  0.63500  0.15119  0.22789  1.0000
  H   H1211     1.0  0.65495  0.00618  0.04012  1.0000
  C   C746      1.0  0.53446  0.31683  0.11673  1.0000
  C   C747      1.0  0.62129  0.00892  0.04446  1.0000
  C   C748      1.0  0.50619  0.33630  0.20751  1.0000
  C   C749      1.0  0.59822  0.31369  0.03019  1.0000
  H   H1212     1.0  0.81397  0.01309  0.17995  1.0000
  N   N77       1.0  0.54400  0.10314  0.99306  1.0000
  H   H1213     1.0  0.67493  0.30722  0.21023  1.0000
  H   H1214     1.0  0.67061  0.33436  0.23201  1.0000
  C   C750      1.0  0.65907  0.31170  0.21334  1.0000
  S   S305      1.0  0.95658  0.00970  0.13747  1.0000
  C   C751      1.0  0.50904  0.25974  0.09928  1.0000
  C   C752      1.0  0.00121  0.08086  0.23227  1.0000
  C   C753      1.0  0.51156  0.20117  0.07393  1.0000
  H   H1215     1.0  0.63635  0.27730  0.11896  1.0000
  H   H1216     1.0  0.62300  0.01745  0.03324  1.0000
  H   H1217     1.0  0.51161  0.10368  0.99015  1.0000
  H   H1218     1.0  0.69544  0.02709  0.03990  1.0000
  C   C754      1.0  0.56706  0.11779  0.98778  1.0000
  H   H1219     1.0  0.99635  0.06727  0.21454  1.0000
  H   H1220     1.0  0.78115  0.10249  0.22567  1.0000
  H   H1221     1.0  0.62917  0.33228  0.05402  1.0000
  H   H1222     1.0  0.51928  0.25728  0.08934  1.0000
  H   H1223     1.0  0.68902  0.01588  0.01817  1.0000
  Fe  Fe155     1.0  0.86274  0.03462  0.23705  1.0000
  H   H1224     1.0  0.76083  0.06223  0.23612  1.0000
  C   C755      1.0  0.78369  0.10253  0.23662  1.0000
  H   H1225     1.0  0.80023  0.09940  0.23666  1.0000
  H   H1226     1.0  0.65151  0.17898  0.24314  1.0000
  Fe  Fe156     1.0  0.62065  0.18630  0.45573  1.0000
  H   H1227     1.0  0.76943  0.10275  0.26486  1.0000
  S   S306      1.0  0.64004  0.17396  0.43862  1.0000
  Fe  Fe157     1.0  0.61246  0.22908  0.46050  1.0000
  S   S307      1.0  0.53864  0.17445  0.46769  1.0000
  S   S308      1.0  0.62029  0.26563  0.45066  1.0000
  H   H1228     1.0  0.55768  0.09886  0.45216  1.0000
  H   H1229     1.0  0.60282  0.02683  0.26422  1.0000
  H   H1230     1.0  0.78114  0.06001  0.24612  1.0000
  S   S309      1.0  0.51273  0.29345  0.46918  1.0000
  S   S310      1.0  0.63610  0.21011  0.46690  1.0000
  S   S311      1.0  0.59949  0.20703  0.44763  1.0000
  Fe  Fe158     1.0  0.57574  0.05587  0.28781  1.0000
  S   S312      1.0  0.57963  0.07201  0.30554  1.0000
  S   S313      1.0  0.57737  0.02082  0.29214  1.0000
  Fe  Fe159     1.0  0.57297  0.09716  0.26724  1.0000
  S   S314      1.0  0.57528  0.11645  0.28356  1.0000
  Fe  Fe160     1.0  0.67330  0.02197  0.30614  1.0000
  Fe  Fe161     1.0  0.60248  0.10102  0.28739  1.0000
  S   S315      1.0  0.63271  0.12488  0.28873  1.0000
  Fe  Fe162     1.0  0.55228  0.08592  0.30017  1.0000
  C   C756      1.0  0.51130  0.08518  0.34678  1.0000
  S   S316      1.0  0.60177  0.08347  0.27005  1.0000
  S   S317      1.0  0.54674  0.06786  0.28348  1.0000
  Fe  Fe163     1.0  0.58406  0.03989  0.39568  1.0000
  S   S318      1.0  0.59044  0.06343  0.37366  1.0000
  Fe  Fe164     1.0  0.58955  0.07655  0.41089  1.0000
  S   S319      1.0  0.59673  0.10309  0.38998  1.0000
  S   S320      1.0  0.58853  0.08242  0.43299  1.0000
  Fe  Fe165     1.0  0.56858  0.08017  0.38571  1.0000
  S   S321      1.0  0.54034  0.09134  0.37915  1.0000
  Fe  Fe166     1.0  0.61793  0.08360  0.38014  1.0000
  S   S322      1.0  0.65215  0.09896  0.36439  1.0000
  S   S323      1.0  0.55973  0.05478  0.40740  1.0000
  S   S324      1.0  0.61310  0.05893  0.40143  1.0000
  H   H1231     1.0  0.65235  0.10094  0.33303  1.0000
  H   H1232     1.0  0.80892  0.01452  0.24463  1.0000
  C   C757      1.0  0.66593  0.30932  0.46942  1.0000
  H   H1233     1.0  0.66501  0.08763  0.32050  1.0000
  H   H1234     1.0  0.61583  0.01494  0.25102  1.0000
  N   N78       1.0  0.63581  0.02480  0.26495  1.0000
  C   C758      1.0  0.53102  0.02963  0.35411  1.0000
  H   H1235     1.0  0.54782  0.22098  0.46651  1.0000
  C   C759      1.0  0.54023  0.00537  0.33960  1.0000
  H   H1236     1.0  0.52265  0.24566  0.46760  1.0000
  S   S325      1.0  0.68392  0.05059  0.31467  1.0000
  H   H1237     1.0  0.95951  0.08000  0.26085  1.0000
  H   H1238     1.0  0.50707  0.11802  0.45058  1.0000
  C   C760      1.0  0.51576  0.02761  0.33361  1.0000
  H   H1239     1.0  0.54588  0.04321  0.34710  1.0000
  S   S326      1.0  0.68227  0.32610  0.47730  1.0000
  C   C761      1.0  0.66672  0.07970  0.36069  1.0000
  C   C762      1.0  0.68407  0.08551  0.34780  1.0000
  C   C763      1.0  0.69455  0.06978  0.34406  1.0000
  C   C764      1.0  0.68835  0.04842  0.35349  1.0000
  C   C765      1.0  0.67170  0.04290  0.36668  1.0000
  C   C766      1.0  0.66052  0.05832  0.37010  1.0000
  H   H1240     1.0  0.68908  0.10205  0.34050  1.0000
  H   H1241     1.0  0.70763  0.07424  0.33393  1.0000
  H   H1242     1.0  0.64713  0.05356  0.38002  1.0000
  H   H1243     1.0  0.56112  0.14329  0.45762  1.0000
  C   C767      1.0  0.61751  0.17711  0.27564  1.0000
  C   C768      1.0  0.51603  0.22850  0.46833  1.0000
  C   C769      1.0  0.65611  0.31860  0.45895  1.0000
  H   H1244     1.0  0.55944  0.22864  0.43717  1.0000
  C   C770      1.0  0.60756  0.17712  0.25308  1.0000
  H   H1245     1.0  0.51818  0.03744  0.35865  1.0000
  H   H1246     1.0  0.63099  0.06471  0.35109  1.0000
  S   S327      1.0  0.70037  0.02818  0.34859  1.0000
  N   N79       1.0  0.76550  0.08580  0.24849  1.0000
  C   C771      1.0  0.52909  0.08685  0.33500  1.0000
  N   N80       1.0  0.58526  0.29878  0.48637  1.0000
  C   C772      1.0  0.63011  0.05799  0.34162  1.0000
  C   C773      1.0  0.53642  0.08902  0.36219  1.0000
  C   C774      1.0  0.55430  0.09043  0.35050  1.0000
  C   C775      1.0  0.55067  0.08962  0.33683  1.0000
  Fe  Fe167     1.0  0.71275  0.06290  0.29473  1.0000
  H   H1247     1.0  0.56311  0.25491  0.23806  1.0000
  H   H1248     1.0  0.57094  0.09300  0.35188  1.0000
  H   H1249     1.0  0.56457  0.09162  0.32767  1.0000
  C   C776      1.0  0.65808  0.11820  0.28447  1.0000
  C   C777      1.0  0.65876  0.09744  0.28273  1.0000
  C   C778      1.0  0.67871  0.09127  0.28173  1.0000
  C   C779      1.0  0.69818  0.10626  0.28174  1.0000
  C   C780      1.0  0.69778  0.12744  0.28255  1.0000
  C   C781      1.0  0.67767  0.13329  0.28414  1.0000
  H   H1250     1.0  0.64376  0.08588  0.28270  1.0000
  H   H1251     1.0  0.67902  0.07490  0.28106  1.0000
  H   H1252     1.0  0.71279  0.13902  0.28261  1.0000
  H   H1253     1.0  0.67720  0.14935  0.28549  1.0000
  C   C782      1.0  0.62574  0.14857  0.43705  1.0000
  C   C783      1.0  0.62511  0.14605  0.42318  1.0000
  C   C784      1.0  0.61359  0.12585  0.42179  1.0000
  C   C785      1.0  0.60330  0.10791  0.43422  1.0000
  C   C786      1.0  0.60426  0.11035  0.44804  1.0000
  C   C787      1.0  0.61523  0.13070  0.44948  1.0000
  H   H1254     1.0  0.63317  0.15992  0.41356  1.0000
  H   H1255     1.0  0.61262  0.12419  0.41114  1.0000
  H   H1256     1.0  0.59640  0.09648  0.45769  1.0000
  H   H1257     1.0  0.61587  0.13248  0.46019  1.0000
  H   H1258     1.0  0.57804  0.13970  0.44157  1.0000
  C   C788      1.0  0.95451  0.06714  0.24274  1.0000
  N   N81       1.0  0.99086  0.00846  0.25331  1.0000
  H   H1259     1.0  0.84003  0.00915  0.29059  1.0000
  Fe  Fe168     1.0  0.57363  0.18814  0.46854  1.0000
  H   H1260     1.0  0.62259  0.21676  0.25703  1.0000
  H   H1261     1.0  0.63547  0.31232  0.44465  1.0000
  C   C789      1.0  0.64999  0.09327  0.32410  1.0000
  H   H1262     1.0  0.66711  0.02650  0.37409  1.0000
  H   H1263     1.0  0.54033  0.10456  0.46714  1.0000
  H   H1264     1.0  0.66987  0.27918  0.48194  1.0000
  H   H1265     1.0  0.75196  0.05050  0.25567  1.0000
  N   N82       1.0  0.62924  0.07497  0.32897  1.0000
  C   C790      1.0  0.60995  0.08365  0.33324  1.0000
  C   C791      1.0  0.62687  0.06505  0.31692  1.0000
  C   C792      1.0  0.99101  0.08425  0.24549  1.0000
  H   H1266     1.0  0.60050  0.15887  0.25648  1.0000
  H   H1267     1.0  0.97566  0.01754  0.27219  1.0000
  H   H1268     1.0  0.51921  0.13213  0.46221  1.0000
  H   H1269     1.0  0.60874  0.09637  0.32385  1.0000
  Fe  Fe169     1.0  0.60698  0.19109  0.48647  1.0000
  H   H1270     1.0  0.81150  0.06106  0.26993  1.0000
  H   H1271     1.0  0.62500  0.07713  0.30755  1.0000
  C   C793      1.0  0.76885  0.01648  0.27344  1.0000
  Fe  Fe170     1.0  0.72099  0.01871  0.29696  1.0000
  C   C794      1.0  0.63953  0.04229  0.27240  1.0000
  C   C795      1.0  0.51498  0.08648  0.36027  1.0000
  H   H1272     1.0  0.59395  0.07035  0.33718  1.0000
  H   H1273     1.0  0.67002  0.02387  0.26051  1.0000
  H   H1274     1.0  0.59981  0.24857  0.42906  1.0000
  C   C796      1.0  0.77930  0.00890  0.26213  1.0000
  H   H1275     1.0  0.52837  0.33328  0.47991  1.0000
  C   C797      1.0  0.54570  0.12323  0.43072  1.0000
  H   H1276     1.0  0.83088  0.01245  0.27423  1.0000
  S   S328      1.0  0.58440  0.21200  0.48085  1.0000
  H   H1277     1.0  0.61501  0.04366  0.34527  1.0000
  C   C798      1.0  0.53022  0.21457  0.46774  1.0000
  H   H1278     1.0  0.53020  0.04085  0.32573  1.0000
  H   H1279     1.0  0.56132  0.11860  0.42679  1.0000
  C   C799      1.0  0.64280  0.30505  0.45287  1.0000
  C   C800      1.0  0.81279  0.03915  0.25625  1.0000
  H   H1280     1.0  0.56980  0.29901  0.46872  1.0000
  H   H1281     1.0  0.63105  0.18160  0.28090  1.0000
  H   H1282     1.0  0.57484  0.27313  0.47645  1.0000
  S   S329      1.0  0.70042  0.03613  0.28499  1.0000
  H   H1283     1.0  0.59757  0.25881  0.41086  1.0000
  H   H1284     1.0  0.56190  0.15909  0.43983  1.0000
  H   H1285     1.0  0.64505  0.05181  0.33892  1.0000
  H   H1286     1.0  0.53972  0.01581  0.39592  1.0000
  N   N83       1.0  0.54286  0.12506  0.44584  1.0000
  H   H1287     1.0  0.53163  0.11031  0.42998  1.0000
  H   H1288     1.0  0.78474  0.11941  0.23783  1.0000
  C   C801      1.0  0.80243  0.04661  0.26765  1.0000
  H   H1289     1.0  0.64208  0.21359  0.24191  1.0000
  C   C802      1.0  0.66229  0.28641  0.47384  1.0000
  C   C803      1.0  0.78050  0.03536  0.27620  1.0000
  H   H1290     1.0  0.65885  0.33621  0.45545  1.0000
  H   H1291     1.0  0.61200  0.05047  0.32037  1.0000
  C   C804      1.0  0.64856  0.27280  0.46796  1.0000
  H   H1292     1.0  0.61025  0.15891  0.27995  1.0000
  H   H1293     1.0  0.64168  0.05943  0.31282  1.0000
  C   C805      1.0  0.63873  0.28213  0.45752  1.0000
  N   N84       1.0  0.62606  0.18388  0.25951  1.0000
  S   S330      1.0  0.52355  0.08516  0.31830  1.0000
  C   C806      1.0  0.80118  0.02023  0.25353  1.0000
  H   H1294     1.0  0.65042  0.00774  0.35530  1.0000
  Fe  Fe171     1.0  0.52887  0.31170  0.44559  1.0000
  H   H1295     1.0  0.64567  0.25516  0.47149  1.0000
  N   N85       1.0  0.57311  0.26370  0.42793  1.0000
  C   C807      1.0  0.59576  0.26204  0.42174  1.0000
  C   C808      1.0  0.57168  0.26801  0.44233  1.0000
  C   C809      1.0  0.56869  0.28203  0.41792  1.0000
  H   H1296     1.0  0.60877  0.27748  0.42043  1.0000
  H   H1297     1.0  0.55516  0.27037  0.44705  1.0000
  H   H1298     1.0  0.57431  0.25424  0.45028  1.0000
  H   H1299     1.0  0.58470  0.28318  0.44143  1.0000
  H   H1300     1.0  0.55196  0.28417  0.42240  1.0000
  H   H1301     1.0  0.56936  0.27929  0.40698  1.0000
  H   H1302     1.0  0.58115  0.29798  0.41629  1.0000
  C   C810      1.0  0.96757  0.07740  0.25066  1.0000
  Fe  Fe172     1.0  0.70473  0.03146  0.32465  1.0000
  C   C811      1.0  0.56180  0.14252  0.44623  1.0000
  N   N86       1.0  0.67058  0.10924  0.40223  1.0000
  C   C812      1.0  0.65570  0.09837  0.41720  1.0000
  C   C813      1.0  0.65921  0.12248  0.39352  1.0000
  C   C814      1.0  0.67608  0.09235  0.39517  1.0000
  C   C815      1.0  0.69135  0.12383  0.40300  1.0000
  H   H1303     1.0  0.66333  0.08752  0.42393  1.0000
  H   H1304     1.0  0.63940  0.08795  0.41704  1.0000
  H   H1305     1.0  0.65191  0.11065  0.42305  1.0000
  H   H1306     1.0  0.66967  0.13040  0.38202  1.0000
  H   H1307     1.0  0.64329  0.11203  0.39294  1.0000
  H   H1308     1.0  0.65524  0.13573  0.39831  1.0000
  H   H1309     1.0  0.68690  0.09996  0.38373  1.0000
  H   H1310     1.0  0.66077  0.08102  0.39448  1.0000
  H   H1311     1.0  0.68489  0.08213  0.40130  1.0000
  H   H1312     1.0  0.70294  0.13229  0.39189  1.0000
  H   H1313     1.0  0.70035  0.11440  0.40953  1.0000
  H   H1314     1.0  0.68777  0.13683  0.40824  1.0000
  C   C816      1.0  0.74391  0.09049  0.24806  1.0000
  C   C817      1.0  0.52178  0.13071  0.45081  1.0000
  C   C818      1.0  0.76965  0.08655  0.26276  1.0000
  S   S331      1.0  0.63654  0.01412  0.30808  1.0000
  C   C819      1.0  0.99010  0.02416  0.26224  1.0000
  H   H1315     1.0  0.53913  0.24348  0.43470  1.0000
  H   H1316     1.0  0.64966  0.10654  0.31474  1.0000
  H   H1317     1.0  0.61148  0.09166  0.34214  1.0000
  S   S332      1.0  0.72268  0.09816  0.28167  1.0000
  H   H1318     1.0  0.62457  0.04424  0.24851  1.0000
  H   H1319     1.0  0.55486  0.01831  0.33166  1.0000
  H   H1320     1.0  0.75662  0.07371  0.27197  1.0000
  H   H1321     1.0  0.64949  0.21382  0.25869  1.0000
  C   C820      1.0  0.58162  0.29135  0.47354  1.0000
  H   H1322     1.0  0.52184  0.14687  0.44381  1.0000
  H   H1323     1.0  0.62406  0.04114  0.28076  1.0000
  C   C821      1.0  0.55637  0.24282  0.42978  1.0000
  H   H1324     1.0  0.54665  0.13907  0.42294  1.0000
  H   H1325     1.0  0.63693  0.15491  0.25831  1.0000
  S   S333      1.0  0.73517  0.04671  0.30542  1.0000
  H   H1326     1.0  0.78614  0.08390  0.26332  1.0000
  H   H1327     1.0  0.77284  0.04101  0.28513  1.0000
  C   C822      1.0  0.63546  0.20809  0.25409  1.0000
  S   S334      1.0  0.56641  0.32000  0.43811  1.0000
  H   H1328     1.0  0.98850  0.04005  0.25594  1.0000
  H   H1329     1.0  0.55672  0.23911  0.41913  1.0000
  H   H1330     1.0  0.74376  0.10696  0.24972  1.0000
  S   S335      1.0  0.59363  0.16540  0.47590  1.0000
  H   H1331     1.0  0.61708  0.29193  0.48467  1.0000
  H   H1332     1.0  0.59366  0.18437  0.25644  1.0000
  S   S336      1.0  0.50694  0.28813  0.43714  1.0000
  N   N87       1.0  0.52250  0.01489  0.34570  1.0000
  H   H1333     1.0  0.65255  0.04090  0.27829  1.0000
  H   H1334     1.0  0.53008  0.01928  0.29749  1.0000
  H   H1335     1.0  0.61199  0.32757  0.47359  1.0000
  C   C823      1.0  0.52150  0.19227  0.46881  1.0000
  S   S337      1.0  0.88819  0.02888  0.24927  1.0000
  H   H1336     1.0  0.60420  0.18488  0.27936  1.0000
  S   S338      1.0  0.83989  0.05415  0.24537  1.0000
  C   C824      1.0  0.65707  0.02611  0.25466  1.0000
  C   C825      1.0  0.76478  0.06368  0.24652  1.0000
  H   H1337     1.0  0.72988  0.07815  0.25692  1.0000
  H   H1338     1.0  0.66373  0.04239  0.24623  1.0000
  H   H1339     1.0  0.50856  0.01689  0.32733  1.0000
  C   C826      1.0  0.54215  0.10376  0.45566  1.0000
  C   C827      1.0  0.64371  0.17319  0.25518  1.0000
  C   C828      1.0  0.61909  0.02784  0.25678  1.0000
  H   H1340     1.0  0.59745  0.29599  0.46471  1.0000
  H   H1341     1.0  0.93648  0.06211  0.24676  1.0000
  H   H1342     1.0  0.58467  0.33175  0.47653  1.0000
  H   H1343     1.0  0.64483  0.05904  0.26456  1.0000
  S   S339      1.0  0.57036  0.11485  0.24524  1.0000
  H   H1344     1.0  0.61707  0.12075  0.24451  1.0000
  H   H1345     1.0  0.65729  0.17682  0.26056  1.0000
  H   H1346     1.0  0.53585  0.02049  0.36352  1.0000
  C   C829      1.0  0.59537  0.32289  0.48174  1.0000
  H   H1347     1.0  0.96836  0.01975  0.24174  1.0000
  H   H1348     1.0  0.61281  0.33434  0.43644  1.0000
  H   H1349     1.0  0.52801  0.09023  0.45567  1.0000
  H   H1350     1.0  0.61330  0.18256  0.24092  1.0000
  S   S340      1.0  0.50817  0.33569  0.44468  1.0000
  H   H1351     1.0  0.65488  0.01310  0.24888  1.0000
  H   H1352     1.0  0.74024  0.09028  0.23742  1.0000
  H   H1353     1.0  0.67439  0.18871  0.50953  1.0000
  H   H1354     1.0  0.55137  0.30032  0.49288  1.0000
  Fe  Fe173     1.0  0.67568  0.27997  0.56299  1.0000
  S   S341      1.0  0.64337  0.28847  0.56360  1.0000
  S   S342      1.0  0.70578  0.30937  0.55575  1.0000
  Fe  Fe174     1.0  0.65338  0.23033  0.56999  1.0000
  S   S343      1.0  0.61941  0.23537  0.57149  1.0000
  S   S344      1.0  0.65862  0.19631  0.57268  1.0000
  Fe  Fe175     1.0  0.63671  0.26342  0.55129  1.0000
  S   S345      1.0  0.62637  0.26952  0.53046  1.0000
  Fe  Fe176     1.0  0.62981  0.25960  0.58361  1.0000
  S   S346      1.0  0.60801  0.25930  0.60494  1.0000
  S   S347      1.0  0.67019  0.25708  0.54902  1.0000
  S   S348      1.0  0.66266  0.25253  0.58387  1.0000
  H   H1355     1.0  0.94675  0.04132  0.67840  1.0000
  H   H1356     1.0  0.56361  0.18962  0.61006  1.0000
  H   H1357     1.0  0.60024  0.15971  0.62623  1.0000
  H   H1358     1.0  0.62203  0.22896  0.49386  1.0000
  S   S349      1.0  0.96166  0.09766  0.71563  1.0000
  H   H1359     1.0  0.66384  0.23375  0.52531  1.0000
  S   S350      1.0  0.86837  0.05608  0.70513  1.0000
  H   H1360     1.0  0.59686  0.19059  0.63711  1.0000
  Fe  Fe177     1.0  0.57454  0.08106  0.59745  1.0000
  S   S351      1.0  0.60211  0.07222  0.58362  1.0000
  S   S352      1.0  0.57169  0.11593  0.59135  1.0000
  Fe  Fe178     1.0  0.55113  0.03288  0.61480  1.0000
  Fe  Fe179     1.0  0.60128  0.04923  0.60483  1.0000
  S   S353      1.0  0.63358  0.04480  0.60884  1.0000
  Fe  Fe180     1.0  0.57522  0.04449  0.58251  1.0000
  H   H1361     1.0  0.58690  0.19354  0.59477  1.0000
  S   S354      1.0  0.57549  0.06003  0.61902  1.0000
  S   S355      1.0  0.54751  0.05496  0.59471  1.0000
  C   C830      1.0  0.56638  0.10186  0.55818  1.0000
  H   H1362     1.0  0.61215  0.10287  0.53239  1.0000
  N   N88       1.0  0.59474  0.19011  0.61543  1.0000
  C   C831      1.0  0.64895  0.01972  0.62858  1.0000
  C   C832      1.0  0.59102  0.16599  0.61845  1.0000
  H   H1363     1.0  0.59603  0.14050  0.55414  1.0000
  H   H1364     1.0  0.60128  0.08556  0.55093  1.0000
  H   H1365     1.0  0.58482  0.08366  0.53830  1.0000
  C   C833      1.0  0.93570  0.08424  0.71351  1.0000
  C   C834      1.0  0.92633  0.09701  0.70432  1.0000
  C   C835      1.0  0.90582  0.08790  0.70204  1.0000
  C   C836      1.0  0.89413  0.06581  0.70892  1.0000
  C   C837      1.0  0.90333  0.05270  0.71823  1.0000
  C   C838      1.0  0.92419  0.06193  0.72052  1.0000
  H   H1366     1.0  0.93494  0.11420  0.69891  1.0000
  H   H1367     1.0  0.89889  0.09816  0.69489  1.0000
  H   H1368     1.0  0.60323  0.29255  0.50257  1.0000
  H   H1369     1.0  0.00483  0.13399  0.70350  1.0000
  C   C839      1.0  0.63475  0.17376  0.57710  1.0000
  C   C840      1.0  0.61470  0.17687  0.57459  1.0000
  C   C841      1.0  0.59552  0.15898  0.57896  1.0000
  C   C842      1.0  0.59633  0.13772  0.58560  1.0000
  C   C843      1.0  0.61657  0.13437  0.58758  1.0000
  C   C844      1.0  0.63574  0.15239  0.58335  1.0000
  H   H1370     1.0  0.61391  0.19300  0.56920  1.0000
  H   H1371     1.0  0.57998  0.16160  0.57718  1.0000
  H   H1372     1.0  0.61737  0.11799  0.59266  1.0000
  H   H1373     1.0  0.65124  0.14979  0.58522  1.0000
  C   C845      1.0  0.70995  0.32465  0.56833  1.0000
  C   C846      1.0  0.70141  0.31496  0.58345  1.0000
  N   N89       1.0  0.92199  0.01107  0.69112  1.0000
  H   H1374     1.0  0.66397  0.02375  0.61971  1.0000
  H   H1375     1.0  0.70835  0.22337  0.52724  1.0000
  H   H1376     1.0  0.73070  0.02130  0.63841  1.0000
  H   H1377     1.0  0.69202  0.29778  0.58760  1.0000
  C   C847      1.0  0.68704  0.31363  0.52253  1.0000
  H   H1378     1.0  0.68729  0.23703  0.51026  1.0000
  C   C848      1.0  0.55656  0.29766  0.60035  1.0000
  C   C849      1.0  0.57144  0.29685  0.58777  1.0000
  C   C850      1.0  0.58730  0.28500  0.58907  1.0000
  C   C851      1.0  0.58847  0.27427  0.60294  1.0000
  C   C852      1.0  0.57376  0.27534  0.61548  1.0000
  C   C853      1.0  0.55774  0.28688  0.61418  1.0000
  H   H1379     1.0  0.57025  0.30473  0.57707  1.0000
  H   H1380     1.0  0.59826  0.28385  0.57934  1.0000
  H   H1381     1.0  0.57459  0.26704  0.62621  1.0000
  H   H1382     1.0  0.55851  0.11419  0.56188  1.0000
  C   C854      1.0  0.61284  0.20688  0.51557  1.0000
  C   C855      1.0  0.60979  0.20535  0.53047  1.0000
  C   C856      1.0  0.61378  0.22454  0.53510  1.0000
  C   C857      1.0  0.62061  0.24533  0.52489  1.0000
  C   C858      1.0  0.62340  0.24682  0.51002  1.0000
  C   C859      1.0  0.61943  0.22765  0.50538  1.0000
  H   H1383     1.0  0.60437  0.18934  0.53845  1.0000
  H   H1384     1.0  0.61128  0.22320  0.54659  1.0000
  H   H1385     1.0  0.62925  0.26281  0.50206  1.0000
  H   H1386     1.0  0.99954  0.14064  0.67878  1.0000
  H   H1387     1.0  0.89773  0.02879  0.69616  1.0000
  H   H1388     1.0  0.55374  0.00821  0.64508  1.0000
  H   H1389     1.0  0.71733  0.04845  0.65003  1.0000
  H   H1390     1.0  0.66107  0.32853  0.50664  1.0000
  C   C860      1.0  0.60306  0.12748  0.55077  1.0000
  H   H1391     1.0  0.57009  0.02102  0.53684  1.0000
  C   C861      1.0  0.71621  0.00830  0.64643  1.0000
  C   C862      1.0  0.56362  0.29319  0.49751  1.0000
  S   S356      1.0  0.57707  0.02060  0.60230  1.0000
  C   C863      1.0  0.61179  0.02303  0.63775  1.0000
  H   H1392     1.0  0.65831  0.17573  0.54370  1.0000
  H   H1393     1.0  0.70309  0.31393  0.52541  1.0000
  H   H1394     1.0  0.66015  0.22062  0.51128  1.0000
  H   H1395     1.0  0.59644  0.13370  0.52392  1.0000
  C   C864      1.0  0.67175  0.22502  0.51792  1.0000
  C   C865      1.0  0.58134  0.12545  0.53336  1.0000
  C   C866      1.0  0.69229  0.21187  0.53458  1.0000
  C   C867      1.0  0.61878  0.20125  0.60871  1.0000
  H   H1396     1.0  0.62910  0.19570  0.61591  1.0000
  H   H1397     1.0  0.62488  0.19785  0.59809  1.0000
  H   H1398     1.0  0.62224  0.21943  0.60657  1.0000
  H   H1399     1.0  0.58985  0.21388  0.62723  1.0000
  H   H1400     1.0  0.58440  0.21576  0.60271  1.0000
  H   H1401     1.0  0.88837  0.00617  0.68914  1.0000
  H   H1402     1.0  0.59686  0.16130  0.60827  1.0000
  H   H1403     1.0  0.56550  0.29966  0.50702  1.0000
  C   C868      1.0  0.58734  0.19574  0.62924  1.0000
  H   H1404     1.0  0.52095  0.00878  0.58302  1.0000
  H   H1405     1.0  0.57299  0.15700  0.62324  1.0000
  N   N90       1.0  0.58689  0.11258  0.54598  1.0000
  Fe  Fe181     1.0  0.84586  0.02126  0.71228  1.0000
  H   H1406     1.0  0.56902  0.11478  0.52952  1.0000
  C   C869      1.0  0.58184  0.19758  0.60530  1.0000
  H   H1407     1.0  0.56927  0.18759  0.63466  1.0000
  S   S357      1.0  0.52003  0.00677  0.62910  1.0000
  H   H1408     1.0  0.63555  0.31317  0.58773  1.0000
  Fe  Fe182     1.0  0.98368  0.08342  0.72813  1.0000
  C   C870      1.0  0.94123  0.02970  0.68960  1.0000
  H   H1409     1.0  0.69973  0.31960  0.60492  1.0000
  H   H1410     1.0  0.64728  0.32207  0.52573  1.0000
  H   H1411     1.0  0.60744  0.11833  0.56039  1.0000
  H   H1412     1.0  0.64335  0.18393  0.53063  1.0000
  H   H1413     1.0  0.70195  0.20474  0.50808  1.0000
  H   H1414     1.0  0.68962  0.17878  0.52193  1.0000
  H   H1415     1.0  0.57411  0.13869  0.53617  1.0000
  H   H1416     1.0  0.95573  0.02386  0.69171  1.0000
  H   H1417     1.0  0.57010  0.09211  0.56785  1.0000
  H   H1418     1.0  0.93120  0.05195  0.72776  1.0000
  S   S358      1.0  0.53598  0.31155  0.59921  1.0000
  N   N91       1.0  0.67636  0.20525  0.52627  1.0000
  H   H1419     1.0  0.61876  0.13585  0.54187  1.0000
  C   C871      1.0  0.59677  0.09550  0.54167  1.0000
  H   H1420     1.0  0.66987  0.33131  0.54303  1.0000
  H   H1421     1.0  0.54621  0.28741  0.62392  1.0000
  H   H1422     1.0  0.59806  0.02967  0.63605  1.0000
  C   C872      1.0  0.65532  0.19019  0.53656  1.0000
  C   C873      1.0  0.60044  0.28770  0.49267  1.0000
  C   C874      1.0  0.63121  0.02827  0.62628  1.0000
  H   H1423     1.0  0.67350  0.30128  0.53162  1.0000
  C   C875      1.0  0.70350  0.03455  0.65790  1.0000
  C   C876      1.0  0.66122  0.33412  0.51665  1.0000
  S   S359      1.0  0.60978  0.18291  0.50967  1.0000
  H   H1424     1.0  0.68771  0.30764  0.51260  1.0000
  C   C877      1.0  0.72945  0.01630  0.66665  1.0000
  H   H1425     1.0  0.55382  0.09030  0.55506  1.0000
  H   H1426     1.0  0.69605  0.19733  0.54109  1.0000
  H   H1427     1.0  0.90770  0.03118  0.67707  1.0000
  C   C878      1.0  0.68603  0.19385  0.51600  1.0000
  C   C879      1.0  0.70584  0.32731  0.59324  1.0000
  S   S360      1.0  0.51559  0.33448  0.56495  1.0000
  H   H1428     1.0  0.68536  0.22027  0.54254  1.0000
  H   H1429     1.0  0.93692  0.03930  0.69746  1.0000
  H   H1430     1.0  0.64699  0.19868  0.54396  1.0000
  H   H1431     1.0  0.93393  0.00956  0.66907  1.0000
  H   H1432     1.0  0.98970  0.02273  0.71745  1.0000
  S   S361      1.0  0.57224  0.03829  0.56114  1.0000
  H   H1433     1.0  0.69885  0.03913  0.66827  1.0000
  C   C880      1.0  0.61022  0.00932  0.65153  1.0000
  H   H1434     1.0  0.74383  0.03023  0.65940  1.0000
  H   H1435     1.0  0.68879  0.03307  0.65332  1.0000
  S   S362      1.0  0.81263  0.00906  0.72928  1.0000
  H   H1436     1.0  0.55616  0.27504  0.50178  1.0000
  H   H1437     1.0  0.72522  0.01927  0.67761  1.0000
  N   N92       1.0  0.71007  0.01377  0.66045  1.0000
  H   H1438     1.0  0.62971  0.31615  0.60588  1.0000
  C   C881      1.0  0.90317  0.01968  0.68825  1.0000
  C   C882      1.0  0.64198  0.32277  0.59487  1.0000
  H   H1439     1.0  0.59370  0.26943  0.49594  1.0000
  N   N93       1.0  0.68293  0.33558  0.52005  1.0000
  H   H1440     1.0  0.89428  0.03568  0.72376  1.0000
  C   C883      1.0  0.57067  0.01151  0.55937  1.0000
  H   H1441     1.0  0.65791  0.31915  0.59603  1.0000
  S   S363      1.0  0.83260  0.00537  0.69633  1.0000
  H   H1442     1.0  0.59783  0.32924  0.49118  1.0000
  C   C884      1.0  0.64721  0.00573  0.64223  1.0000
  H   H1443     1.0  0.51622  0.32384  0.62766  1.0000
  C   C885      1.0  0.56963  0.00765  0.54592  1.0000
  C   C886      1.0  0.52325  0.33429  0.49100  1.0000
  Fe  Fe183     1.0  0.54122  0.33602  0.57763  1.0000
  C   C887      1.0  0.51046  0.33769  0.51964  1.0000
  H   H1444     1.0  0.70210  0.00643  0.64135  1.0000
  H   H1445     1.0  0.50671  0.00916  0.60104  1.0000
  C   C888      1.0  0.53903  0.33729  0.49901  1.0000
  H   H1446     1.0  0.59526  0.00538  0.66041  1.0000
  N   N94       1.0  0.80563  0.02411  0.78729  1.0000
  C   C889      1.0  0.95683  0.11961  0.77087  1.0000
  S   S364      1.0  0.87868  0.06268  0.80240  1.0000
  H   H1447     1.0  0.83260  0.04353  0.79298  1.0000
  Fe  Fe184     1.0  0.89812  0.06667  0.81885  1.0000
  S   S365      1.0  0.92715  0.09663  0.81390  1.0000
  Fe  Fe185     1.0  0.84875  0.04640  0.82172  1.0000
  S   S366      1.0  0.81367  0.04799  0.82246  1.0000
  H   H1448     1.0  0.83511  0.02574  0.86511  1.0000
  C   C890      1.0  0.76765  0.03962  0.86058  1.0000
  Fe  Fe186     1.0  0.69032  0.02841  0.91971  1.0000
  H   H1449     1.0  0.91791  0.06906  0.84358  1.0000
  C   C891      1.0  0.66615  0.05043  0.94626  1.0000
  C   C892      1.0  0.64747  0.05484  0.95424  1.0000
  C   C893      1.0  0.64678  0.05812  0.96803  1.0000
  C   C894      1.0  0.66515  0.05804  0.97368  1.0000
  C   C895      1.0  0.68417  0.05419  0.96556  1.0000
  C   C896      1.0  0.68454  0.05002  0.95193  1.0000
  H   H1450     1.0  0.63200  0.06087  0.97419  1.0000
  H   H1451     1.0  0.69848  0.05412  0.96987  1.0000
  H   H1452     1.0  0.69907  0.04669  0.94580  1.0000
  H   H1453     1.0  0.82810  0.07578  0.83993  1.0000
  S   S367      1.0  0.90599  0.03427  0.82093  1.0000
  C   C897      1.0  0.87752  0.01189  0.76367  1.0000
  H   H1454     1.0  0.63333  0.05554  0.94986  1.0000
  H   H1455     1.0  0.80923  0.07950  0.86389  1.0000
  H   H1456     1.0  0.80568  0.02939  0.76463  1.0000
  H   H1457     1.0  0.91766  0.12792  0.76966  1.0000
  S   S368      1.0  0.89703  0.02085  0.78485  1.0000
  H   H1458     1.0  0.61971  0.01896  0.94809  1.0000
  C   C898      1.0  0.80012  0.05080  0.83938  1.0000
  C   C899      1.0  0.73017  0.00793  0.96963  1.0000
  C   C900      1.0  0.94326  0.09508  0.82661  1.0000
  C   C901      1.0  0.96488  0.10929  0.82285  1.0000
  H   H1459     1.0  0.96806  0.04323  0.78196  1.0000
  C   C902      1.0  0.96936  0.09301  0.84672  1.0000
  C   C903      1.0  0.94750  0.07920  0.85060  1.0000
  C   C904      1.0  0.93466  0.07990  0.84050  1.0000
  H   H1460     1.0  0.97161  0.12115  0.81217  1.0000
  S   S369      1.0  0.97427  0.05775  0.74963  1.0000
  H   H1461     1.0  0.94044  0.06791  0.86146  1.0000
  H   H1462     1.0  0.53455  0.11840  0.97424  1.0000
  H   H1463     1.0  0.94663  0.01814  0.85855  1.0000
  H   H1464     1.0  0.91445  0.10915  0.78703  1.0000
  H   H1465     1.0  0.99808  0.04989  0.86435  1.0000
  H   H1466     1.0  0.00064  0.00616  0.84503  1.0000
  H   H1467     1.0  0.95781  0.03964  0.80118  1.0000
  C   C905      1.0  0.82920  0.03705  0.78375  1.0000
  S   S370      1.0  0.86743  0.05399  0.83788  1.0000
  H   H1468     1.0  0.54937  0.08555  0.97682  1.0000
  H   H1469     1.0  0.97267  0.11656  0.76556  1.0000
  H   H1470     1.0  0.98592  0.05869  0.84186  1.0000
  H   H1471     1.0  0.94145  0.12417  0.74697  1.0000
  S   S371      1.0  0.76714  0.05611  0.88446  1.0000
  H   H1472     1.0  0.80329  0.01115  0.81007  1.0000
  C   C906      1.0  0.91683  0.11063  0.77514  1.0000
  Fe  Fe187     1.0  0.73401  0.03238  0.89793  1.0000
  C   C907      1.0  0.60666  0.03377  0.92344  1.0000
  C   C908      1.0  0.77816  0.03801  0.84675  1.0000
  H   H1473     1.0  0.95039  0.07675  0.77206  1.0000
  C   C909      1.0  0.77890  0.05450  0.86682  1.0000
  H   H1474     1.0  0.83362  0.05136  0.77389  1.0000
  H   H1475     1.0  0.82250  0.04128  0.89956  1.0000
  H   H1476     1.0  0.56543  0.00739  0.93834  1.0000
  H   H1477     1.0  0.60630  0.03362  0.91208  1.0000
  C   C910      1.0  0.97807  0.10797  0.83277  1.0000
  C   C911      1.0  0.97578  0.00705  0.79719  1.0000
  H   H1478     1.0  0.73612  0.01278  0.94648  1.0000
  S   S372      1.0  0.99312  0.08587  0.77785  1.0000
  H   H1479     1.0  0.99526  0.09562  0.80466  1.0000
  Fe  Fe188     1.0  0.87367  0.02104  0.83867  1.0000
  N   N95       1.0  0.93722  0.10475  0.76891  1.0000
  H   H1480     1.0  0.95606  0.11715  0.78271  1.0000
  H   H1481     1.0  0.97372  0.03715  0.83479  1.0000
  C   C912      1.0  0.60218  0.01209  0.94806  1.0000
  S   S373      1.0  0.69988  0.03304  0.89543  1.0000
  S   S374      1.0  0.66494  0.04395  0.92981  1.0000
  Fe  Fe189     1.0  0.88455  0.02931  0.80572  1.0000
  H   H1482     1.0  0.92542  0.09592  0.75127  1.0000
  H   H1483     1.0  0.95510  0.10258  0.74812  1.0000
  C   C913      1.0  0.82283  0.04034  0.88824  1.0000
  H   H1484     1.0  0.80613  0.02464  0.86797  1.0000
  H   H1485     1.0  0.83989  0.04947  0.88100  1.0000
  S   S375      1.0  0.99814  0.00944  0.74593  1.0000
  H   H1486     1.0  0.99479  0.11886  0.82973  1.0000
  S   S376      1.0  0.98535  0.09081  0.85949  1.0000
  H   H1487     1.0  0.75088  0.02942  0.86638  1.0000
  C   C914      1.0  0.81130  0.06563  0.84565  1.0000
  C   C915      1.0  0.80057  0.06775  0.85920  1.0000
  H   H1488     1.0  0.92059  0.06998  0.77549  1.0000
  H   H1489     1.0  0.62378  0.04333  0.92283  1.0000
  Fe  Fe190     1.0  0.00040  0.08094  0.75544  1.0000
  H   H1490     1.0  0.95575  0.01041  0.87465  1.0000
  H   H1491     1.0  0.90166  0.09968  0.77396  1.0000
  C   C916      1.0  0.79085  0.03832  0.79016  1.0000
  H   H1492     1.0  0.84078  0.02681  0.78152  1.0000
  C   C917      1.0  0.93989  0.10699  0.75314  1.0000
  H   H1493     1.0  0.79327  0.04496  0.79951  1.0000
  H   H1494     1.0  0.99005  0.01706  0.78756  1.0000
  H   H1495     1.0  0.59491  0.04302  0.92736  1.0000
  H   H1496     1.0  0.89088  0.02565  0.75616  1.0000
  H   H1497     1.0  0.59237  0.02283  0.95219  1.0000
  H   H1498     1.0  0.77292  0.02905  0.79297  1.0000
  C   C918      1.0  0.93534  0.08171  0.77656  1.0000
  H   H1499     1.0  0.63565  0.00759  0.97463  1.0000
  H   H1500     1.0  0.99680  0.02189  0.87298  1.0000
  H   H1501     1.0  0.79420  0.05268  0.78048  1.0000
  C   C919      1.0  0.98645  0.04217  0.84052  1.0000
  H   H1502     1.0  0.84965  0.01396  0.88673  1.0000
  C   C920      1.0  0.95972  0.02326  0.86404  1.0000
  H   H1503     1.0  0.96478  0.01139  0.77187  1.0000
  S   S377      1.0  0.72501  0.03106  0.92178  1.0000
  C   C921      1.0  0.95467  0.03303  0.79196  1.0000
  N   N96       1.0  0.95428  0.00957  0.79473  1.0000
  H   H1504     1.0  0.00323  0.04427  0.83320  1.0000
  H   H1505     1.0  0.93373  0.07949  0.78845  1.0000
  C   C922      1.0  0.81810  0.01681  0.87239  1.0000
  H   H1506     1.0  0.76942  0.02656  0.84192  1.0000
  C   C923      1.0  0.99910  0.03385  0.86226  1.0000
  H   H1507     1.0  0.97880  0.01248  0.80685  1.0000
  H   H1508     1.0  0.57336  0.12245  0.97564  1.0000
  H   H1509     1.0  0.95818  0.03894  0.86652  1.0000
  N   N97       1.0  0.98234  0.02597  0.85483  1.0000
  H   H1510     1.0  0.73497  0.02539  0.96869  1.0000
  H   H1511     1.0  0.93861  0.03561  0.79032  1.0000
  S   S378      1.0  0.85299  0.01250  0.82371  1.0000
  H   H1512     1.0  0.95802  0.13723  0.76609  1.0000
  H   H1513     1.0  0.81106  0.04936  0.88465  1.0000
  S   S379      1.0  0.56501  0.03697  0.98273  1.0000
  N   N98       1.0  0.60083  0.01115  0.93323  1.0000
  Fe  Fe191     1.0  0.00305  0.04632  0.73942  1.0000
  N   N99       1.0  0.81656  0.01725  0.88768  1.0000
  H   H1514     1.0  0.78143  0.01472  0.89280  1.0000
  C   C924      1.0  0.80184  0.01573  0.77481  1.0000
  H   H1515     1.0  0.68380  0.00942  0.97479  1.0000
  C   C925      1.0  0.55541  0.00808  0.98599  1.0000
  H   H1516     1.0  0.55302  0.01050  0.96400  1.0000
  H   H1517     1.0  0.63425  0.00835  0.92626  1.0000
  C   C926      1.0  0.79339  0.00624  0.89680  1.0000
  H   H1518     1.0  0.79150  0.00640  0.90840  1.0000
  H   H1519     1.0  0.78424  0.00587  0.77708  1.0000
  C   C927      1.0  0.87634  0.00608  0.77860  1.0000
  H   H1520     1.0  0.86169  0.00561  0.74704  1.0000
  C   C928      1.0  0.80062  0.00537  0.80045  1.0000
  C   C929      1.0  0.52915  0.11429  0.98640  1.0000
  C   C930      1.0  0.83199  0.00565  0.89324  1.0000
  H   H1521     1.0  0.65623  0.00569  0.95955  1.0000
  H   H1522     1.0  0.83092  0.00510  0.90487  1.0000
  H   H1523     1.0  0.80035  0.51468  0.23437  1.0000
  C   C931      1.0  0.54109  0.39750  0.12102  1.0000
  S   S380      1.0  0.62438  0.35817  0.15725  1.0000
  H   H1524     1.0  0.83325  0.65034  0.99648  1.0000
  H   H1525     1.0  0.83887  0.48924  0.20377  1.0000
  S   S381      1.0  0.57160  0.36170  0.14388  1.0000
  C   C932      1.0  0.85425  0.65971  0.04768  1.0000
  Fe  Fe192     1.0  0.74020  0.39657  0.19497  1.0000
  S   S382      1.0  0.72056  0.41071  0.21057  1.0000
  S   S383      1.0  0.74325  0.36235  0.20375  1.0000
  Fe  Fe193     1.0  0.74391  0.43401  0.16865  1.0000
  S   S384      1.0  0.72468  0.45112  0.18242  1.0000
  S   S385      1.0  0.75361  0.44348  0.14381  1.0000
  Fe  Fe194     1.0  0.74578  0.44341  0.19797  1.0000
  S   S386      1.0  0.75656  0.46652  0.21171  1.0000
  Fe  Fe195     1.0  0.70165  0.41712  0.19382  1.0000
  S   S387      1.0  0.66363  0.40634  0.19998  1.0000
  S   S388      1.0  0.76673  0.42857  0.18323  1.0000
  S   S389      1.0  0.71970  0.40072  0.17920  1.0000
  Fe  Fe196     1.0  0.67100  0.41820  0.09744  1.0000
  S   S390      1.0  0.70081  0.41210  0.08371  1.0000
  S   S391      1.0  0.66885  0.42602  0.11911  1.0000
  Fe  Fe197     1.0  0.64257  0.41015  0.07623  1.0000
  S   S392      1.0  0.67060  0.40411  0.06080  1.0000
  S   S393      1.0  0.60826  0.40921  0.07265  1.0000
  Fe  Fe198     1.0  0.67559  0.38386  0.08112  1.0000
  C   C933      1.0  0.94039  0.65784  0.22170  1.0000
  Fe  Fe199     1.0  0.69287  0.43318  0.06482  1.0000
  S   S394      1.0  0.71749  0.45992  0.04515  1.0000
  S   S395      1.0  0.64638  0.38837  0.09640  1.0000
  S   S396      1.0  0.66426  0.44076  0.07881  1.0000
  H   H1526     1.0  0.70726  0.39327  0.13943  1.0000
  H   H1527     1.0  0.55966  0.36562  0.11461  1.0000
  H   H1528     1.0  0.84111  0.47108  0.23567  1.0000
  N   N100      1.0  0.53689  0.38493  0.11045  1.0000
  H   H1529     1.0  0.73076  0.34574  0.15899  1.0000
  H   H1530     1.0  0.55625  0.41177  0.11608  1.0000
  H   H1531     1.0  0.54357  0.38697  0.13092  1.0000
  H   H1532     1.0  0.72674  0.37758  0.14191  1.0000
  C   C934      1.0  0.94370  0.66071  0.04322  1.0000
  S   S397      1.0  0.84762  0.51652  0.22279  1.0000
  H   H1533     1.0  0.78392  0.56818  0.09090  1.0000
  H   H1534     1.0  0.52673  0.40392  0.12492  1.0000
  C   C935      1.0  0.80131  0.50472  0.22681  1.0000
  C   C936      1.0  0.51698  0.36590  0.11763  1.0000
  H   H1535     1.0  0.91473  0.62980  0.02576  1.0000
  C   C937      1.0  0.66436  0.46275  0.03950  1.0000
  C   C938      1.0  0.78249  0.57480  0.07967  1.0000
  C   C939      1.0  0.88167  0.65567  0.06129  1.0000
  C   C940      1.0  0.73478  0.34471  0.19338  1.0000
  S   S398      1.0  0.67896  0.34911  0.08483  1.0000
  Fe  Fe200     1.0  0.83729  0.60563  0.00473  1.0000
  S   S399      1.0  0.86340  0.62365  0.01331  1.0000
  Fe  Fe201     1.0  0.81220  0.57216  0.03437  1.0000
  S   S400      1.0  0.83670  0.58799  0.04517  1.0000
  S   S401      1.0  0.78458  0.54410  0.05152  1.0000
  Fe  Fe202     1.0  0.83467  0.62014  0.03220  1.0000
  S   S402      1.0  0.83139  0.64823  0.04170  1.0000
  Fe  Fe203     1.0  0.86317  0.58991  0.02541  1.0000
  S   S403      1.0  0.89518  0.58304  0.02838  1.0000
  S   S404      1.0  0.80815  0.60470  0.02275  1.0000
  S   S405      1.0  0.83930  0.57160  0.01542  1.0000
  N   N101      1.0  0.70244  0.36471  0.13135  1.0000
  H   H1536     1.0  0.97258  0.61849  0.99883  1.0000
  C   C941      1.0  0.93868  0.60194  0.01194  1.0000
  C   C942      1.0  0.91647  0.59384  0.01184  1.0000
  C   C943      1.0  0.72864  0.33922  0.17054  1.0000
  H   H1537     1.0  0.64205  0.47386  0.01982  1.0000
  C   C944      1.0  0.91130  0.59491  0.99849  1.0000
  H   H1538     1.0  0.94285  0.60080  0.02223  1.0000
  C   C945      1.0  0.80565  0.61101  0.07726  1.0000
  H   H1539     1.0  0.81971  0.60866  0.06935  1.0000
  S   S406      1.0  0.56217  0.34897  0.03768  1.0000
  C   C946      1.0  0.86462  0.64624  0.05561  1.0000
  H   H1540     1.0  0.85916  0.62856  0.05769  1.0000
  C   C947      1.0  0.67380  0.34751  0.19572  1.0000
  H   H1541     1.0  0.54788  0.41350  0.09180  1.0000
  H   H1542     1.0  0.66777  0.45118  0.04847  1.0000
  H   H1543     1.0  0.69850  0.36742  0.15335  1.0000
  H   H1544     1.0  0.71313  0.36805  0.10826  1.0000
  C   C948      1.0  0.68119  0.44585  0.02199  1.0000
  H   H1545     1.0  0.63833  0.42454  0.02514  1.0000
  H   H1546     1.0  0.89910  0.64249  0.21914  1.0000
  H   H1547     1.0  0.64972  0.35658  0.06607  1.0000
  S   S407      1.0  0.52585  0.38479  0.16491  1.0000
  H   H1548     1.0  0.67943  0.43806  0.01304  1.0000
  C   C949      1.0  0.73618  0.48320  0.04706  1.0000
  C   C950      1.0  0.75102  0.49906  0.03447  1.0000
  C   C951      1.0  0.76590  0.51786  0.03557  1.0000
  C   C952      1.0  0.76606  0.52097  0.04933  1.0000
  C   C953      1.0  0.75132  0.50504  0.06190  1.0000
  C   C954      1.0  0.73647  0.48627  0.06080  1.0000
  H   H1549     1.0  0.75095  0.49686  0.02378  1.0000
  H   H1550     1.0  0.77707  0.52998  0.02579  1.0000
  H   H1551     1.0  0.75130  0.50721  0.07261  1.0000
  H   H1552     1.0  0.72518  0.47423  0.07059  1.0000
  C   C955      1.0  0.59530  0.39074  0.06393  1.0000
  C   C956      1.0  0.60709  0.37901  0.05626  1.0000
  C   C957      1.0  0.59668  0.36600  0.04843  1.0000
  C   C958      1.0  0.57417  0.36390  0.04866  1.0000
  C   C959      1.0  0.56216  0.37495  0.05680  1.0000
  C   C960      1.0  0.57281  0.38862  0.06416  1.0000
  H   H1553     1.0  0.62434  0.38027  0.05608  1.0000
  H   H1554     1.0  0.67749  0.38171  0.12830  1.0000
  H   H1555     1.0  0.54490  0.37369  0.05692  1.0000
  H   H1556     1.0  0.56368  0.39790  0.06982  1.0000
  H   H1557     1.0  0.51852  0.40589  0.10110  1.0000
  H   H1558     1.0  0.51949  0.35456  0.12719  1.0000
  C   C961      1.0  0.78158  0.49342  0.22422  1.0000
  H   H1559     1.0  0.68155  0.36100  0.21873  1.0000
  H   H1560     1.0  0.89425  0.58845  0.99833  1.0000
  C   C962      1.0  0.78227  0.48053  0.21429  1.0000
  H   H1561     1.0  0.55411  0.36796  0.09714  1.0000
  H   H1562     1.0  0.57195  0.39091  0.10020  1.0000
  H   H1563     1.0  0.95347  0.64958  0.04735  1.0000
  C   C963      1.0  0.82289  0.49044  0.20956  1.0000
  C   C964      1.0  0.80313  0.47908  0.20700  1.0000
  H   H1564     1.0  0.69635  0.46023  0.01770  1.0000
  H   H1565     1.0  0.76562  0.49481  0.22988  1.0000
  H   H1566     1.0  0.88481  0.65329  0.23260  1.0000
  H   H1567     1.0  0.80403  0.46932  0.19930  1.0000
  C   C965      1.0  0.73048  0.44004  0.13646  1.0000
  C   C966      1.0  0.70921  0.43783  0.14514  1.0000
  C   C967      1.0  0.69060  0.43391  0.13957  1.0000
  C   C968      1.0  0.69303  0.43224  0.12525  1.0000
  C   C969      1.0  0.71441  0.43511  0.11635  1.0000
  C   C970      1.0  0.73311  0.43898  0.12196  1.0000
  H   H1568     1.0  0.70716  0.43920  0.15618  1.0000
  H   H1569     1.0  0.67425  0.43183  0.14654  1.0000
  H   H1570     1.0  0.71659  0.43437  0.10518  1.0000
  H   H1571     1.0  0.74959  0.44096  0.11513  1.0000
  H   H1572     1.0  0.68962  0.34345  0.19163  1.0000
  C   C971      1.0  0.76567  0.60208  0.08708  1.0000
  C   C972      1.0  0.70900  0.37620  0.14197  1.0000
  H   H1573     1.0  0.64937  0.46758  0.04439  1.0000
  C   C973      1.0  0.63432  0.37176  0.16932  1.0000
  C   C974      1.0  0.65656  0.38440  0.16495  1.0000
  C   C975      1.0  0.66530  0.39547  0.17417  1.0000
  C   C976      1.0  0.65198  0.39400  0.18790  1.0000
  C   C977      1.0  0.62944  0.38178  0.19219  1.0000
  C   C978      1.0  0.62063  0.37055  0.18294  1.0000
  H   H1574     1.0  0.66702  0.38606  0.15427  1.0000
  H   H1575     1.0  0.68237  0.40532  0.17060  1.0000
  H   H1576     1.0  0.61896  0.38062  0.20280  1.0000
  H   H1577     1.0  0.60343  0.36074  0.18645  1.0000
  H   H1578     1.0  0.76538  0.59734  0.06029  1.0000
  H   H1579     1.0  0.65451  0.46125  0.00674  1.0000
  H   H1580     1.0  0.92907  0.65873  0.05245  1.0000
  H   H1581     1.0  0.74593  0.37022  0.17293  1.0000
  H   H1582     1.0  0.88923  0.64518  0.06776  1.0000
  H   H1583     1.0  0.80745  0.62908  0.07451  1.0000
  Fe  Fe204     1.0  0.54283  0.35812  0.16286  1.0000
  H   H1584     1.0  0.67159  0.48350  0.01112  1.0000
  N   N102      1.0  0.83265  0.50906  0.04797  1.0000
  C   C979      1.0  0.84277  0.53062  0.04996  1.0000
  C   C980      1.0  0.84943  0.49649  0.04670  1.0000
  C   C981      1.0  0.82512  0.51261  0.03450  1.0000
  C   C982      1.0  0.81330  0.49661  0.06071  1.0000
  H   H1585     1.0  0.85717  0.54073  0.04042  1.0000
  H   H1586     1.0  0.84903  0.52867  0.05988  1.0000
  H   H1587     1.0  0.83039  0.54029  0.05125  1.0000
  H   H1588     1.0  0.84243  0.48019  0.04505  1.0000
  H   H1589     1.0  0.86435  0.50560  0.03726  1.0000
  H   H1590     1.0  0.85539  0.49342  0.05672  1.0000
  H   H1591     1.0  0.81683  0.49673  0.03282  1.0000
  H   H1592     1.0  0.83934  0.52165  0.02462  1.0000
  H   H1593     1.0  0.81284  0.52250  0.03498  1.0000
  H   H1594     1.0  0.80503  0.48034  0.05953  1.0000
  H   H1595     1.0  0.80039  0.50574  0.06202  1.0000
  H   H1596     1.0  0.81832  0.49358  0.07110  1.0000
  N   N103      1.0  0.61458  0.42917  0.15215  1.0000
  C   C983      1.0  0.59127  0.43051  0.15446  1.0000
  C   C984      1.0  0.62074  0.42696  0.16611  1.0000
  C   C985      1.0  0.62978  0.44932  0.14111  1.0000
  C   C986      1.0  0.61655  0.40976  0.14690  1.0000
  H   H1597     1.0  0.58609  0.43212  0.14415  1.0000
  H   H1598     1.0  0.58908  0.44490  0.15851  1.0000
  H   H1599     1.0  0.57936  0.41543  0.16267  1.0000
  H   H1600     1.0  0.63812  0.42553  0.16480  1.0000
  H   H1601     1.0  0.61978  0.44144  0.17035  1.0000
  H   H1602     1.0  0.60955  0.41198  0.17470  1.0000
  H   H1603     1.0  0.64749  0.44877  0.13916  1.0000
  H   H1604     1.0  0.62873  0.46437  0.14462  1.0000
  H   H1605     1.0  0.62596  0.45125  0.13033  1.0000
  H   H1606     1.0  0.63370  0.40771  0.14557  1.0000
  H   H1607     1.0  0.61308  0.41116  0.13606  1.0000
  H   H1608     1.0  0.60481  0.39433  0.15473  1.0000
  N   N104      1.0  0.78383  0.59856  0.07639  1.0000
  C   C987      1.0  0.78154  0.60641  0.06147  1.0000
  C   C988      1.0  0.65091  0.33989  0.06753  1.0000
  H   H1609     1.0  0.71701  0.39358  0.11301  1.0000
  H   H1610     1.0  0.62594  0.43715  0.03828  1.0000
  N   N105      1.0  0.93676  0.65588  0.03045  1.0000
  C   C989      1.0  0.55648  0.37703  0.10542  1.0000
  H   H1611     1.0  0.76691  0.59636  0.09847  1.0000
  H   H1612     1.0  0.51316  0.35619  0.10992  1.0000
  C   C990      1.0  0.95554  0.61187  0.99871  1.0000
  H   H1613     1.0  0.79507  0.60409  0.05318  1.0000
  H   H1614     1.0  0.74897  0.59294  0.08669  1.0000
  C   C991      1.0  0.64144  0.43285  0.03365  1.0000
  H   H1615     1.0  0.76626  0.61987  0.08486  1.0000
  H   H1616     1.0  0.64425  0.35855  0.21519  1.0000
  C   C992      1.0  0.73721  0.35308  0.17844  1.0000
  H   H1617     1.0  0.80798  0.60576  0.08839  1.0000
  H   H1618     1.0  0.79608  0.57161  0.07185  1.0000
  C   C993      1.0  0.67931  0.36465  0.13113  1.0000
  H   H1619     1.0  0.95411  0.65767  0.22713  1.0000
  H   H1620     1.0  0.73529  0.37662  0.11631  1.0000
  H   H1621     1.0  0.64378  0.42047  0.04270  1.0000
  H   H1622     1.0  0.72091  0.34105  0.13617  1.0000
  N   N106      1.0  0.66102  0.45247  0.02773  1.0000
  C   C994      1.0  0.65712  0.46849  0.01581  1.0000
  H   H1623     1.0  0.68469  0.43381  0.03072  1.0000
  C   C995      1.0  0.82217  0.50332  0.21949  1.0000
  H   H1624     1.0  0.60614  0.35754  0.04216  1.0000
  H   H1625     1.0  0.67900  0.47763  0.03548  1.0000
  H   H1626     1.0  0.93933  0.64435  0.21627  1.0000
  H   H1627     1.0  0.78273  0.62436  0.05849  1.0000
  S   S408      1.0  0.56044  0.34719  0.17958  1.0000
  H   H1628     1.0  0.76645  0.56493  0.07879  1.0000
  H   H1629     1.0  0.92790  0.62070  0.03965  1.0000
  H   H1630     1.0  0.66270  0.34338  0.18873  1.0000
  H   H1631     1.0  0.67808  0.36562  0.19400  1.0000
  C   C996      1.0  0.71766  0.37622  0.11658  1.0000
  H   H1632     1.0  0.96531  0.64415  0.02348  1.0000
  Fe  Fe205     1.0  0.58731  0.34696  0.16072  1.0000
  C   C997      1.0  0.95654  0.65623  0.01915  1.0000
  C   C998      1.0  0.53293  0.39927  0.09772  1.0000
  H   H1633     1.0  0.51914  0.35137  0.20682  1.0000
  H   H1634     1.0  0.90543  0.63292  0.04365  1.0000
  C   C999      1.0  0.90125  0.65569  0.22478  1.0000
  N   N107      1.0  0.91897  0.65499  0.23238  1.0000
  C   C1000     1.0  0.70376  0.34174  0.13568  1.0000
  C   C1001     1.0  0.92053  0.63388  0.03508  1.0000
  H   H1635     1.0  0.95192  0.65204  0.00951  1.0000
  H   H1636     1.0  0.52914  0.39003  0.08974  1.0000
  H   H1637     1.0  0.66729  0.35559  0.14200  1.0000
  C   C1002     1.0  0.67803  0.34289  0.22015  1.0000
  H   H1638     1.0  0.69448  0.33953  0.21681  1.0000
  H   H1639     1.0  0.67405  0.35669  0.12292  1.0000
  C   C1003     1.0  0.64165  0.34067  0.21610  1.0000
  H   H1640     1.0  0.92077  0.66955  0.01470  1.0000
  Fe  Fe206     1.0  0.82460  0.54905  0.36145  1.0000
  S   S409      1.0  0.81112  0.57006  0.37462  1.0000
  S   S410      1.0  0.85662  0.53988  0.36147  1.0000
  Fe  Fe207     1.0  0.78393  0.53960  0.35000  1.0000
  S   S411      1.0  0.76686  0.55899  0.36260  1.0000
  S   S412      1.0  0.76757  0.52615  0.33455  1.0000
  Fe  Fe208     1.0  0.80041  0.58376  0.35473  1.0000
  S   S413      1.0  0.80074  0.61782  0.34299  1.0000
  Fe  Fe209     1.0  0.77901  0.54295  0.38109  1.0000
  S   S414      1.0  0.75703  0.53027  0.40445  1.0000
  S   S415      1.0  0.81690  0.56513  0.34103  1.0000
  S   S416      1.0  0.79319  0.52116  0.36899  1.0000
  H   H1641     1.0  0.84429  0.61840  0.34769  1.0000
  Fe  Fe210     1.0  0.84634  0.52092  0.27344  1.0000
  S   S417      1.0  0.83611  0.49343  0.29410  1.0000
  S   S418      1.0  0.94341  0.61702  0.35097  1.0000
  H   H1642     1.0  0.81977  0.60490  0.31508  1.0000
  C   C1004     1.0  0.57061  0.35422  0.45082  1.0000
  S   S419      1.0  0.85878  0.55543  0.27447  1.0000
  H   H1643     1.0  0.93503  0.66235  0.34191  1.0000
  Fe  Fe211     1.0  0.68143  0.36140  0.47090  1.0000
  S   S420      1.0  0.68030  0.38220  0.44946  1.0000
  N   N108      1.0  0.81749  0.45452  0.25667  1.0000
  S   S421      1.0  0.98537  0.58248  0.33709  1.0000
  S   S422      1.0  0.67694  0.42146  0.46616  1.0000
  H   H1644     1.0  0.81249  0.54143  0.41935  1.0000
  Fe  Fe212     1.0  0.65362  0.39259  0.46297  1.0000
  S   S423      1.0  0.62136  0.39619  0.45823  1.0000
  Fe  Fe213     1.0  0.70386  0.40932  0.45415  1.0000
  S   S424      1.0  0.73438  0.42819  0.43552  1.0000
  S   S425      1.0  0.65262  0.36939  0.48395  1.0000
  S   S426      1.0  0.70731  0.38756  0.47451  1.0000
  H   H1645     1.0  0.82085  0.51659  0.38853  1.0000
  H   H1646     1.0  0.96573  0.60347  0.28554  1.0000
  H   H1647     1.0  0.66214  0.43326  0.43475  1.0000
  H   H1648     1.0  0.80809  0.56727  0.31129  1.0000
  H   H1649     1.0  0.78261  0.44428  0.25757  1.0000
  H   H1650     1.0  0.89776  0.52594  0.30074  1.0000
  C   C1005     1.0  0.95635  0.56818  0.28975  1.0000
  H   H1651     1.0  0.94440  0.53383  0.29106  1.0000
  C   C1006     1.0  0.81550  0.43735  0.27009  1.0000
  S   S427      1.0  0.97203  0.61830  0.31264  1.0000
  C   C1007     1.0  0.95652  0.58962  0.28276  1.0000
  H   H1652     1.0  0.76187  0.57290  0.31893  1.0000
  H   H1653     1.0  0.93516  0.64106  0.32381  1.0000
  C   C1008     1.0  0.58304  0.37115  0.45514  1.0000
  C   C1009     1.0  0.60614  0.37459  0.45297  1.0000
  C   C1010     1.0  0.61679  0.36101  0.44645  1.0000
  H   H1654     1.0  0.76946  0.59983  0.32187  1.0000
  C   C1011     1.0  0.79940  0.44716  0.25003  1.0000
  H   H1655     1.0  0.57469  0.38159  0.46017  1.0000
  H   H1656     1.0  0.63460  0.36355  0.44468  1.0000
  H   H1657     1.0  0.71204  0.46715  0.40438  1.0000
  C   C1012     1.0  0.93300  0.57546  0.26813  1.0000
  C   C1013     1.0  0.93272  0.55403  0.27518  1.0000
  C   C1014     1.0  0.94448  0.55045  0.28583  1.0000
  C   C1015     1.0  0.94513  0.59324  0.27189  1.0000
  H   H1658     1.0  0.92390  0.54025  0.27214  1.0000
  S   S428      1.0  0.91967  0.58071  0.25395  1.0000
  C   C1016     1.0  0.75080  0.50193  0.41327  1.0000
  C   C1017     1.0  0.76286  0.48878  0.40744  1.0000
  C   C1018     1.0  0.75791  0.46630  0.41459  1.0000
  C   C1019     1.0  0.74072  0.45672  0.42760  1.0000
  C   C1020     1.0  0.72871  0.46982  0.43361  1.0000
  C   C1021     1.0  0.73383  0.49244  0.42646  1.0000
  H   H1659     1.0  0.77614  0.49588  0.39748  1.0000
  H   H1660     1.0  0.76725  0.45622  0.40992  1.0000
  H   H1661     1.0  0.71561  0.46258  0.44376  1.0000
  H   H1662     1.0  0.72460  0.50262  0.43111  1.0000
  C   C1022     1.0  0.88047  0.56177  0.35819  1.0000
  C   C1023     1.0  0.87879  0.58287  0.35852  1.0000
  C   C1024     1.0  0.89816  0.59983  0.35640  1.0000
  C   C1025     1.0  0.91922  0.59585  0.35353  1.0000
  C   C1026     1.0  0.92083  0.57487  0.35288  1.0000
  C   C1027     1.0  0.90148  0.55779  0.35545  1.0000
  H   H1663     1.0  0.86264  0.58612  0.36054  1.0000
  H   H1664     1.0  0.89683  0.61607  0.35683  1.0000
  H   H1665     1.0  0.93698  0.57163  0.35076  1.0000
  H   H1666     1.0  0.90289  0.54149  0.35526  1.0000
  C   C1028     1.0  0.78554  0.51522  0.32394  1.0000
  C   C1029     1.0  0.78353  0.51456  0.31002  1.0000
  C   C1030     1.0  0.79886  0.50741  0.30096  1.0000
  C   C1031     1.0  0.81567  0.50011  0.30602  1.0000
  C   C1032     1.0  0.81714  0.49989  0.32018  1.0000
  C   C1033     1.0  0.80235  0.50791  0.32905  1.0000
  H   H1667     1.0  0.77049  0.52012  0.30608  1.0000
  H   H1668     1.0  0.79755  0.50746  0.29008  1.0000
  H   H1669     1.0  0.83001  0.49403  0.32412  1.0000
  H   H1670     1.0  0.80382  0.50826  0.33985  1.0000
  C   C1034     1.0  0.82731  0.63638  0.33452  1.0000
  H   H1671     1.0  0.79918  0.43395  0.27830  1.0000
  C   C1035     1.0  0.70597  0.44976  0.40417  1.0000
  C   C1036     1.0  0.80206  0.57538  0.30218  1.0000
  H   H1672     1.0  0.69055  0.43247  0.43311  1.0000
  C   C1037     1.0  0.84603  0.63284  0.33897  1.0000
  H   H1673     1.0  0.65018  0.44482  0.41222  1.0000
  C   C1038     1.0  0.58135  0.34100  0.44399  1.0000
  C   C1039     1.0  0.67970  0.44106  0.42788  1.0000
  H   H1674     1.0  0.87206  0.64863  0.26835  1.0000
  S   S429      1.0  0.96992  0.56266  0.30379  1.0000
  Fe  Fe214     1.0  0.88598  0.55882  0.25465  1.0000
  C   C1040     1.0  0.81005  0.52986  0.41255  1.0000
  H   H1675     1.0  0.85227  0.55634  0.40430  1.0000
  H   H1676     1.0  0.82542  0.49800  0.42633  1.0000
  C   C1041     1.0  0.83831  0.51340  0.41931  1.0000
  H   H1677     1.0  0.68446  0.45846  0.42830  1.0000
  C   C1042     1.0  0.84843  0.54450  0.39786  1.0000
  H   H1678     1.0  0.84161  0.52441  0.42636  1.0000
  H   H1679     1.0  0.55281  0.35173  0.45251  1.0000
  C   C1043     1.0  0.91292  0.63346  0.24351  1.0000
  H   H1680     1.0  0.86924  0.56754  0.30998  1.0000
  C   C1044     1.0  0.67547  0.41641  0.41277  1.0000
  H   H1681     1.0  0.94580  0.60991  0.26635  1.0000
  C   C1045     1.0  0.77605  0.58618  0.31919  1.0000
  C   C1046     1.0  0.60444  0.34443  0.44183  1.0000
  N   N109      1.0  0.88402  0.54141  0.31653  1.0000
  C   C1047     1.0  0.90570  0.55668  0.31529  1.0000
  C   C1048     1.0  0.86615  0.55248  0.31912  1.0000
  C   C1049     1.0  0.87936  0.52153  0.32885  1.0000
  H   H1682     1.0  0.91931  0.54838  0.31438  1.0000
  H   H1683     1.0  0.90518  0.56302  0.32504  1.0000
  H   H1684     1.0  0.84953  0.54143  0.32014  1.0000
  H   H1685     1.0  0.86497  0.55755  0.32941  1.0000
  H   H1686     1.0  0.86272  0.51006  0.33054  1.0000
  H   H1687     1.0  0.87952  0.52588  0.33924  1.0000
  H   H1688     1.0  0.89213  0.51239  0.32694  1.0000
  H   H1689     1.0  0.82902  0.48104  0.26561  1.0000
  S   S430      1.0  0.81799  0.58715  0.26169  1.0000
  C   C1050     1.0  0.81241  0.61128  0.30618  1.0000
  H   H1690     1.0  0.84164  0.44342  0.24323  1.0000
  H   H1691     1.0  0.77095  0.59064  0.29193  1.0000
  H   H1692     1.0  0.81742  0.48841  0.25061  1.0000
  C   C1051     1.0  0.82493  0.63107  0.25031  1.0000
  H   H1693     1.0  0.85499  0.60873  0.27146  1.0000
  H   H1694     1.0  0.67687  0.41476  0.40150  1.0000
  N   N110      1.0  0.83087  0.52420  0.40690  1.0000
  H   H1695     1.0  0.85397  0.50889  0.41539  1.0000
  C   C1052     1.0  0.85200  0.65987  0.25462  1.0000
  C   C1053     1.0  0.82965  0.65514  0.32325  1.0000
  H   H1696     1.0  0.89716  0.63086  0.25199  1.0000
  C   C1054     1.0  0.85911  0.64375  0.26319  1.0000
  C   C1055     1.0  0.78468  0.60332  0.29324  1.0000
  H   H1697     1.0  0.77806  0.61727  0.29523  1.0000
  H   H1698     1.0  0.82887  0.44259  0.27536  1.0000
  C   C1056     1.0  0.98775  0.66942  0.28008  1.0000
  H   H1699     1.0  0.98073  0.65303  0.28740  1.0000
  C   C1057     1.0  0.84952  0.62121  0.26490  1.0000
  H   H1700     1.0  0.88122  0.64611  0.33627  1.0000
  Fe  Fe215     1.0  0.98588  0.58934  0.31318  1.0000
  H   H1701     1.0  0.68616  0.40698  0.41755  1.0000
  C   C1058     1.0  0.86690  0.64852  0.33251  1.0000
  H   H1702     1.0  0.65784  0.40821  0.41941  1.0000
  H   H1703     1.0  0.80057  0.45973  0.23982  1.0000
  Fe  Fe216     1.0  0.67831  0.39718  0.48618  1.0000
  S   S431      1.0  0.82339  0.52896  0.25984  1.0000
  H   H1704     1.0  0.71705  0.44055  0.40867  1.0000
  H   H1705     1.0  0.79772  0.60969  0.28256  1.0000
  H   H1706     1.0  0.66958  0.45116  0.39450  1.0000
  H   H1707     1.0  0.70851  0.44978  0.39250  1.0000
  C   C1059     1.0  0.88491  0.53491  0.30284  1.0000
  H   H1708     1.0  0.86860  0.52389  0.30324  1.0000
  H   H1709     1.0  0.80665  0.62546  0.30864  1.0000
  H   H1710     1.0  0.88915  0.54955  0.29321  1.0000
  H   H1711     1.0  0.85344  0.46523  0.25044  1.0000
  C   C1060     1.0  0.82668  0.50898  0.39788  1.0000
  H   H1712     1.0  0.81364  0.49338  0.40433  1.0000
  H   H1713     1.0  0.84213  0.50474  0.39311  1.0000
  H   H1714     1.0  0.84325  0.55316  0.38848  1.0000
  H   H1715     1.0  0.80391  0.53793  0.40347  1.0000
  N   N111      1.0  0.79381  0.59403  0.30520  1.0000
  H   H1716     1.0  0.95872  0.66914  0.27191  1.0000
  C   C1061     1.0  0.83938  0.45866  0.24609  1.0000
  H   H1717     1.0  0.81684  0.42160  0.26766  1.0000
  H   H1718     1.0  0.82601  0.61782  0.29575  1.0000
  H   H1719     1.0  0.80015  0.43167  0.24703  1.0000
  H   H1720     1.0  0.81603  0.58083  0.29198  1.0000
  C   C1062     1.0  0.81571  0.47504  0.26049  1.0000
  Fe  Fe217     1.0  0.83915  0.56404  0.25871  1.0000
  C   C1063     1.0  0.66812  0.45186  0.40597  1.0000
  C   C1064     1.0  0.93870  0.65684  0.31517  1.0000
  H   H1721     1.0  0.78865  0.56250  0.30075  1.0000
  H   H1722     1.0  0.78239  0.57925  0.32846  1.0000
  C   C1065     1.0  0.83496  0.65340  0.24820  1.0000
  C   C1066     1.0  0.83236  0.61493  0.25844  1.0000
  H   H1723     1.0  0.91063  0.57118  0.30548  1.0000
  H   H1724     1.0  0.86423  0.54082  0.39307  1.0000
  H   H1725     1.0  0.79634  0.51495  0.41935  1.0000
  S   S432      1.0  0.87484  0.52326  0.25473  1.0000
  N   N112      1.0  0.68232  0.43978  0.41268  1.0000
  Fe  Fe218     1.0  0.97328  0.61281  0.33591  1.0000
  H   H1726     1.0  0.67299  0.46958  0.40569  1.0000
  H   H1727     1.0  0.79933  0.47276  0.26833  1.0000
  H   H1728     1.0  0.92615  0.63197  0.24922  1.0000
  H   H1729     1.0  0.94763  0.65488  0.30464  1.0000
  H   H1730     1.0  0.92232  0.65915  0.31400  1.0000
  H   H1731     1.0  0.97022  0.65650  0.32973  1.0000
  Fe  Fe219     1.0  0.85239  0.53336  0.24081  1.0000
  H   H1732     1.0  0.81519  0.65802  0.31985  1.0000
  H   H1733     1.0  0.82937  0.66576  0.24159  1.0000
  H   H1734     1.0  0.61902  0.42248  0.48520  1.0000
  H   H1735     1.0  0.81147  0.62631  0.24550  1.0000
  C   C1067     1.0  0.85063  0.67039  0.31643  1.0000
  C   C1068     1.0  0.86919  0.66732  0.32124  1.0000
  H   H1736     1.0  0.98296  0.66924  0.31055  1.0000
  H   H1737     1.0  0.91040  0.61955  0.23849  1.0000
  S   S433      1.0  0.86680  0.56957  0.23857  1.0000
  C   C1069     1.0  0.97310  0.67155  0.32068  1.0000
  H   H1738     1.0  0.58780  0.41478  0.52373  1.0000
  S   S434      1.0  0.60456  0.40528  0.55128  1.0000
  Fe  Fe220     1.0  0.72817  0.40112  0.59114  1.0000
  S   S435      1.0  0.71622  0.42159  0.60542  1.0000
  S   S436      1.0  0.72362  0.36485  0.60039  1.0000
  Fe  Fe221     1.0  0.73374  0.43568  0.56300  1.0000
  S   S437      1.0  0.72234  0.45890  0.57504  1.0000
  S   S438      1.0  0.74157  0.44390  0.53820  1.0000
  Fe  Fe222     1.0  0.74441  0.45009  0.58962  1.0000
  S   S439      1.0  0.76385  0.47957  0.59606  1.0000
  Fe  Fe223     1.0  0.69568  0.42884  0.58976  1.0000
  S   S440      1.0  0.65851  0.42467  0.59700  1.0000
  S   S441      1.0  0.75780  0.42881  0.57627  1.0000
  S   S442      1.0  0.70573  0.40649  0.57690  1.0000
  H   H1739     1.0  0.89196  0.50521  0.59528  1.0000
  H   H1740     1.0  0.69860  0.36819  0.50571  1.0000
  H   H1741     1.0  0.88541  0.55142  0.56750  1.0000
  S   S443      1.0  0.97697  0.60407  0.69201  1.0000
  Fe  Fe224     1.0  0.85531  0.53848  0.63637  1.0000
  S   S444      1.0  0.85840  0.57409  0.62561  1.0000
  S   S445      1.0  0.83580  0.50798  0.63095  1.0000
  Fe  Fe225     1.0  0.89295  0.55220  0.65158  1.0000
  S   S446      1.0  0.89820  0.58807  0.64159  1.0000
  S   S447      1.0  0.91747  0.54183  0.66385  1.0000
  Fe  Fe226     1.0  0.86102  0.58007  0.64720  1.0000
  S   S448      1.0  0.84722  0.60643  0.65439  1.0000
  Fe  Fe227     1.0  0.89529  0.57887  0.62117  1.0000
  S   S449      1.0  0.92046  0.59956  0.60018  1.0000
  S   S450      1.0  0.85521  0.54407  0.65870  1.0000
  S   S451      1.0  0.89263  0.54333  0.63054  1.0000
  C   C1070     1.0  0.86190  0.62051  0.66458  1.0000
  C   C1071     1.0  0.87518  0.61093  0.67231  1.0000
  H   H1742     1.0  0.71546  0.45717  0.62260  1.0000
  H   H1743     1.0  0.99589  0.63670  0.63863  1.0000
  H   H1744     1.0  0.93400  0.64855  0.61083  1.0000
  C   C1072     1.0  0.60177  0.41946  0.51359  1.0000
  H   H1745     1.0  0.87642  0.59455  0.67218  1.0000
  C   C1073     1.0  0.87155  0.65308  0.67315  1.0000
  H   H1746     1.0  0.95147  0.66153  0.62052  1.0000
  H   H1747     1.0  0.84990  0.64911  0.65906  1.0000
  C   C1074     1.0  0.96133  0.58694  0.68362  1.0000
  C   C1075     1.0  0.96486  0.56666  0.68267  1.0000
  C   C1076     1.0  0.95150  0.55319  0.67643  1.0000
  C   C1077     1.0  0.93444  0.55979  0.67107  1.0000
  C   C1078     1.0  0.93089  0.58009  0.67204  1.0000
  C   C1079     1.0  0.94407  0.59343  0.67844  1.0000
  H   H1748     1.0  0.95400  0.53728  0.67606  1.0000
  H   H1749     1.0  0.91755  0.58521  0.66824  1.0000
  H   H1750     1.0  0.94073  0.60880  0.67942  1.0000
  C   C1080     1.0  0.88594  0.62205  0.68086  1.0000
  C   C1081     1.0  0.93953  0.62691  0.72963  1.0000
  Fe  Fe228     1.0  0.51904  0.36955  0.56550  1.0000
  H   H1751     1.0  0.57786  0.40915  0.49505  1.0000
  Fe  Fe229     1.0  0.57028  0.38100  0.55832  1.0000
  H   H1752     1.0  0.57941  0.38121  0.49786  1.0000
  H   H1753     1.0  0.75891  0.43789  0.63751  1.0000
  C   C1082     1.0  0.98673  0.61169  0.61196  1.0000
  C   C1083     1.0  0.98507  0.62499  0.59899  1.0000
  C   C1084     1.0  0.96480  0.62113  0.59513  1.0000
  C   C1085     1.0  0.94631  0.60402  0.60428  1.0000
  C   C1086     1.0  0.94821  0.59071  0.61712  1.0000
  C   C1087     1.0  0.96828  0.59458  0.62099  1.0000
  H   H1754     1.0  0.71762  0.35254  0.50984  1.0000
  H   H1755     1.0  0.96345  0.63143  0.58515  1.0000
  H   H1756     1.0  0.93428  0.57719  0.62412  1.0000
  H   H1757     1.0  0.96940  0.58416  0.63101  1.0000
  C   C1088     1.0  0.72622  0.35937  0.57286  1.0000
  C   C1089     1.0  0.99232  0.63612  0.65042  1.0000
  C   C1090     1.0  0.78507  0.48739  0.60498  1.0000
  C   C1091     1.0  0.79574  0.47260  0.61138  1.0000
  C   C1092     1.0  0.81109  0.47923  0.61923  1.0000
  C   C1093     1.0  0.81626  0.50077  0.62077  1.0000
  C   C1094     1.0  0.80580  0.51565  0.61422  1.0000
  C   C1095     1.0  0.79037  0.50899  0.60642  1.0000
  H   H1758     1.0  0.79211  0.45598  0.61035  1.0000
  H   H1759     1.0  0.81905  0.46751  0.62417  1.0000
  H   H1760     1.0  0.80937  0.53223  0.61531  1.0000
  H   H1761     1.0  0.78223  0.52064  0.60163  1.0000
  H   H1762     1.0  0.73599  0.37645  0.56867  1.0000
  C   C1096     1.0  0.61897  0.40904  0.56453  1.0000
  C   C1097     1.0  0.64237  0.41595  0.56012  1.0000
  C   C1098     1.0  0.65452  0.42015  0.57013  1.0000
  C   C1099     1.0  0.64338  0.41807  0.58458  1.0000
  C   C1100     1.0  0.61993  0.41091  0.58908  1.0000
  C   C1101     1.0  0.60774  0.40618  0.57912  1.0000
  H   H1763     1.0  0.65107  0.41811  0.54889  1.0000
  H   H1764     1.0  0.67251  0.42551  0.56660  1.0000
  H   H1765     1.0  0.61117  0.40924  0.60025  1.0000
  H   H1766     1.0  0.58967  0.40100  0.58261  1.0000
  C   C1102     1.0  0.69151  0.40991  0.51705  1.0000
  C   C1103     1.0  0.71237  0.42369  0.50835  1.0000
  C   C1104     1.0  0.72796  0.43351  0.51496  1.0000
  C   C1105     1.0  0.72283  0.42944  0.53025  1.0000
  C   C1106     1.0  0.70218  0.41514  0.53884  1.0000
  C   C1107     1.0  0.68663  0.40543  0.53228  1.0000
  H   H1767     1.0  0.74392  0.44453  0.50820  1.0000
  H   H1768     1.0  0.69782  0.41197  0.55050  1.0000
  H   H1769     1.0  0.67055  0.39468  0.53906  1.0000
  N   N113      1.0  0.69202  0.48085  0.53272  1.0000
  C   C1108     1.0  0.69440  0.47137  0.54739  1.0000
  C   C1109     1.0  0.71411  0.48786  0.52185  1.0000
  C   C1110     1.0  0.68310  0.50009  0.53289  1.0000
  C   C1111     1.0  0.67648  0.46408  0.52880  1.0000
  H   H1770     1.0  0.67815  0.46614  0.55596  1.0000
  H   H1771     1.0  0.70634  0.48343  0.55059  1.0000
  H   H1772     1.0  0.70088  0.45667  0.54771  1.0000
  H   H1773     1.0  0.71305  0.49514  0.51063  1.0000
  H   H1774     1.0  0.72638  0.50025  0.52459  1.0000
  H   H1775     1.0  0.72126  0.47369  0.52145  1.0000
  H   H1776     1.0  0.69440  0.51302  0.53587  1.0000
  H   H1777     1.0  0.66644  0.49531  0.54101  1.0000
  H   H1778     1.0  0.68109  0.50770  0.52198  1.0000
  H   H1779     1.0  0.67435  0.47058  0.51776  1.0000
  H   H1780     1.0  0.65965  0.45835  0.53681  1.0000
  H   H1781     1.0  0.68273  0.44933  0.52860  1.0000
  N   N114      1.0  0.60144  0.40114  0.50681  1.0000
  H   H1782     1.0  0.91420  0.62334  0.71056  1.0000
  H   H1783     1.0  0.65630  0.37676  0.59444  1.0000
  H   H1784     1.0  0.86276  0.50380  0.60106  1.0000
  H   H1785     1.0  0.89468  0.52683  0.57013  1.0000
  H   H1786     1.0  0.88141  0.51460  0.61068  1.0000
  N   N115      1.0  0.99599  0.65850  0.65236  1.0000
  C   C1112     1.0  0.58016  0.39508  0.50294  1.0000
  H   H1787     1.0  0.72914  0.35447  0.55142  1.0000
  H   H1788     1.0  0.67790  0.35202  0.57468  1.0000
  H   H1789     1.0  0.97012  0.66413  0.69725  1.0000
  H   H1790     1.0  0.86541  0.52488  0.57579  1.0000
  H   H1791     1.0  0.62539  0.36846  0.58298  1.0000
  H   H1792     1.0  0.71100  0.44771  0.66235  1.0000
  H   H1793     1.0  0.71630  0.42722  0.49656  1.0000
  H   H1794     1.0  0.97475  0.62609  0.65572  1.0000
  H   H1795     1.0  0.69983  0.43208  0.63653  1.0000
  S   S452      1.0  0.57035  0.34665  0.55774  1.0000
  H   H1796     1.0  0.90923  0.55119  0.59920  1.0000
  C   C1113     1.0  0.93215  0.65989  0.71681  1.0000
  C   C1114     1.0  0.72235  0.34687  0.56308  1.0000
  S   S453      1.0  0.67040  0.39902  0.50947  1.0000
  H   H1797     1.0  0.61749  0.42408  0.51684  1.0000
  S   S454      1.0  0.54311  0.37030  0.57933  1.0000
  C   C1115     1.0  0.72183  0.43906  0.65665  1.0000
  H   H1798     1.0  0.97498  0.64680  0.67445  1.0000
  H   H1799     1.0  0.73313  0.48197  0.64383  1.0000
  H   H1800     1.0  0.00315  0.62710  0.65531  1.0000
  H   H1801     1.0  0.91094  0.56670  0.58124  1.0000
  C   C1116     1.0  0.71007  0.44924  0.63467  1.0000
  H   H1802     1.0  0.73439  0.41977  0.63585  1.0000
  C   C1117     1.0  0.86023  0.64166  0.66496  1.0000
  H   H1803     1.0  0.75860  0.47375  0.64092  1.0000
  S   S455      1.0  0.54649  0.38392  0.54441  1.0000
  H   H1804     1.0  0.92014  0.54203  0.58381  1.0000
  H   H1805     1.0  0.94762  0.61344  0.72865  1.0000
  C   C1118     1.0  0.88410  0.64312  0.68134  1.0000
  N   N116      1.0  0.72954  0.44960  0.64069  1.0000
  C   C1119     1.0  0.93438  0.65138  0.62168  1.0000
  H   H1806     1.0  0.58988  0.37634  0.52749  1.0000
  H   H1807     1.0  0.60338  0.36767  0.51259  1.0000
  H   H1808     1.0  0.86811  0.54739  0.60716  1.0000
  C   C1120     1.0  0.96702  0.65198  0.70802  1.0000
  H   H1809     1.0  0.89387  0.64617  0.61670  1.0000
  H   H1810     1.0  0.97713  0.56086  0.68740  1.0000
  N   N117      1.0  0.94285  0.64216  0.71510  1.0000
  C   C1121     1.0  0.00448  0.56791  0.64546  1.0000
  C   C1122     1.0  0.65394  0.35869  0.59859  1.0000
  C   C1123     1.0  0.99210  0.65715  0.66808  1.0000
  C   C1124     1.0  0.62021  0.40809  0.49342  1.0000
  H   H1811     1.0  0.52255  0.34600  0.61144  1.0000
  C   C1125     1.0  0.68253  0.34327  0.53328  1.0000
  H   H1812     1.0  0.92145  0.61905  0.73519  1.0000
  N   N118      1.0  0.64519  0.34667  0.58881  1.0000
  H   H1813     1.0  0.97560  0.63916  0.70620  1.0000
  H   H1814     1.0  0.56555  0.38957  0.51278  1.0000
  H   H1815     1.0  0.51516  0.35094  0.62904  1.0000
  C   C1126     1.0  0.60375  0.38192  0.51725  1.0000
  C   C1127     1.0  0.66134  0.35461  0.57414  1.0000
  H   H1816     1.0  0.67048  0.35634  0.59953  1.0000
  H   H1817     1.0  0.93931  0.61555  0.70511  1.0000
  C   C1128     1.0  0.98029  0.66927  0.64649  1.0000
  H   H1818     1.0  0.62030  0.39460  0.48808  1.0000
  H   H1819     1.0  0.88138  0.65581  0.63156  1.0000
  H   H1820     1.0  0.74705  0.48169  0.62596  1.0000
  H   H1821     1.0  0.66409  0.37260  0.56927  1.0000
  C   C1129     1.0  0.71825  0.34955  0.58798  1.0000
  H   H1822     1.0  0.87132  0.56452  0.58924  1.0000
  N   N119      1.0  0.88440  0.53639  0.58972  1.0000
  C   C1130     1.0  0.86789  0.54715  0.59584  1.0000
  C   C1131     1.0  0.90717  0.54959  0.58839  1.0000
  C   C1132     1.0  0.88241  0.53482  0.57512  1.0000
  C   C1133     1.0  0.88001  0.51402  0.59955  1.0000
  H   H1823     1.0  0.85058  0.53816  0.59646  1.0000
  H   H1824     1.0  0.71200  0.42155  0.65924  1.0000
  H   H1825     1.0  0.69900  0.34544  0.53578  1.0000
  H   H1826     1.0  0.61965  0.38592  0.52040  1.0000
  H   H1827     1.0  0.73622  0.43926  0.66148  1.0000
  H   H1828     1.0  0.97526  0.66097  0.71482  1.0000
  H   H1829     1.0  0.69903  0.45831  0.63970  1.0000
  H   H1830     1.0  0.64237  0.35304  0.60982  1.0000
  C   C1134     1.0  0.74362  0.43737  0.63364  1.0000
  C   C1135     1.0  0.74265  0.47271  0.63777  1.0000
  H   H1831     1.0  0.00412  0.64981  0.67283  1.0000
  H   H1832     1.0  0.89542  0.61413  0.68728  1.0000
  H   H1833     1.0  0.74921  0.44446  0.62156  1.0000
  S   S456      1.0  0.89618  0.65589  0.69311  1.0000
  H   H1834     1.0  0.93169  0.63492  0.62941  1.0000
  H   H1835     1.0  0.60023  0.43433  0.50602  1.0000
  H   H1836     1.0  0.99394  0.55089  0.65154  1.0000
  H   H1837     1.0  0.67864  0.35944  0.53185  1.0000
  H   H1838     1.0  0.91402  0.64846  0.64961  1.0000
  H   H1839     1.0  0.61100  0.34505  0.59852  1.0000
  H   H1840     1.0  0.99428  0.57937  0.64774  1.0000
  C   C1136     1.0  0.70099  0.35136  0.50768  1.0000
  C   C1137     1.0  0.93266  0.62987  0.70595  1.0000
  H   H1841     1.0  0.93577  0.64056  0.69466  1.0000
  H   H1842     1.0  0.99936  0.63810  0.59188  1.0000
  H   H1843     1.0  0.65545  0.34582  0.56648  1.0000
  H   H1844     1.0  0.63658  0.41266  0.49589  1.0000
  C   C1138     1.0  0.62355  0.35063  0.58763  1.0000
  H   H1845     1.0  0.89103  0.63178  0.63522  1.0000
  C   C1139     1.0  0.89492  0.64847  0.62755  1.0000
  Fe  Fe230     1.0  0.54499  0.34882  0.54493  1.0000
  H   H1846     1.0  0.65747  0.35037  0.51476  1.0000
  H   H1847     1.0  0.70166  0.34630  0.49743  1.0000
  H   H1848     1.0  0.61637  0.34164  0.58043  1.0000
  H   H1849     1.0  0.91384  0.65319  0.72206  1.0000
  C   C1140     1.0  0.91759  0.66471  0.64144  1.0000
  N   N120      1.0  0.91717  0.66218  0.62677  1.0000
  H   H1850     1.0  0.93959  0.66981  0.72346  1.0000
  H   H1851     1.0  0.96263  0.65971  0.65214  1.0000
  H   H1852     1.0  0.86979  0.66918  0.67362  1.0000
  S   S457      1.0  0.55263  0.33996  0.52349  1.0000
  H   H1853     1.0  0.94683  0.63563  0.73689  1.0000
  H   H1854     1.0  0.93420  0.67143  0.70600  1.0000
  H   H1855     1.0  0.98308  0.67106  0.63455  1.0000
  C   C1141     1.0  0.53262  0.33848  0.51344  1.0000
  C   C1142     1.0  0.51143  0.33880  0.62280  1.0000
  H   H1856     1.0  0.55630  0.33878  0.49400  1.0000
  H   H1857     1.0  0.92445  0.60379  0.97503  1.0000
  S   S458      1.0  0.97083  0.62558  0.96861  1.0000
  H   H1858     1.0  0.91346  0.63253  0.95799  1.0000
  C   C1143     1.0  0.90427  0.64032  0.96549  1.0000
  C   C1144     1.0  0.84463  0.64712  0.97478  1.0000
  H   H1859     1.0  0.94883  0.65722  0.95682  1.0000
  S   S459      1.0  0.84117  0.61851  0.98060  1.0000
  H   H1860     1.0  0.85673  0.64939  0.95193  1.0000
  Fe  Fe231     1.0  0.00225  0.64721  0.97039  1.0000
  H   H1861     1.0  0.88774  0.63937  0.96329  1.0000
  C   C1145     1.0  0.85315  0.65844  0.95984  1.0000
  C   C1146     1.0  0.83989  0.65890  0.98494  1.0000
  C   C1147     1.0  0.93952  0.66390  0.96504  1.0000
  N   N121      1.0  0.91687  0.66332  0.96344  1.0000
  H   H1862     1.0  0.90096  0.63003  0.97691  1.0000
  H   H1863     1.0  0.93892  0.65375  0.97603  1.0000
  H   H1864     1.0  0.92752  0.67068  0.93996  1.0000
  H   H1865     1.0  0.90330  0.66233  0.98585  1.0000
  C   C1148     1.0  0.92835  0.60373  0.98532  1.0000
  C   C1149     1.0  0.95037  0.61267  0.98537  1.0000
  H   H1866     1.0  0.67983  0.97987  0.10937  1.0000
  H   H1867     1.0  0.94412  0.79694  0.99903  1.0000
  Fe  Fe232     1.0  0.80816  0.98156  0.10595  1.0000
  H   H1868     1.0  0.97436  0.87429  0.19465  1.0000
  C   C1150     1.0  0.92627  0.67271  0.02432  1.0000
  C   C1151     1.0  0.99677  0.71857  0.02829  1.0000
  S   S460      1.0  0.79766  0.95719  0.12836  1.0000
  H   H1869     1.0  0.53922  0.95982  0.01318  1.0000
  Fe  Fe233     1.0  0.82990  0.94914  0.12032  1.0000
  S   S461      1.0  0.83537  0.91549  0.12472  1.0000
  Fe  Fe234     1.0  0.94772  0.88181  0.14461  1.0000
  S   S462      1.0  0.93032  0.87618  0.16837  1.0000
  Fe  Fe235     1.0  0.94904  0.90203  0.11314  1.0000
  S   S463      1.0  0.96014  0.82505  0.11832  1.0000
  S   S464      1.0  0.93769  0.92662  0.09857  1.0000
  Fe  Fe236     1.0  0.96042  0.85873  0.12141  1.0000
  C   C1152     1.0  0.55168  0.99365  0.99985  1.0000
  H   H1870     1.0  0.56179  0.93558  0.02272  1.0000
  S   S465      1.0  0.92973  0.86931  0.12932  1.0000
  S   S466      1.0  0.96400  0.91552  0.12917  1.0000
  S   S467      1.0  0.83923  0.97188  0.09754  1.0000
  C   C1153     1.0  0.98721  0.83716  0.19352  1.0000
  S   S468      1.0  0.97087  0.94854  0.19664  1.0000
  Fe  Fe237     1.0  0.93920  0.77497  0.05347  1.0000
  S   S469      1.0  0.95231  0.78630  0.02895  1.0000
  S   S470      1.0  0.93707  0.80489  0.06163  1.0000
  Fe  Fe238     1.0  0.92675  0.72656  0.05333  1.0000
  S   S471      1.0  0.93850  0.73469  0.02893  1.0000
  C   C1154     1.0  0.96310  0.00317  0.17596  1.0000
  Fe  Fe239     1.0  0.96783  0.75833  0.03136  1.0000
  H   H1871     1.0  0.68938  0.92458  0.11102  1.0000
  Fe  Fe240     1.0  0.92185  0.76171  0.02906  1.0000
  S   S472      1.0  0.89951  0.76916  0.01485  1.0000
  S   S473      1.0  0.95753  0.74866  0.05593  1.0000
  S   S474      1.0  0.90750  0.75171  0.05332  1.0000
  H   H1872     1.0  0.89359  0.94283  0.13301  1.0000
  Fe  Fe241     1.0  0.70764  0.94288  0.04656  1.0000
  S   S475      1.0  0.71144  0.97914  0.04085  1.0000
  S   S476      1.0  0.73021  0.93022  0.05979  1.0000
  Fe  Fe242     1.0  0.66582  0.93387  0.03430  1.0000
  S   S477      1.0  0.66715  0.96965  0.02873  1.0000
  S   S478      1.0  0.63397  0.91380  0.03097  1.0000
  Fe  Fe243     1.0  0.70394  0.97515  0.02003  1.0000
  H   H1873     1.0  0.60331  0.96191  0.04744  1.0000
  Fe  Fe244     1.0  0.67459  0.96929  0.05021  1.0000
  H   H1874     1.0  0.99377  0.68407  0.03718  1.0000
  S   S479      1.0  0.70280  0.93926  0.02467  1.0000
  S   S480      1.0  0.67046  0.93309  0.05677  1.0000
  H   H1875     1.0  0.96600  0.98964  0.20333  1.0000
  H   H1876     1.0  0.95093  0.80389  0.21003  1.0000
  H   H1877     1.0  0.55849  0.91436  0.04767  1.0000
  H   H1878     1.0  0.99738  0.83701  0.20153  1.0000
  H   H1879     1.0  0.95488  0.00193  0.16708  1.0000
  H   H1880     1.0  0.67704  0.99040  0.99255  1.0000
  H   H1881     1.0  0.99250  0.85423  0.09255  1.0000
  H   H1882     1.0  0.84709  0.97341  0.15816  1.0000
  H   H1883     1.0  0.96029  0.85285  0.17889  1.0000
  H   H1884     1.0  0.54524  0.94827  0.04412  1.0000
  H   H1885     1.0  0.95005  0.86087  0.20984  1.0000
  H   H1886     1.0  0.00420  0.94815  0.12712  1.0000
  C   C1155     1.0  0.60188  0.96075  0.03641  1.0000
  H   H1887     1.0  0.66356  0.92168  0.00167  1.0000
  N   N122      1.0  0.69258  0.95757  0.09871  1.0000
  S   S481      1.0  0.85012  0.99934  0.23715  1.0000
  C   C1156     1.0  0.60084  0.00348  0.05504  1.0000
  C   C1157     1.0  0.62903  0.91138  0.01403  1.0000
  S   S482      1.0  0.99751  0.86382  0.23703  1.0000
  H   H1888     1.0  0.60563  0.97786  0.02932  1.0000
  C   C1158     1.0  0.57508  0.92508  0.04701  1.0000
  H   H1889     1.0  0.91127  0.67284  0.03254  1.0000
  C   C1159     1.0  0.60690  0.90406  0.01338  1.0000
  H   H1890     1.0  0.70310  0.96610  0.07519  1.0000
  N   N123      1.0  0.96466  0.83885  0.19995  1.0000
  C   C1160     1.0  0.86052  0.98342  0.17491  1.0000
  H   H1891     1.0  0.59330  0.89942  0.02323  1.0000
  S   S483      1.0  0.81109  0.99420  0.15607  1.0000
  C   C1161     1.0  0.88204  0.93686  0.14425  1.0000
  C   C1162     1.0  0.56245  0.95800  0.04312  1.0000
  H   H1892     1.0  0.56315  0.95986  0.05414  1.0000
  H   H1893     1.0  0.88596  0.76136  0.98992  1.0000
  H   H1894     1.0  0.97081  0.98928  0.17773  1.0000
  C   C1163     1.0  0.95816  0.98311  0.09725  1.0000
  H   H1895     1.0  0.98680  0.72011  0.03830  1.0000
  H   H1896     1.0  0.88491  0.70979  0.04782  1.0000
  H   H1897     1.0  0.57543  0.92556  0.05833  1.0000
  S   S484      1.0  0.84993  0.97296  0.12925  1.0000
  C   C1164     1.0  0.92238  0.99511  0.12646  1.0000
  H   H1898     1.0  0.58797  0.91693  0.04310  1.0000
  N   N124      1.0  0.57941  0.94748  0.03725  1.0000
  H   H1899     1.0  0.58077  0.96269  0.01495  1.0000
  C   C1165     1.0  0.60213  0.90248  0.00010  1.0000
  C   C1166     1.0  0.96667  0.85952  0.20431  1.0000
  C   C1167     1.0  0.64169  0.91396  0.98813  1.0000
  C   C1168     1.0  0.68061  0.93774  0.11109  1.0000
  C   C1169     1.0  0.64643  0.91645  0.00129  1.0000
  H   H1900     1.0  0.99007  0.82903  0.07709  1.0000
  C   C1170     1.0  0.61712  0.98705  0.07354  1.0000
  Fe  Fe245     1.0  0.98047  0.93545  0.21688  1.0000
  H   H1901     1.0  0.98062  0.98617  0.11754  1.0000
  H   H1902     1.0  0.72524  0.95379  0.09893  1.0000
  H   H1903     1.0  0.98207  0.95587  0.10598  1.0000
  Fe  Fe246     1.0  0.81902  0.98350  0.13525  1.0000
  H   H1904     1.0  0.98273  0.94423  0.16761  1.0000
  H   H1905     1.0  0.93615  0.82066  0.21829  1.0000
  C   C1171     1.0  0.61951  0.90720  0.98740  1.0000
  C   C1172     1.0  0.95200  0.81876  0.10319  1.0000
  C   C1173     1.0  0.94655  0.83439  0.09319  1.0000
  C   C1174     1.0  0.94177  0.82970  0.08060  1.0000
  C   C1175     1.0  0.94247  0.80940  0.07789  1.0000
  C   C1176     1.0  0.94779  0.79367  0.08792  1.0000
  C   C1177     1.0  0.95247  0.79834  0.10058  1.0000
  H   H1906     1.0  0.94611  0.85015  0.09511  1.0000
  H   H1907     1.0  0.93761  0.84192  0.07289  1.0000
  H   H1908     1.0  0.94826  0.77795  0.08594  1.0000
  H   H1909     1.0  0.90501  0.67185  0.21649  1.0000
  C   C1178     1.0  0.96058  0.92759  0.18916  1.0000
  C   C1179     1.0  0.94273  0.89551  0.17642  1.0000
  C   C1180     1.0  0.96068  0.91364  0.16802  1.0000
  C   C1181     1.0  0.96925  0.92992  0.17429  1.0000
  H   H1910     1.0  0.96788  0.91534  0.15665  1.0000
  H   H1911     1.0  0.59129  0.93891  0.01751  1.0000
  H   H1912     1.0  0.70186  0.93834  0.08424  1.0000
  C   C1182     1.0  0.77217  0.97296  0.08204  1.0000
  C   C1183     1.0  0.76318  0.98277  0.07114  1.0000
  C   C1184     1.0  0.75088  0.96999  0.06403  1.0000
  C   C1185     1.0  0.74729  0.94710  0.06770  1.0000
  C   C1186     1.0  0.75682  0.93731  0.07833  1.0000
  C   C1187     1.0  0.76921  0.95014  0.08546  1.0000
  H   H1913     1.0  0.94424  0.72638  0.99169  1.0000
  H   H1914     1.0  0.74430  0.97795  0.05566  1.0000
  H   H1915     1.0  0.75436  0.91965  0.08122  1.0000
  H   H1916     1.0  0.77603  0.94231  0.09383  1.0000
  H   H1917     1.0  0.93485  0.84091  0.19332  1.0000
  H   H1918     1.0  0.76553  0.00041  0.06830  1.0000
  Fe  Fe247     1.0  0.85700  0.99657  0.10720  1.0000
  S   S485      1.0  0.97829  0.89056  0.10398  1.0000
  H   H1919     1.0  0.64270  0.96045  0.00167  1.0000
  H   H1920     1.0  0.94925  0.97075  0.10802  1.0000
  C   C1188     1.0  0.86330  0.91805  0.11616  1.0000
  C   C1189     1.0  0.87778  0.93883  0.10827  1.0000
  C   C1190     1.0  0.90048  0.94122  0.10239  1.0000
  C   C1191     1.0  0.90888  0.92288  0.10460  1.0000
  C   C1192     1.0  0.89438  0.90198  0.11221  1.0000
  C   C1193     1.0  0.87155  0.89956  0.11795  1.0000
  H   H1921     1.0  0.87165  0.95320  0.10684  1.0000
  H   H1922     1.0  0.91153  0.95740  0.09642  1.0000
  H   H1923     1.0  0.90070  0.88768  0.11363  1.0000
  H   H1924     1.0  0.86036  0.88343  0.12394  1.0000
  S   S486      1.0  0.97693  0.86867  0.13808  1.0000
  H   H1925     1.0  0.61510  0.95327  0.03203  1.0000
  N   N125      1.0  0.89241  0.81820  0.03761  1.0000
  C   C1194     1.0  0.87724  0.82157  0.02828  1.0000
  C   C1195     1.0  0.89323  0.83407  0.04645  1.0000
  C   C1196     1.0  0.91507  0.82153  0.02823  1.0000
  C   C1197     1.0  0.88414  0.79553  0.04749  1.0000
  H   H1926     1.0  0.87644  0.80971  0.02152  1.0000
  H   H1927     1.0  0.88293  0.83851  0.02065  1.0000
  H   H1928     1.0  0.85993  0.81907  0.03498  1.0000
  H   H1929     1.0  0.90458  0.83174  0.05361  1.0000
  H   H1930     1.0  0.89948  0.85140  0.03939  1.0000
  H   H1931     1.0  0.87644  0.83200  0.05373  1.0000
  H   H1932     1.0  0.92700  0.81924  0.03489  1.0000
  H   H1933     1.0  0.92177  0.83839  0.02054  1.0000
  H   H1934     1.0  0.91518  0.80958  0.02158  1.0000
  H   H1935     1.0  0.86703  0.79236  0.05468  1.0000
  H   H1936     1.0  0.89512  0.79245  0.05477  1.0000
  H   H1937     1.0  0.88352  0.78307  0.04121  1.0000
  S   S487      1.0  0.91185  0.69026  0.06453  1.0000
  H   H1938     1.0  0.94942  0.82346  0.18566  1.0000
  C   C1198     1.0  0.82899  0.99351  0.16772  1.0000
  C   C1199     1.0  0.91221  0.93292  0.15511  1.0000
  H   H1939     1.0  0.91864  0.92172  0.16254  1.0000
  H   H1940     1.0  0.91159  0.94748  0.15933  1.0000
  H   H1941     1.0  0.92471  0.93881  0.14419  1.0000
  H   H1942     1.0  0.87957  0.90210  0.17669  1.0000
  H   H1943     1.0  0.89696  0.89005  0.15598  1.0000
  H   H1944     1.0  0.61552  0.97862  0.08479  1.0000
  C   C1200     1.0  0.68062  0.97472  0.09915  1.0000
  H   H1945     1.0  0.83943  0.69081  0.98804  1.0000
  C   C1201     1.0  0.98865  0.99803  0.10649  1.0000
  C   C1202     1.0  0.94326  0.90900  0.19778  1.0000
  C   C1203     1.0  0.93407  0.89315  0.19134  1.0000
  S   S488      1.0  0.90267  0.00084  0.22676  1.0000
  C   C1204     1.0  0.91377  0.77828  0.99621  1.0000
  N   N126      1.0  0.89002  0.92150  0.15420  1.0000
  H   H1946     1.0  0.90434  0.90756  0.13765  1.0000
  H   H1947     1.0  0.91623  0.98078  0.20430  1.0000
  H   H1948     1.0  0.95305  0.97587  0.08871  1.0000
  C   C1205     1.0  0.54315  0.97079  0.00229  1.0000
  H   H1949     1.0  0.92012  0.87918  0.19788  1.0000
  C   C1206     1.0  0.89178  0.90241  0.14850  1.0000
  H   H1950     1.0  0.87217  0.92774  0.17353  1.0000
  H   H1951     1.0  0.66334  0.93077  0.11053  1.0000
  H   H1952     1.0  0.93642  0.90725  0.20927  1.0000
  C   C1207     1.0  0.53935  0.96208  0.99077  1.0000
  C   C1208     1.0  0.71548  0.96604  0.09976  1.0000
  C   C1209     1.0  0.87403  0.91375  0.16891  1.0000
  C   C1210     1.0  0.57829  0.94612  0.02245  1.0000
  H   H1953     1.0  0.88051  0.95152  0.14815  1.0000
  H   H1954     1.0  0.72482  0.98136  0.09082  1.0000
  S   S489      1.0  0.65986  0.98370  0.06747  1.0000
  H   H1955     1.0  0.96261  0.81891  0.22129  1.0000
  H   H1956     1.0  0.94538  0.67380  0.21303  1.0000
  H   H1957     1.0  0.85715  0.90497  0.16856  1.0000
  H   H1958     1.0  0.87552  0.89387  0.14713  1.0000
  C   C1211     1.0  0.99012  0.96847  0.09526  1.0000
  H   H1959     1.0  0.97725  0.86048  0.21202  1.0000
  C   C1212     1.0  0.00058  0.69820  0.02763  1.0000
  C   C1213     1.0  0.95175  0.83898  0.18900  1.0000
  H   H1960     1.0  0.93507  0.96721  0.19617  1.0000
  H   H1961     1.0  0.98634  0.82177  0.19007  1.0000
  H   H1962     1.0  0.56508  0.97485  0.03591  1.0000
  C   C1214     1.0  0.92871  0.98197  0.19409  1.0000
  H   H1963     1.0  0.67941  0.94151  0.12179  1.0000
  C   C1215     1.0  0.84565  0.98258  0.16612  1.0000
  H   H1964     1.0  0.58499  0.89690  0.99981  1.0000
  H   H1965     1.0  0.66321  0.96879  0.09848  1.0000
  H   H1966     1.0  0.55452  0.00016  0.00881  1.0000
  N   N127      1.0  0.98265  0.98864  0.09487  1.0000
  C   C1216     1.0  0.63558  0.96955  0.99352  1.0000
  C   C1217     1.0  0.87921  0.69207  0.05015  1.0000
  H   H1967     1.0  0.86529  0.92875  0.14333  1.0000
  C   C1218     1.0  0.98098  0.75861  0.98789  1.0000
  C   C1219     1.0  0.69358  0.95174  0.08481  1.0000
  H   H1968     1.0  0.85349  0.69311  0.03896  1.0000
  H   H1969     1.0  0.95188  0.99793  0.09699  1.0000
  C   C1220     1.0  0.95308  0.81977  0.21293  1.0000
  H   H1970     1.0  0.68899  0.98966  0.08969  1.0000
  S   S490      1.0  0.78471  0.98964  0.09199  1.0000
  C   C1221     1.0  0.90819  0.99705  0.11735  1.0000
  N   N128      1.0  0.94700  0.00261  0.18947  1.0000
  Fe  Fe248     1.0  0.99193  0.90157  0.12134  1.0000
  H   H1971     1.0  0.67659  0.94598  0.08345  1.0000
  H   H1972     1.0  0.87350  0.97510  0.17345  1.0000
  S   S491      1.0  0.00171  0.76263  0.01670  1.0000
  S   S492      1.0  0.98997  0.95853  0.22992  1.0000
  H   H1973     1.0  0.99642  0.85133  0.18370  1.0000
  C   C1222     1.0  0.63735  0.99191  0.06287  1.0000
  H   H1974     1.0  0.71551  0.97001  0.11030  1.0000
  H   H1975     1.0  0.95662  0.78615  0.10832  1.0000
  C   C1223     1.0  0.88919  0.67863  0.05842  1.0000
  C   C1224     1.0  0.86148  0.68261  0.04506  1.0000
  H   H1976     1.0  0.98065  0.71684  0.98868  1.0000
  S   S493      1.0  0.96169  0.90666  0.23644  1.0000
  H   H1977     1.0  0.91967  0.97960  0.13447  1.0000
  C   C1225     1.0  0.85864  0.99483  0.18560  1.0000
  H   H1978     1.0  0.98949  0.99839  0.07144  1.0000
  H   H1979     1.0  0.58286  0.98833  0.07774  1.0000
  H   H1980     1.0  0.91957  0.98091  0.18561  1.0000
  S   S494      1.0  0.52823  0.93333  0.99426  1.0000
  H   H1981     1.0  0.93797  0.68955  0.02090  1.0000
  C   C1226     1.0  0.93575  0.79181  0.99129  1.0000
  C   C1227     1.0  0.59869  0.99247  0.06957  1.0000
  H   H1982     1.0  0.89509  0.98289  0.11806  1.0000
  H   H1983     1.0  0.98561  0.96074  0.08676  1.0000
  H   H1984     1.0  0.97299  0.77226  0.98797  1.0000
  H   H1985     1.0  0.97499  0.74722  0.99916  1.0000
  H   H1986     1.0  0.71203  0.95805  0.99506  1.0000
  S   S495      1.0  0.87834  0.99588  0.19594  1.0000
  C   C1228     1.0  0.63938  0.00263  0.04833  1.0000
  Fe  Fe249     1.0  0.99458  0.89868  0.23425  1.0000
  H   H1987     1.0  0.62630  0.97962  0.99893  1.0000
  H   H1988     1.0  0.62336  0.95698  0.99085  1.0000
  S   S496      1.0  0.72111  0.00190  0.99908  1.0000
  H   H1989     1.0  0.92643  0.68944  0.23146  1.0000
  C   C1229     1.0  0.95852  0.00364  0.20108  1.0000
  H   H1990     1.0  0.99752  0.81661  0.10100  1.0000
  H   H1991     1.0  0.94693  0.00311  0.21149  1.0000
  H   H1992     1.0  0.95414  0.67798  0.04052  1.0000
  C   C1230     1.0  0.82695  0.00476  0.17853  1.0000
  H   H1993     1.0  0.96895  0.67271  0.01522  1.0000
  C   C1231     1.0  0.99368  0.00496  0.08045  1.0000
  H   H1994     1.0  0.96629  0.86605  0.26410  1.0000
  Fe  Fe250     1.0  0.93751  0.71362  0.26143  1.0000
  S   S497      1.0  0.93341  0.73228  0.27824  1.0000
  S   S498      1.0  0.57453  0.92452  0.35348  1.0000
  C   C1232     1.0  0.92132  0.67291  0.23956  1.0000
  H   H1995     1.0  0.94081  0.69958  0.30523  1.0000
  C   C1233     1.0  0.51467  0.96492  0.39370  1.0000
  C   C1234     1.0  0.93206  0.83633  0.28568  1.0000
  H   H1996     1.0  0.97775  0.97947  0.27177  1.0000
  C   C1235     1.0  0.97523  0.81984  0.24833  1.0000
  C   C1236     1.0  0.55267  0.96771  0.39506  1.0000
  N   N129      1.0  0.95175  0.67557  0.31893  1.0000
  H   H1997     1.0  0.92267  0.68081  0.33195  1.0000
  H   H1998     1.0  0.54620  0.99618  0.34838  1.0000
  N   N130      1.0  0.93761  0.86065  0.28211  1.0000
  C   C1237     1.0  0.93507  0.80476  0.25370  1.0000
  C   C1238     1.0  0.98484  0.69936  0.26116  1.0000
  S   S499      1.0  0.51459  0.90141  0.38170  1.0000
  C   C1239     1.0  0.99267  0.98752  0.26219  1.0000
  S   S500      1.0  0.87201  0.96648  0.26772  1.0000
  H   H1999     1.0  0.91425  0.86036  0.30171  1.0000
  H   H2000     1.0  0.91388  0.82854  0.29090  1.0000
  C   C1240     1.0  0.53251  0.95561  0.39376  1.0000
  H   H2001     1.0  0.79183  0.99667  0.28989  1.0000
  C   C1241     1.0  0.97535  0.67850  0.27124  1.0000
  C   C1242     1.0  0.60692  0.98675  0.36384  1.0000
  H   H2002     1.0  0.80099  0.99236  0.30616  1.0000
  C   C1243     1.0  0.91064  0.95702  0.25539  1.0000
  Fe  Fe251     1.0  0.97491  0.92881  0.24923  1.0000
  S   S501      1.0  0.95527  0.92955  0.27098  1.0000
  S   S502      1.0  0.86456  0.68827  0.25075  1.0000
  C   C1244     1.0  0.89546  0.95655  0.26825  1.0000
  C   C1245     1.0  0.89874  0.94769  0.28184  1.0000
  C   C1246     1.0  0.91732  0.93966  0.28258  1.0000
  C   C1247     1.0  0.93244  0.94008  0.26975  1.0000
  C   C1248     1.0  0.92908  0.94868  0.25613  1.0000
  C   C1249     1.0  0.62763  0.00295  0.27594  1.0000
  H   H2003     1.0  0.88701  0.94720  0.29181  1.0000
  H   H2004     1.0  0.91986  0.93298  0.29312  1.0000
  H   H2005     1.0  0.93411  0.67257  0.24577  1.0000
  H   H2006     1.0  0.60996  0.97659  0.39181  1.0000
  H   H2007     1.0  0.53061  0.93887  0.39318  1.0000
  C   C1250     1.0  0.97334  0.84125  0.24333  1.0000
  S   S503      1.0  0.51546  0.89910  0.34822  1.0000
  C   C1251     1.0  0.96170  0.87016  0.27463  1.0000
  H   H2008     1.0  0.96656  0.88843  0.27213  1.0000
  H   H2009     1.0  0.94130  0.82951  0.29326  1.0000
  C   C1252     1.0  0.95230  0.84429  0.24325  1.0000
  H   H2010     1.0  0.63963  0.98038  0.38700  1.0000
  H   H2011     1.0  0.92839  0.88721  0.26940  1.0000
  H   H2012     1.0  0.94214  0.86171  0.30323  1.0000
  C   C1253     1.0  0.92442  0.86887  0.27242  1.0000
  C   C1254     1.0  0.59136  0.94891  0.34004  1.0000
  C   C1255     1.0  0.61440  0.95168  0.33502  1.0000
  C   C1256     1.0  0.62847  0.97163  0.32519  1.0000
  C   C1257     1.0  0.62576  0.98500  0.38295  1.0000
  H   H2013     1.0  0.91698  0.82861  0.24846  1.0000
  C   C1258     1.0  0.58244  0.96605  0.33485  1.0000
  H   H2014     1.0  0.62139  0.93837  0.33880  1.0000
  H   H2015     1.0  0.64617  0.97356  0.32136  1.0000
  H   H2016     1.0  0.56610  0.96009  0.39562  1.0000
  H   H2017     1.0  0.56478  0.96409  0.33841  1.0000
  S   S504      1.0  0.87999  0.72036  0.27897  1.0000
  H   H2018     1.0  0.95070  0.86057  0.23901  1.0000
  C   C1259     1.0  0.51219  0.98571  0.30995  1.0000
  N   N131      1.0  0.62461  0.97899  0.36929  1.0000
  Fe  Fe252     1.0  0.53701  0.91874  0.35897  1.0000
  H   H2019     1.0  0.90778  0.96309  0.24491  1.0000
  H   H2020     1.0  0.96635  0.69505  0.29650  1.0000
  H   H2021     1.0  0.61827  0.94952  0.36230  1.0000
  S   S505      1.0  0.52145  0.94660  0.35596  1.0000
  Fe  Fe253     1.0  0.88878  0.70252  0.26221  1.0000
  H   H2022     1.0  0.99407  0.97550  0.25569  1.0000
  H   H2023     1.0  0.95771  0.78516  0.25748  1.0000
  H   H2024     1.0  0.63240  0.94832  0.37643  1.0000
  S   S506      1.0  0.90868  0.68426  0.27408  1.0000
  H   H2025     1.0  0.96596  0.71060  0.30965  1.0000
  C   C1260     1.0  0.51721  0.98659  0.39462  1.0000
  C   C1261     1.0  0.55545  0.98951  0.39567  1.0000
  H   H2026     1.0  0.82659  0.96574  0.27178  1.0000
  C   C1262     1.0  0.59647  0.98596  0.32499  1.0000
  C   C1263     1.0  0.55432  0.97848  0.30742  1.0000
  H   H2027     1.0  0.66028  0.98457  0.36189  1.0000
  H   H2028     1.0  0.62367  0.98937  0.27084  1.0000
  H   H2029     1.0  0.77041  0.99424  0.25998  1.0000
  C   C1264     1.0  0.81193  0.96971  0.27800  1.0000
  C   C1265     1.0  0.61941  0.95476  0.37230  1.0000
  H   H2030     1.0  0.60643  0.98354  0.35316  1.0000
  H   H2031     1.0  0.61218  0.00170  0.28436  1.0000
  S   S507      1.0  0.91055  0.78271  0.26070  1.0000
  N   N132      1.0  0.81750  0.97998  0.28937  1.0000
  H   H2032     1.0  0.80650  0.98088  0.26990  1.0000
  H   H2033     1.0  0.93655  0.83078  0.27569  1.0000
  Fe  Fe254     1.0  0.91157  0.74700  0.26593  1.0000
  H   H2034     1.0  0.57054  0.97543  0.30624  1.0000
  H   H2035     1.0  0.78328  0.96974  0.30245  1.0000
  C   C1266     1.0  0.83563  0.00069  0.28240  1.0000
  H   H2036     1.0  0.82943  0.97195  0.30841  1.0000
  H   H2037     1.0  0.64621  0.98482  0.34775  1.0000
  H   H2038     1.0  0.79823  0.95412  0.28282  1.0000
  C   C1267     1.0  0.51399  0.96486  0.31663  1.0000
  H   H2039     1.0  0.53666  0.94531  0.32053  1.0000
  S   S508      1.0  0.97024  0.71050  0.24941  1.0000
  H   H2040     1.0  0.53406  0.99358  0.33363  1.0000
  C   C1268     1.0  0.53773  0.99901  0.39538  1.0000
  H   H2041     1.0  0.97219  0.86391  0.28145  1.0000
  H   H2042     1.0  0.90616  0.86220  0.27777  1.0000
  C   C1269     1.0  0.95615  0.80161  0.25351  1.0000
  C   C1270     1.0  0.53510  0.96134  0.31543  1.0000
  H   H2043     1.0  0.85227  0.68494  0.30784  1.0000
  C   C1271     1.0  0.93890  0.67772  0.33283  1.0000
  S   S509      1.0  0.89508  0.68734  0.31379  1.0000
  Fe  Fe255     1.0  0.90237  0.70427  0.28981  1.0000
  H   H2044     1.0  0.92786  0.86403  0.26209  1.0000
  S   S510      1.0  0.91824  0.73051  0.24814  1.0000
  C   C1272     1.0  0.93228  0.86734  0.29572  1.0000
  H   H2045     1.0  0.93612  0.88563  0.29333  1.0000
  H   H2046     1.0  0.94052  0.94871  0.24619  1.0000
  C   C1273     1.0  0.64630  0.98945  0.35809  1.0000
  C   C1274     1.0  0.82488  0.96465  0.29976  1.0000
  H   H2047     1.0  0.98361  0.68554  0.32319  1.0000
  C   C1275     1.0  0.53154  0.00316  0.30244  1.0000
  C   C1276     1.0  0.61949  0.98883  0.32022  1.0000
  H   H2048     1.0  0.50747  0.98701  0.36475  1.0000
  H   H2049     1.0  0.94822  0.69158  0.33609  1.0000
  H   H2050     1.0  0.60300  0.94639  0.38058  1.0000
  H   H2051     1.0  0.59014  0.97825  0.37157  1.0000
  C   C1277     1.0  0.95644  0.69610  0.30708  1.0000
  H   H2052     1.0  0.83985  0.96052  0.29409  1.0000
  H   H2053     1.0  0.64016  0.99979  0.28196  1.0000
  C   C1278     1.0  0.93325  0.82614  0.24847  1.0000
  H   H2054     1.0  0.81159  0.94887  0.30522  1.0000
  S   S511      1.0  0.69238  0.00167  0.31734  1.0000
  S   S512      1.0  0.74188  0.00124  0.28449  1.0000
  H   H2055     1.0  0.99149  0.81732  0.24831  1.0000
  H   H2056     1.0  0.95508  0.99713  0.25795  1.0000
  H   H2057     1.0  0.85108  0.99757  0.27650  1.0000
  C   C1279     1.0  0.79754  0.98486  0.29735  1.0000
  H   H2058     1.0  0.97027  0.99248  0.24173  1.0000
  Fe  Fe256     1.0  0.87727  0.99436  0.24781  1.0000
  C   C1280     1.0  0.55265  0.99953  0.30119  1.0000
  H   H2059     1.0  0.58943  0.99915  0.32103  1.0000
  C   C1281     1.0  0.97025  0.00428  0.24847  1.0000
  H   H2060     1.0  0.62834  0.00304  0.38136  1.0000
  H   H2061     1.0  0.60947  0.00472  0.36241  1.0000
  S   S513      1.0  0.58142  0.00454  0.39643  1.0000
  H   H2062     1.0  0.90524  0.67166  0.24731  1.0000
  Fe  Fe257     1.0  0.84310  0.97662  0.70730  1.0000
  S   S514      1.0  0.86530  0.96128  0.69437  1.0000
  S   S515      1.0  0.81045  0.96000  0.72437  1.0000
  C   C1282     1.0  0.59590  0.93439  0.70300  1.0000
  H   H2063     1.0  0.86325  0.87059  0.70365  1.0000
  S   S516      1.0  0.93522  0.89267  0.70637  1.0000
  S   S517      1.0  0.52096  0.83376  0.69589  1.0000
  Fe  Fe258     1.0  0.95477  0.86984  0.71420  1.0000
  S   S518      1.0  0.96782  0.85031  0.69924  1.0000
  H   H2064     1.0  0.60298  0.81074  0.66729  1.0000
  H   H2065     1.0  0.99711  0.73885  0.64346  1.0000
  Fe  Fe259     1.0  0.53741  0.88236  0.60029  1.0000
  H   H2066     1.0  0.00461  0.75889  0.70223  1.0000
  S   S519      1.0  0.55025  0.87268  0.62025  1.0000
  C   C1283     1.0  0.60648  0.95740  0.63246  1.0000
  H   H2067     1.0  0.62049  0.95167  0.62710  1.0000
  H   H2068     1.0  0.94945  0.77112  0.70731  1.0000
  Fe  Fe260     1.0  0.54266  0.91392  0.57114  1.0000
  S   S520      1.0  0.56561  0.94285  0.55289  1.0000
  C   C1284     1.0  0.52263  0.98797  0.64432  1.0000
  H   H2069     1.0  0.95723  0.76015  0.73149  1.0000
  S   S521      1.0  0.54803  0.88007  0.57717  1.0000
  H   H2070     1.0  0.55640  0.98132  0.66682  1.0000
  H   H2071     1.0  0.91387  0.98495  0.68120  1.0000
  S   S522      1.0  0.87584  0.87453  0.73323  1.0000
  H   H2072     1.0  0.56859  0.95948  0.57809  1.0000
  C   C1285     1.0  0.56964  0.93974  0.72284  1.0000
  C   C1286     1.0  0.54242  0.97749  0.66230  1.0000
  H   H2073     1.0  0.90353  0.94834  0.69957  1.0000
  C   C1287     1.0  0.87934  0.87161  0.69594  1.0000
  H   H2074     1.0  0.61518  0.99678  0.61227  1.0000
  H   H2075     1.0  0.84788  0.83413  0.69993  1.0000
  H   H2076     1.0  0.58913  0.85235  0.65530  1.0000
  H   H2077     1.0  0.72095  0.99250  0.64803  1.0000
  Fe  Fe261     1.0  0.68315  0.93938  0.66649  1.0000
  S   S523      1.0  0.65518  0.93873  0.68513  1.0000
  S   S524      1.0  0.72004  0.94936  0.66603  1.0000
  Fe  Fe262     1.0  0.65059  0.92594  0.64815  1.0000
  S   S525      1.0  0.62084  0.92480  0.66542  1.0000
  S   S526      1.0  0.64519  0.91892  0.62706  1.0000
  Fe  Fe263     1.0  0.64189  0.95569  0.66759  1.0000
  S   S527      1.0  0.50717  0.90134  0.57066  1.0000
  Fe  Fe264     1.0  0.63687  0.90788  0.68116  1.0000
  S   S528      1.0  0.61751  0.87747  0.69942  1.0000
  S   S529      1.0  0.67091  0.95856  0.64898  1.0000
  S   S530      1.0  0.66574  0.90681  0.66377  1.0000
  Fe  Fe265     1.0  0.95799  0.71975  0.68686  1.0000
  S   S531      1.0  0.92241  0.71335  0.69905  1.0000
  Fe  Fe266     1.0  0.51121  0.86759  0.57866  1.0000
  Fe  Fe267     1.0  0.94740  0.72513  0.65754  1.0000
  S   S532      1.0  0.91078  0.71974  0.66763  1.0000
  S   S533      1.0  0.95754  0.72421  0.63412  1.0000
  Fe  Fe268     1.0  0.92261  0.74196  0.68107  1.0000
  S   S534      1.0  0.90647  0.76692  0.68888  1.0000
  Fe  Fe269     1.0  0.91457  0.69203  0.68451  1.0000
  C   C1288     1.0  0.56821  0.98658  0.54407  1.0000
  S   S535      1.0  0.95911  0.74964  0.66951  1.0000
  S   S536      1.0  0.95044  0.69629  0.67374  1.0000
  S   S537      1.0  0.62541  0.98226  0.67064  1.0000
  C   C1289     1.0  0.57535  0.97195  0.62983  1.0000
  H   H2078     1.0  0.93403  0.67520  0.64124  1.0000
  H   H2079     1.0  0.99435  0.80384  0.71872  1.0000
  C   C1290     1.0  0.60817  0.98162  0.60930  1.0000
  S   S538      1.0  0.98071  0.71606  0.70132  1.0000
  C   C1291     1.0  0.61453  0.82406  0.65764  1.0000
  C   C1292     1.0  0.97776  0.99242  0.71210  1.0000
  C   C1293     1.0  0.69110  0.99584  0.67081  1.0000
  C   C1294     1.0  0.00158  0.73203  0.63443  1.0000
  H   H2080     1.0  0.61685  0.83243  0.68348  1.0000
  C   C1295     1.0  0.58330  0.94485  0.61760  1.0000
  H   H2081     1.0  0.93814  0.69514  0.61585  1.0000
  C   C1296     1.0  0.86450  0.83613  0.69245  1.0000
  H   H2082     1.0  0.99411  0.67376  0.66989  1.0000
  S   S539      1.0  0.96312  0.95386  0.70525  1.0000
  N   N133      1.0  0.59332  0.96397  0.62229  1.0000
  H   H2083     1.0  0.59597  0.94379  0.64227  1.0000
  H   H2084     1.0  0.92189  0.68299  0.60517  1.0000
  C   C1297     1.0  0.96646  0.77007  0.70232  1.0000
  H   H2085     1.0  0.97368  0.74317  0.72498  1.0000
  C   C1298     1.0  0.92171  0.68416  0.61642  1.0000
  H   H2086     1.0  0.57129  0.99693  0.58136  1.0000
  C   C1299     1.0  0.54752  0.84613  0.69710  1.0000
  C   C1300     1.0  0.55663  0.86899  0.69169  1.0000
  C   C1301     1.0  0.57814  0.87874  0.69239  1.0000
  C   C1302     1.0  0.59037  0.86573  0.69874  1.0000
  C   C1303     1.0  0.58105  0.84293  0.70441  1.0000
  C   C1304     1.0  0.55978  0.83309  0.70339  1.0000
  H   H2087     1.0  0.54715  0.87913  0.68687  1.0000
  H   H2088     1.0  0.58503  0.89632  0.68825  1.0000
  H   H2089     1.0  0.59034  0.83283  0.70951  1.0000
  H   H2090     1.0  0.55264  0.81543  0.70774  1.0000
  C   C1305     1.0  0.98282  0.79862  0.71224  1.0000
  H   H2091     1.0  0.73542  0.00123  0.66807  1.0000
  H   H2092     1.0  0.57231  0.93100  0.62712  1.0000
  H   H2093     1.0  0.58229  0.98679  0.63315  1.0000
  C   C1306     1.0  0.56737  0.96904  0.55572  1.0000
  C   C1307     1.0  0.56851  0.97282  0.56921  1.0000
  H   H2094     1.0  0.56432  0.95917  0.63994  1.0000
  H   H2095     1.0  0.90563  0.86076  0.67509  1.0000
  H   H2096     1.0  0.64436  0.84017  0.67102  1.0000
  H   H2097     1.0  0.90887  0.94343  0.73417  1.0000
  S   S540      1.0  0.52787  0.93878  0.68430  1.0000
  H   H2098     1.0  0.58487  0.97256  0.69753  1.0000
  H   H2099     1.0  0.51812  0.80730  0.65546  1.0000
  C   C1308     1.0  0.54095  0.99269  0.64999  1.0000
  C   C1309     1.0  0.85091  0.90142  0.72346  1.0000
  H   H2100     1.0  0.97911  0.71012  0.61038  1.0000
  H   H2101     1.0  0.89277  0.88215  0.69902  1.0000
  H   H2102     1.0  0.55528  0.96054  0.70098  1.0000
  H   H2103     1.0  0.87927  0.88039  0.68476  1.0000
  H   H2104     1.0  0.61392  0.97144  0.63636  1.0000
  C   C1310     1.0  0.57652  0.88668  0.62172  1.0000
  C   C1311     1.0  0.59539  0.89522  0.60965  1.0000
  C   C1312     1.0  0.61634  0.90488  0.61145  1.0000
  C   C1313     1.0  0.61854  0.90664  0.62524  1.0000
  C   C1314     1.0  0.59957  0.89847  0.63724  1.0000
  C   C1315     1.0  0.57879  0.88826  0.63553  1.0000
  H   H2105     1.0  0.59397  0.89391  0.59897  1.0000
  H   H2106     1.0  0.63089  0.91111  0.60208  1.0000
  H   H2107     1.0  0.60090  0.89981  0.64789  1.0000
  H   H2108     1.0  0.56435  0.88184  0.64496  1.0000
  C   C1316     1.0  0.94990  0.82785  0.69620  1.0000
  C   C1317     1.0  0.92931  0.81604  0.70628  1.0000
  C   C1318     1.0  0.91602  0.79747  0.70388  1.0000
  C   C1319     1.0  0.92333  0.79043  0.69150  1.0000
  C   C1320     1.0  0.94383  0.80236  0.68139  1.0000
  C   C1321     1.0  0.95708  0.82093  0.68377  1.0000
  H   H2109     1.0  0.92386  0.82097  0.71606  1.0000
  H   H2110     1.0  0.90022  0.78823  0.71178  1.0000
  H   H2111     1.0  0.94948  0.79727  0.67171  1.0000
  H   H2112     1.0  0.97300  0.82996  0.67593  1.0000
  C   C1322     1.0  0.75273  0.97484  0.69944  1.0000
  C   C1323     1.0  0.76559  0.97116  0.68713  1.0000
  C   C1324     1.0  0.75526  0.96286  0.67724  1.0000
  C   C1325     1.0  0.73192  0.95778  0.67960  1.0000
  C   C1326     1.0  0.71900  0.96099  0.69210  1.0000
  C   C1327     1.0  0.72938  0.96971  0.70182  1.0000
  H   H2113     1.0  0.78356  0.97507  0.68509  1.0000
  H   H2114     1.0  0.76547  0.96049  0.66763  1.0000
  H   H2115     1.0  0.70104  0.95691  0.69426  1.0000
  C   C1328     1.0  0.86756  0.93754  0.70592  1.0000
  C   C1329     1.0  0.84855  0.92081  0.71478  1.0000
  C   C1330     1.0  0.50763  0.95262  0.66303  1.0000
  C   C1331     1.0  0.87224  0.89921  0.72356  1.0000
  C   C1332     1.0  0.89102  0.91660  0.71538  1.0000
  C   C1333     1.0  0.88876  0.93543  0.70628  1.0000
  H   H2116     1.0  0.83209  0.92252  0.71457  1.0000
  C   C1334     1.0  0.98546  0.72440  0.62760  1.0000
  H   H2117     1.0  0.90746  0.91563  0.71585  1.0000
  N   N134      1.0  0.88267  0.84951  0.69665  1.0000
  C   C1335     1.0  0.90441  0.85170  0.68649  1.0000
  C   C1336     1.0  0.57204  0.95768  0.69778  1.0000
  C   C1337     1.0  0.88236  0.83856  0.71176  1.0000
  H   H2118     1.0  0.92896  0.98891  0.70849  1.0000
  H   H2119     1.0  0.90699  0.83529  0.68627  1.0000
  C   C1338     1.0  0.92830  0.99877  0.68053  1.0000
  H   H2120     1.0  0.96603  0.79975  0.71769  1.0000
  H   H2121     1.0  0.53050  0.96391  0.59303  1.0000
  C   C1339     1.0  0.91527  0.99611  0.70614  1.0000
  C   C1340     1.0  0.00463  0.77559  0.70347  1.0000
  H   H2122     1.0  0.89624  0.84786  0.71517  1.0000
  H   H2123     1.0  0.90048  0.98213  0.70770  1.0000
  H   H2124     1.0  0.88403  0.82157  0.71286  1.0000
  H   H2125     1.0  0.59944  0.93342  0.69155  1.0000
  H   H2126     1.0  0.86650  0.81932  0.69289  1.0000
  H   H2127     1.0  0.59750  0.91892  0.70995  1.0000
  H   H2128     1.0  0.67594  0.99395  0.66674  1.0000
  H   H2129     1.0  0.57064  0.92477  0.73064  1.0000
  H   H2130     1.0  0.98857  0.81103  0.70130  1.0000
  H   H2131     1.0  0.91864  0.86076  0.68975  1.0000
  H   H2132     1.0  0.58476  0.83841  0.67422  1.0000
  S   S541      1.0  0.53408  0.91672  0.59405  1.0000
  N   N135      1.0  0.98207  0.77615  0.71093  1.0000
  H   H2133     1.0  0.55281  0.94208  0.72676  1.0000
  H   H2134     1.0  0.62256  0.97641  0.60388  1.0000
  H   H2135     1.0  0.63043  0.81947  0.65473  1.0000
  H   H2136     1.0  0.83627  0.88812  0.72991  1.0000
  H   H2137     1.0  0.86422  0.84390  0.68111  1.0000
  H   H2138     1.0  0.60924  0.94845  0.70329  1.0000
  S   S542      1.0  0.97704  0.89578  0.72094  1.0000
  C   C1341     1.0  0.51920  0.84879  0.65634  1.0000
  H   H2139     1.0  0.96467  0.75292  0.70162  1.0000
  H   H2140     1.0  0.52285  0.84936  0.66691  1.0000
  C   C1342     1.0  0.98755  0.99436  0.73469  1.0000
  H   H2141     1.0  0.55729  0.90259  0.71462  1.0000
  H   H2142     1.0  0.71925  0.97238  0.71134  1.0000
  Fe  Fe270     1.0  0.95464  0.91704  0.71546  1.0000
  H   H2143     1.0  0.53920  0.91991  0.71138  1.0000
  H   H2144     1.0  0.57474  0.95648  0.68633  1.0000
  C   C1343     1.0  0.62785  0.00045  0.65372  1.0000
  H   H2145     1.0  0.97661  0.00061  0.70146  1.0000
  N   N136      1.0  0.57349  0.93752  0.70780  1.0000
  C   C1344     1.0  0.97245  0.96934  0.71664  1.0000
  Fe  Fe271     1.0  0.80039  0.98994  0.71425  1.0000
  H   H2146     1.0  0.86653  0.83738  0.71979  1.0000
  C   C1345     1.0  0.55635  0.91826  0.70755  1.0000
  H   H2147     1.0  0.57301  0.94917  0.61007  1.0000
  H   H2148     1.0  0.60700  0.82428  0.64830  1.0000
  H   H2149     1.0  0.50860  0.80802  0.67407  1.0000
  C   C1346     1.0  0.52575  0.95746  0.66885  1.0000
  N   N137      1.0  0.61841  0.84564  0.66081  1.0000
  C   C1347     1.0  0.63385  0.86281  0.64780  1.0000
  C   C1348     1.0  0.59694  0.85111  0.66453  1.0000
  C   C1349     1.0  0.62832  0.84465  0.67328  1.0000
  H   H2150     1.0  0.63692  0.87931  0.64981  1.0000
  H   H2151     1.0  0.62702  0.86411  0.63811  1.0000
  H   H2152     1.0  0.65039  0.85950  0.64472  1.0000
  H   H2153     1.0  0.59925  0.86715  0.66723  1.0000
  H   H2154     1.0  0.63196  0.86086  0.67570  1.0000
  H   H2155     1.0  0.56452  0.97642  0.62274  1.0000
  H   H2156     1.0  0.51704  0.86511  0.65124  1.0000
  H   H2157     1.0  0.00215  0.72513  0.67058  1.0000
  C   C1350     1.0  0.51530  0.96515  0.58941  1.0000
  Fe  Fe272     1.0  0.91274  0.87928  0.72926  1.0000
  C   C1351     1.0  0.97451  0.95882  0.73026  1.0000
  H   H2158     1.0  0.52076  0.97371  0.57745  1.0000
  S   S543      1.0  0.76497  0.98692  0.71166  1.0000
  H   H2159     1.0  0.97090  0.94108  0.73371  1.0000
  H   H2160     1.0  0.90884  0.69259  0.61988  1.0000
  H   H2161     1.0  0.56761  0.98381  0.53358  1.0000
  H   H2162     1.0  0.59643  0.93871  0.61164  1.0000
  H   H2163     1.0  0.58225  0.95416  0.72342  1.0000
  H   H2164     1.0  0.97235  0.78099  0.69091  1.0000
  C   C1352     1.0  0.99141  0.71579  0.61582  1.0000
  H   H2165     1.0  0.55824  0.91654  0.69626  1.0000
  H   H2166     1.0  0.69521  0.97980  0.67252  1.0000
  H   H2167     1.0  0.53430  0.84684  0.64918  1.0000
  H   H2168     1.0  0.59920  0.98620  0.60097  1.0000
  C   C1353     1.0  0.57022  0.99408  0.57102  1.0000
  H   H2169     1.0  0.68656  0.99889  0.68172  1.0000
  C   C1354     1.0  0.97432  0.76027  0.72566  1.0000
  H   H2170     1.0  0.66098  0.99930  0.64388  1.0000
  H   H2171     1.0  0.53154  0.00020  0.59834  1.0000
  H   H2172     1.0  0.98237  0.68604  0.64801  1.0000
  H   H2173     1.0  0.51180  0.96531  0.61748  1.0000
  H   H2174     1.0  0.50831  0.83175  0.63552  1.0000
  H   H2175     1.0  0.90480  0.67283  0.64554  1.0000
  S   S544      1.0  0.85885  0.99367  0.72164  1.0000
  C   C1355     1.0  0.00433  0.71013  0.69215  1.0000
  H   H2176     1.0  0.98561  0.76437  0.73254  1.0000
  C   C1356     1.0  0.51594  0.99976  0.59489  1.0000
  H   H2177     1.0  0.94202  0.99144  0.68265  1.0000
  C   C1357     1.0  0.50598  0.96794  0.65088  1.0000
  S   S545      1.0  0.93078  0.85452  0.73659  1.0000
  C   C1358     1.0  0.98524  0.00494  0.72112  1.0000
  H   H2178     1.0  0.91076  0.00489  0.71446  1.0000
  Fe  Fe273     1.0  0.88858  0.74140  0.94228  1.0000
  S   S546      1.0  0.92183  0.74034  0.94600  1.0000
  S   S547      1.0  0.85662  0.72191  0.95952  1.0000
  Fe  Fe274     1.0  0.90922  0.77599  0.91274  1.0000
  S   S548      1.0  0.94434  0.77779  0.91384  1.0000
  S   S549      1.0  0.89929  0.79809  0.89548  1.0000
  Fe  Fe275     1.0  0.93148  0.74098  0.92237  1.0000
  Fe  Fe276     1.0  0.93137  0.77707  0.93722  1.0000
  S   S550      1.0  0.95063  0.79917  0.94768  1.0000
  S   S551      1.0  0.89730  0.73900  0.91929  1.0000
  S   S552      1.0  0.89727  0.77835  0.93553  1.0000
  Fe  Fe277     1.0  0.69248  0.99618  0.90159  1.0000
  Fe  Fe278     1.0  0.95982  0.94403  0.85185  1.0000
  S   S553      1.0  0.94306  0.95391  0.87101  1.0000
  S   S554      1.0  0.94503  0.91511  0.84448  1.0000
  H   H2179     1.0  0.94573  0.79952  0.88432  1.0000
  C   C1359     1.0  0.93427  0.83740  0.91584  1.0000
  H   H2180     1.0  0.96871  0.83114  0.89763  1.0000
  H   H2181     1.0  0.67857  0.97964  0.96325  1.0000
  S   S555      1.0  0.72751  0.99582  0.90188  1.0000
  S   S556      1.0  0.99446  0.92801  0.82028  1.0000
  H   H2182     1.0  0.92946  0.82994  0.90732  1.0000
  C   C1360     1.0  0.97279  0.83839  0.90640  1.0000
  H   H2183     1.0  0.89748  0.94393  0.77329  1.0000
  C   C1361     1.0  0.96162  0.83220  0.86978  1.0000
  H   H2184     1.0  0.97811  0.77761  0.96177  1.0000
  S   S557      1.0  0.72264  0.96925  0.94265  1.0000
  H   H2185     1.0  0.59573  0.99544  0.95608  1.0000
  C   C1362     1.0  0.97283  0.72041  0.92426  1.0000
  C   C1363     1.0  0.95837  0.90534  0.79706  1.0000
  H   H2186     1.0  0.51376  0.88868  0.93404  1.0000
  H   H2187     1.0  0.99928  0.76590  0.98559  1.0000
  Fe  Fe279     1.0  0.56076  0.92759  0.94381  1.0000
  S   S558      1.0  0.56914  0.95000  0.92111  1.0000
  S   S559      1.0  0.57016  0.89595  0.94675  1.0000
  S   S560      1.0  0.68025  0.99154  0.92562  1.0000
  H   H2188     1.0  0.79702  0.71968  0.93966  1.0000
  C   C1364     1.0  0.91425  0.77845  0.97122  1.0000
  H   H2189     1.0  0.86944  0.96163  0.74477  1.0000
  C   C1365     1.0  0.64378  0.96787  0.89912  1.0000
  C   C1366     1.0  0.63540  0.95724  0.91412  1.0000
  C   C1367     1.0  0.61233  0.95064  0.92076  1.0000
  C   C1368     1.0  0.59767  0.95576  0.91254  1.0000
  C   C1369     1.0  0.60599  0.96647  0.89756  1.0000
  C   C1370     1.0  0.62899  0.97215  0.89080  1.0000
  H   H2190     1.0  0.64666  0.95397  0.92059  1.0000
  H   H2191     1.0  0.60601  0.94229  0.93233  1.0000
  H   H2192     1.0  0.59470  0.97044  0.89116  1.0000
  C   C1371     1.0  0.84395  0.98239  0.76801  1.0000
  C   C1372     1.0  0.72430  0.97830  0.95815  1.0000
  H   H2193     1.0  0.52598  0.87250  0.89911  1.0000
  C   C1373     1.0  0.81048  0.73366  0.93989  1.0000
  C   C1374     1.0  0.55099  0.99942  0.97457  1.0000
  C   C1375     1.0  0.98425  0.74139  0.92436  1.0000
  C   C1376     1.0  0.88217  0.91477  0.75956  1.0000
  H   H2194     1.0  0.98080  0.87139  0.91879  1.0000
  H   H2195     1.0  0.98301  0.71991  0.96947  1.0000
  H   H2196     1.0  0.86571  0.90622  0.76772  1.0000
  H   H2197     1.0  0.57306  0.98193  0.94110  1.0000
  H   H2198     1.0  0.50598  0.81229  0.94355  1.0000
  H   H2199     1.0  0.88729  0.96578  0.76461  1.0000
  S   S561      1.0  0.96172  0.87675  0.76388  1.0000
  H   H2200     1.0  0.85195  0.72976  0.91298  1.0000
  H   H2201     1.0  0.83909  0.77463  0.92831  1.0000
  H   H2202     1.0  0.51208  0.86226  0.91828  1.0000
  C   C1377     1.0  0.92239  0.96683  0.86786  1.0000
  C   C1378     1.0  0.91947  0.97323  0.85383  1.0000
  C   C1379     1.0  0.90284  0.98374  0.85165  1.0000
  C   C1380     1.0  0.88893  0.98739  0.86355  1.0000
  C   C1381     1.0  0.89189  0.98096  0.87752  1.0000
  C   C1382     1.0  0.90877  0.97094  0.87965  1.0000
  C   C1383     1.0  0.90296  0.77186  0.98614  1.0000
  H   H2203     1.0  0.93508  0.00395  0.77956  1.0000
  C   C1384     1.0  0.54358  0.97649  0.97683  1.0000
  H   H2204     1.0  0.91101  0.96600  0.89049  1.0000
  C   C1385     1.0  0.92202  0.81843  0.88240  1.0000
  C   C1386     1.0  0.94333  0.81519  0.87938  1.0000
  C   C1387     1.0  0.93734  0.85563  0.86594  1.0000
  C   C1388     1.0  0.91900  0.83856  0.87547  1.0000
  H   H2205     1.0  0.93487  0.87118  0.86093  1.0000
  H   H2206     1.0  0.90254  0.84116  0.87770  1.0000
  C   C1389     1.0  0.85253  0.69322  0.96526  1.0000
  C   C1390     1.0  0.95122  0.73802  0.98050  1.0000
  Fe  Fe280     1.0  0.57990  0.90304  0.96657  1.0000
  H   H2207     1.0  0.98338  0.96288  0.74978  1.0000
  C   C1391     1.0  0.90511  0.67225  0.97455  1.0000
  N   N138      1.0  0.53091  0.89635  0.91125  1.0000
  H   H2208     1.0  0.95208  0.87056  0.92587  1.0000
  H   H2209     1.0  0.99055  0.96858  0.77283  1.0000
  H   H2210     1.0  0.94867  0.88044  0.90047  1.0000
  S   S562      1.0  0.61419  0.90435  0.97060  1.0000
  H   H2211     1.0  0.86795  0.94024  0.77597  1.0000
  S   S563      1.0  0.98254  0.87433  0.85266  1.0000
  H   H2212     1.0  0.84570  0.71802  0.93240  1.0000
  C   C1392     1.0  0.51796  0.90203  0.92367  1.0000
  H   H2213     1.0  0.63541  0.98031  0.87918  1.0000
  H   H2214     1.0  0.92976  0.96980  0.84475  1.0000
  H   H2215     1.0  0.00281  0.76831  0.95876  1.0000
  H   H2216     1.0  0.00494  0.73518  0.97509  1.0000
  C   C1393     1.0  0.95877  0.85260  0.86320  1.0000
  H   H2217     1.0  0.86812  0.93757  0.73825  1.0000
  H   H2218     1.0  0.97610  0.98955  0.79918  1.0000
  C   C1394     1.0  0.99584  0.70434  0.93790  1.0000
  Fe  Fe281     1.0  0.95148  0.88203  0.74285  1.0000
  S   S564      1.0  0.82329  0.96751  0.76171  1.0000
  C   C1395     1.0  0.94899  0.92887  0.77763  1.0000
  Fe  Fe282     1.0  0.82522  0.98033  0.73778  1.0000
  H   H2219     1.0  0.71327  0.94544  0.97283  1.0000
  S   S565      1.0  0.97353  0.96687  0.82927  1.0000
  C   C1396     1.0  0.94683  0.79902  0.97627  1.0000
  H   H2220     1.0  0.99560  0.96416  0.79055  1.0000
  S   S566      1.0  0.86739  0.99950  0.86134  1.0000
  C   C1397     1.0  0.90761  0.94948  0.74410  1.0000
  S   S567      1.0  0.94857  0.94278  0.80217  1.0000
  H   H2221     1.0  0.86441  0.69011  0.94359  1.0000
  H   H2222     1.0  0.65537  0.91727  0.97853  1.0000
  C   C1398     1.0  0.84345  0.68184  0.98015  1.0000
  H   H2223     1.0  0.78806  0.98879  0.89662  1.0000
  C   C1399     1.0  0.66968  0.99919  0.98444  1.0000
  C   C1400     1.0  0.51696  0.87696  0.90863  1.0000
  H   H2224     1.0  0.99048  0.84860  0.90218  1.0000
  C   C1401     1.0  0.84295  0.97641  0.78293  1.0000
  H   H2225     1.0  0.90589  0.77285  0.96364  1.0000
  C   C1402     1.0  0.55098  0.89113  0.91473  1.0000
  C   C1403     1.0  0.97886  0.70192  0.93083  1.0000
  N   N139      1.0  0.95753  0.85159  0.91058  1.0000
  N   N140      1.0  0.67909  0.91973  0.93286  1.0000
  C   C1404     1.0  0.66157  0.90499  0.92894  1.0000
  C   C1405     1.0  0.66845  0.92840  0.94451  1.0000
  C   C1406     1.0  0.69232  0.93814  0.91982  1.0000
  C   C1407     1.0  0.69403  0.90731  0.93829  1.0000
  H   H2226     1.0  0.66893  0.89775  0.92037  1.0000
  H   H2227     1.0  0.65029  0.91407  0.92459  1.0000
  H   H2228     1.0  0.65093  0.89121  0.93865  1.0000
  H   H2229     1.0  0.68100  0.93991  0.94763  1.0000
  H   H2230     1.0  0.65649  0.93731  0.94114  1.0000
  H   H2231     1.0  0.65891  0.91479  0.95454  1.0000
  H   H2232     1.0  0.70029  0.93214  0.91074  1.0000
  H   H2233     1.0  0.70585  0.94940  0.92237  1.0000
  H   H2234     1.0  0.68181  0.94818  0.91552  1.0000
  H   H2235     1.0  0.70254  0.90060  0.92979  1.0000
  H   H2236     1.0  0.68462  0.89323  0.94813  1.0000
  Fe  Fe283     1.0  0.53911  0.91821  0.97603  1.0000
  Fe  Fe284     1.0  0.97820  0.90803  0.84377  1.0000
  C   C1408     1.0  0.61667  0.99949  0.92744  1.0000
  Fe  Fe285     1.0  0.53452  0.88068  0.96078  1.0000
  H   H2237     1.0  0.82834  0.98840  0.89245  1.0000
  H   H2238     1.0  0.96062  0.90157  0.80795  1.0000
  C   C1409     1.0  0.98421  0.76270  0.96224  1.0000
  C   C1410     1.0  0.88456  0.94758  0.76775  1.0000
  C   C1411     1.0  0.72332  0.99255  0.98341  1.0000
  H   H2239     1.0  0.97867  0.75514  0.95396  1.0000
  S   S568      1.0  0.99916  0.67644  0.97842  1.0000
  H   H2240     1.0  0.82570  0.70970  0.92285  1.0000
  H   H2241     1.0  0.90028  0.98834  0.84089  1.0000
  S   S569      1.0  0.52516  0.91277  0.95722  1.0000
  H   H2242     1.0  0.96601  0.87613  0.79268  1.0000
  S   S570      1.0  0.95002  0.71703  0.91689  1.0000
  C   C1412     1.0  0.96137  0.89091  0.78842  1.0000
  C   C1413     1.0  0.71806  0.96289  0.97189  1.0000
  N   N141      1.0  0.82839  0.74199  0.92596  1.0000
  C   C1414     1.0  0.81910  0.74973  0.91372  1.0000
  C   C1415     1.0  0.84577  0.76051  0.92682  1.0000
  H   H2243     1.0  0.80277  0.74680  0.94230  1.0000
  H   H2244     1.0  0.83241  0.75641  0.90312  1.0000
  H   H2245     1.0  0.80611  0.73614  0.91259  1.0000
  H   H2246     1.0  0.94272  0.75137  0.98013  1.0000
  H   H2247     1.0  0.85998  0.76675  0.91671  1.0000
  H   H2248     1.0  0.88114  0.98376  0.88673  1.0000
  H   H2249     1.0  0.81452  0.99967  0.87142  1.0000
  H   H2250     1.0  0.93200  0.82364  0.92568  1.0000
  H   H2251     1.0  0.52758  0.91727  0.92544  1.0000
  C   C1416     1.0  0.86778  0.94364  0.74812  1.0000
  H   H2252     1.0  0.81133  0.76317  0.91534  1.0000
  H   H2253     1.0  0.98220  0.99218  0.86296  1.0000
  C   C1417     1.0  0.96334  0.86061  0.92239  1.0000
  C   C1418     1.0  0.91862  0.67683  0.94866  1.0000
  H   H2254     1.0  0.81709  0.72759  0.94929  1.0000
  H   H2255     1.0  0.85260  0.75540  0.93623  1.0000
  H   H2256     1.0  0.89536  0.91049  0.76462  1.0000
  C   C1419     1.0  0.83836  0.72408  0.92341  1.0000
  H   H2257     1.0  0.54763  0.91167  0.88841  1.0000
  C   C1420     1.0  0.66474  0.96955  0.97312  1.0000
  C   C1421     1.0  0.98414  0.00457  0.85248  1.0000
  H   H2258     1.0  0.91932  0.99768  0.80617  1.0000
  H   H2259     1.0  0.92221  0.84686  0.91882  1.0000
  H   H2260     1.0  0.97011  0.68568  0.93073  1.0000
  N   N142      1.0  0.88554  0.93887  0.75488  1.0000
  H   H2261     1.0  0.81156  0.99438  0.79869  1.0000
  H   H2262     1.0  0.95503  0.86361  0.88877  1.0000
  H   H2263     1.0  0.54840  0.93016  0.89970  1.0000
  H   H2264     1.0  0.96379  0.80956  0.97247  1.0000
  C   C1422     1.0  0.73055  0.00081  0.95704  1.0000
  H   H2265     1.0  0.97970  0.75573  0.91921  1.0000
  C   C1423     1.0  0.93615  0.79209  0.96625  1.0000
  C   C1424     1.0  0.95971  0.86990  0.89773  1.0000
  H   H2266     1.0  0.63024  0.98455  0.96710  1.0000
  Fe  Fe286     1.0  0.71592  0.99445  0.92551  1.0000
  H   H2267     1.0  0.94656  0.72925  0.97251  1.0000
  S   S571      1.0  0.57363  0.93626  0.96198  1.0000
  H   H2268     1.0  0.85085  0.93565  0.75588  1.0000
  H   H2269     1.0  0.54639  0.87709  0.92483  1.0000
  H   H2270     1.0  0.82968  0.96254  0.79040  1.0000
  H   H2271     1.0  0.97168  0.82452  0.91589  1.0000
  C   C1425     1.0  0.57790  0.99917  0.93394  1.0000
  C   C1426     1.0  0.95207  0.92428  0.79169  1.0000
  C   C1427     1.0  0.93581  0.99636  0.80782  1.0000
  C   C1428     1.0  0.85753  0.68150  0.95511  1.0000
  S   S572      1.0  0.99186  0.93562  0.85274  1.0000
  S   S573      1.0  0.67257  0.97540  0.89063  1.0000
  C   C1429     1.0  0.64336  0.99588  0.96996  1.0000
  H   H2272     1.0  0.95036  0.98425  0.78367  1.0000
  H   H2273     1.0  0.70725  0.91809  0.94148  1.0000
  H   H2274     1.0  0.54014  0.96997  0.96798  1.0000
  H   H2275     1.0  0.92797  0.69427  0.94678  1.0000
  H   H2276     1.0  0.97810  0.82966  0.86759  1.0000
  H   H2277     1.0  0.97717  0.88067  0.89316  1.0000
  H   H2278     1.0  0.93517  0.97856  0.81036  1.0000
  C   C1430     1.0  0.95805  0.89531  0.77440  1.0000
  S   S574      1.0  0.51667  0.84963  0.95495  1.0000
  H   H2279     1.0  0.94442  0.94366  0.77334  1.0000
  C   C1431     1.0  0.86110  0.00037  0.75844  1.0000
  Fe  Fe287     1.0  0.96232  0.93715  0.82173  1.0000
  C   C1432     1.0  0.95208  0.91448  0.76899  1.0000
  S   S575      1.0  0.93074  0.90491  0.73777  1.0000
  H   H2280     1.0  0.95009  0.91837  0.75812  1.0000
  H   H2281     1.0  0.91083  0.96769  0.74046  1.0000
  H   H2282     1.0  0.85802  0.98377  0.79981  1.0000
  N   N143      1.0  0.97570  0.74704  0.97705  1.0000
  C   C1433     1.0  0.85892  0.98843  0.78827  1.0000
  H   H2283     1.0  0.61576  0.99800  0.91639  1.0000
  H   H2284     1.0  0.91403  0.68964  0.97325  1.0000
  H   H2285     1.0  0.61317  0.98263  0.93481  1.0000
  Fe  Fe288     1.0  0.00460  0.95634  0.82942  1.0000
  H   H2286     1.0  0.78300  0.99519  0.80346  1.0000
  C   C1434     1.0  0.53777  0.91531  0.89802  1.0000
  N   N144      1.0  0.65333  0.98355  0.98027  1.0000
  H   H2287     1.0  0.93762  0.00182  0.81767  1.0000
  C   C1435     1.0  0.00197  0.74390  0.93081  1.0000
  H   H2288     1.0  0.88260  0.90761  0.75014  1.0000
  C   C1436     1.0  0.71730  0.97003  0.98452  1.0000
  H   H2289     1.0  0.56109  0.88654  0.90569  1.0000
  C   C1437     1.0  0.98188  0.97126  0.73929  1.0000
  H   H2290     1.0  0.65299  0.95781  0.96957  1.0000
  H   H2291     1.0  0.56196  0.90549  0.91665  1.0000
  H   H2292     1.0  0.57635  0.99805  0.92292  1.0000
  H   H2293     1.0  0.96189  0.84715  0.93224  1.0000
  H   H2294     1.0  0.52301  0.91978  0.89516  1.0000
  H   H2295     1.0  0.94965  0.68100  0.96340  1.0000
  C   C1438     1.0  0.00366  0.97183  0.77864  1.0000
  S   S576      1.0  0.54542  0.88465  0.98120  1.0000
  H   H2296     1.0  0.67216  0.95974  0.98067  1.0000
  C   C1439     1.0  0.98643  0.72888  0.97762  1.0000
  H   H2297     1.0  0.90191  0.67682  0.94697  1.0000
  H   H2298     1.0  0.00126  0.93550  0.76939  1.0000
  H   H2299     1.0  0.99982  0.68990  0.94337  1.0000
  H   H2300     1.0  0.92141  0.94596  0.74878  1.0000
  C   C1440     1.0  0.95098  0.00197  0.78190  1.0000
  H   H2301     1.0  0.97092  0.99758  0.84764  1.0000
  H   H2302     1.0  0.88801  0.67204  0.97360  1.0000
  H   H2303     1.0  0.81258  0.00484  0.77239  1.0000
  H   H2304     1.0  0.00539  0.93004  0.78733  1.0000
