data_image0
_chemical_formula_structural       CH3C2SHCHCHNHCHFeH3SHFeC2SHSCHCHNCHCH3NH2C2FeCHSC2H4FeCHFeSNSCSHCHCHCH2CHSH2CHC3H4C2HCH3SH2CFe2S2CHCSHFe2CFeH2CH3C2H2SNCH3SH3FeS2H2CHSH3SHCHNHCH2SHCNC2H2C3H5C2H7SCHSCHSH2C3HC2H2C2HFeCNSC2H4CHC2H2C2SC2SHCH4CHNCHC2H5CNSH2C2HCH2FeSCH2SHCHSHCH2CH3C3FeSCH2CHFeS3FeH3CFeCHCH2SH4C2S2HCH2CH2CHCHCH4CSHCH2NH2CHCH5CH4CFeHSHC3NFeCFeSCFeHCH2C2H2SCSHCH2C2H4C3H2N2H6C2H2C2H3SH2FeS2HCS2HFe2CHSCHCHC2H3SH2FeC2H4CHCH3CH3SC2H2CHNCHSHSH2Fe2SFe2HSCSFeSCHSFeS2C2S2HFeSHNSCHSHFeHCH7CSH3CHCHC4S3C3HCHCHCHC2H2C2FeH5CH2CH5C2NH4SH2CNHSHCH5CHCH5CFeSH5C2HCHCSC2SFeCSH2CHCH2SH2SHCHCH2CH3CHCNHCH2CHFeCHC3HC2SHSHCSH2SCH3C2FeHNCSFeHCH2CS2C2FeCHC2H2CH5CH2CHNHC2HC2FeCH4SHCSCHCSHC4SCH3CHCFeH3CNHFeH2CH2CNC2FeCSCHCH4CSCH2SH6CH2CH2SFeHFeHSC2HCHC2NCH4SHSFeCHSHSCFeH4
_chemical_formula_sum              "C240 H384 S96 N24 Fe48"
_cell_length_a       29.5259
_cell_length_b       22.0704
_cell_length_c       19.8698
_cell_angle_alpha    86.1139
_cell_angle_beta     87.198
_cell_angle_gamma    66.2266

_space_group_name_H-M_alt    "P 1"
_space_group_IT_number       1

loop_
  _space_group_symop_operation_xyz
  'x, y, z'

loop_
  _atom_site_type_symbol
  _atom_site_label
  _atom_site_symmetry_multiplicity
  _atom_site_fract_x
  _atom_site_fract_y
  _atom_site_fract_z
  _atom_site_occupancy
  C   C1        1.0  0.09339  0.38312  0.02561  1.0000
  H   H1        1.0  0.41775  0.34165  0.07999  1.0000
  H   H2        1.0  0.47381  0.24995  0.89270  1.0000
  H   H3        1.0  0.30722  0.43524  0.90095  1.0000
  C   C2        1.0  0.28813  0.25536  0.90410  1.0000
  C   C3        1.0  0.42700  0.49297  0.01559  1.0000
  S   S1        1.0  0.24890  0.41824  0.02199  1.0000
  H   H4        1.0  0.07793  0.25543  0.99231  1.0000
  C   C4        1.0  0.44783  0.32109  0.04391  1.0000
  H   H5        1.0  0.22321  0.22477  0.98383  1.0000
  C   C5        1.0  0.08553  0.37192  0.09428  1.0000
  H   H6        1.0  0.26155  0.29994  0.92932  1.0000
  N   N1        1.0  0.45037  0.50902  0.95334  1.0000
  H   H7        1.0  0.41009  0.45751  0.00625  1.0000
  C   C6        1.0  0.47923  0.27012  0.93803  1.0000
  H   H8        1.0  0.01265  0.29907  0.98014  1.0000
  Fe  Fe1       1.0  0.32152  0.33454  0.04459  1.0000
  H   H9        1.0  0.19414  0.29015  0.87351  1.0000
  H   H10       1.0  0.32041  0.23038  0.93721  1.0000
  H   H11       1.0  0.12765  0.48756  0.92482  1.0000
  S   S2        1.0  0.38187  0.29971  0.96494  1.0000
  H   H12       1.0  0.05890  0.42317  0.93028  1.0000
  Fe  Fe2       1.0  0.21367  0.34938  0.05935  1.0000
  C   C7        1.0  0.28734  0.47993  0.87046  1.0000
  C   C8        1.0  0.05290  0.41345  0.98335  1.0000
  S   S3        1.0  0.28660  0.26352  0.07519  1.0000
  H   H13       1.0  0.47638  0.41032  0.91848  1.0000
  S   S4        1.0  0.15333  0.35598  0.99049  1.0000
  C   C9        1.0  0.00460  0.43087  0.00937  1.0000
  H   H14       1.0  0.45452  0.46994  0.05616  1.0000
  C   C10       1.0  0.44007  0.29663  0.98434  1.0000
  H   H15       1.0  0.39816  0.50070  0.88654  1.0000
  N   N2        1.0  0.26465  0.21012  0.88953  1.0000
  C   C11       1.0  0.99674  0.41736  0.07772  1.0000
  H   H16       1.0  0.09705  0.30432  0.88565  1.0000
  C   C12       1.0  0.04538  0.25297  0.96835  1.0000
  H   H17       1.0  0.99992  0.20381  0.88629  1.0000
  H   H18       1.0  0.14800  0.50110  0.11229  1.0000
  H   H19       1.0  0.03191  0.35033  0.87281  1.0000
  N   N3        1.0  0.05344  0.24609  0.89469  1.0000
  H   H20       1.0  0.03898  0.21033  0.99335  1.0000
  H   H21       1.0  0.14396  0.21779  0.11203  1.0000
  C   C13       1.0  0.00868  0.24581  0.86461  1.0000
  C   C14       1.0  0.06360  0.30232  0.86412  1.0000
  Fe  Fe3       1.0  0.28352  0.29801  0.17915  1.0000
  C   C15       1.0  0.11839  0.49316  0.31547  1.0000
  H   H22       1.0  0.11303  0.41371  0.22470  1.0000
  S   S5        1.0  0.30562  0.22257  0.26603  1.0000
  C   C16       1.0  0.03718  0.38851  0.12018  1.0000
  C   C17       1.0  0.08733  0.42001  0.26866  1.0000
  H   H23       1.0  0.03118  0.37812  0.17281  1.0000
  H   H24       1.0  0.14633  0.33031  0.35881  1.0000
  H   H25       1.0  0.38376  0.24074  0.18772  1.0000
  H   H26       1.0  0.08282  0.26653  0.20439  1.0000
  Fe  Fe4       1.0  0.24676  0.44182  0.12966  1.0000
  C   C18       1.0  0.13403  0.21753  0.28370  1.0000
  H   H27       1.0  0.14706  0.48514  0.27461  1.0000
  Fe  Fe5       1.0  0.01203  0.29864  0.31715  1.0000
  S   S6        1.0  0.20742  0.37748  0.16658  1.0000
  N   N4        1.0  0.10747  0.43372  0.32967  1.0000
  S   S7        1.0  0.32266  0.36493  0.14982  1.0000
  C   C19       1.0  0.39797  0.19153  0.21074  1.0000
  S   S8        1.0  0.09080  0.24908  0.34970  1.0000
  H   H28       1.0  0.05170  0.46137  0.25442  1.0000
  C   C20       1.0  0.15478  0.20578  0.16413  1.0000
  H   H29       1.0  0.11683  0.34816  0.12679  1.0000
  C   C21       1.0  0.15331  0.37606  0.34865  1.0000
  H   H30       1.0  0.18233  0.36540  0.30812  1.0000
  C   C22       1.0  0.12018  0.23337  0.21635  1.0000
  H   H31       1.0  0.08102  0.37361  0.27621  1.0000
  H   H32       1.0  0.13246  0.50629  0.36063  1.0000
  C   C23       1.0  0.40154  0.21686  0.39521  1.0000
  H   H33       1.0  0.19822  0.23922  0.57967  1.0000
  S   S9        1.0  0.16741  0.47614  0.49117  1.0000
  H   H34       1.0  0.41782  0.25267  0.40576  1.0000
  H   H35       1.0  0.06152  0.40150  0.39736  1.0000
  C   C24       1.0  0.25877  0.44928  0.54020  1.0000
  H   H36       1.0  0.16907  0.38427  0.39512  1.0000
  C   C25       1.0  0.33500  0.40606  0.47349  1.0000
  C   C26       1.0  0.23170  0.45082  0.48379  1.0000
  C   C27       1.0  0.31032  0.42767  0.53479  1.0000
  H   H37       1.0  0.08448  0.45603  0.43275  1.0000
  H   H38       1.0  0.36650  0.24544  0.36805  1.0000
  H   H39       1.0  0.33106  0.42636  0.57849  1.0000
  H   H40       1.0  0.32708  0.38988  0.36974  1.0000
  C   C28       1.0  0.25625  0.43059  0.42197  1.0000
  C   C29       1.0  0.30803  0.40690  0.41719  1.0000
  H   H41       1.0  0.23553  0.43156  0.37820  1.0000
  C   C30       1.0  0.07056  0.44556  0.38570  1.0000
  H   H42       1.0  0.03543  0.48858  0.37332  1.0000
  H   H43       1.0  0.24003  0.46489  0.58809  1.0000
  H   H44       1.0  0.32083  0.25961  0.47748  1.0000
  S   S10       1.0  0.39968  0.37554  0.46796  1.0000
  H   H45       1.0  0.37126  0.26967  0.51484  1.0000
  H   H46       1.0  0.35038  0.20851  0.55059  1.0000
  C   C31       1.0  0.35711  0.23233  0.50221  1.0000
  Fe  Fe6       1.0  0.42466  0.44703  0.51266  1.0000
  Fe  Fe7       1.0  0.14915  0.45028  0.59684  1.0000
  S   S11       1.0  0.37846  0.51802  0.58882  1.0000
  S   S12       1.0  0.46646  0.45504  0.74616  1.0000
  C   C32       1.0  0.44071  0.24474  0.75621  1.0000
  H   H47       1.0  0.37175  0.28093  0.65811  1.0000
  C   C33       1.0  0.22087  0.24635  0.84779  1.0000
  S   S13       1.0  0.20405  0.35817  0.64738  1.0000
  H   H48       1.0  0.37464  0.41079  0.76586  1.0000
  Fe  Fe8       1.0  0.19290  0.41995  0.73566  1.0000
  Fe  Fe9       1.0  0.45089  0.49359  0.63882  1.0000
  C   C34       1.0  0.36374  0.31246  0.70215  1.0000
  Fe  Fe10      1.0  0.08063  0.48328  0.72048  1.0000
  H   H49       1.0  0.47211  0.33252  0.69401  1.0000
  H   H50       1.0  0.42985  0.35777  0.80872  1.0000
  C   C35       1.0  0.26297  0.47688  0.81305  1.0000
  H   H51       1.0  0.47668  0.24231  0.77388  1.0000
  H   H52       1.0  0.44629  0.30075  0.63196  1.0000
  H   H53       1.0  0.30173  0.27360  0.85727  1.0000
  C   C36       1.0  0.20206  0.18667  0.67608  1.0000
  C   C37       1.0  0.43692  0.33326  0.67540  1.0000
  H   H54       1.0  0.41488  0.38478  0.65583  1.0000
  H   H55       1.0  0.42219  0.22906  0.80003  1.0000
  S   S14       1.0  0.14199  0.23686  0.70191  1.0000
  N   N5        1.0  0.40943  0.31226  0.72959  1.0000
  C   C38       1.0  0.39631  0.35873  0.78463  1.0000
  H   H56       1.0  0.33802  0.36356  0.68554  1.0000
  H   H57       1.0  0.44919  0.20774  0.71705  1.0000
  H   H58       1.0  0.23123  0.26473  0.79834  1.0000
  S   S15       1.0  0.25991  0.40235  0.79498  1.0000
  H   H59       1.0  0.37331  0.34644  0.82483  1.0000
  H   H60       1.0  0.34328  0.29390  0.74092  1.0000
  H   H61       1.0  0.06980  0.29881  0.80854  1.0000
  Fe  Fe11      1.0  0.13827  0.34005  0.68729  1.0000
  S   S16       1.0  0.13142  0.39474  0.78033  1.0000
  S   S17       1.0  0.14150  0.51422  0.68323  1.0000
  H   H62       1.0  0.02552  0.41578  0.74023  1.0000
  H   H63       1.0  0.01364  0.24083  0.80901  1.0000
  C   C39       1.0  0.22161  0.20034  0.61419  1.0000
  H   H64       1.0  0.20096  0.21476  0.83773  1.0000
  S   S18       1.0  0.08372  0.42706  0.62881  1.0000
  H   H65       1.0  0.07686  0.69578  0.94897  1.0000
  H   H66       1.0  0.34327  0.82222  0.01432  1.0000
  H   H67       1.0  0.39729  0.53801  0.03588  1.0000
  S   S19       1.0  0.24253  0.67632  0.88604  1.0000
  H   H68       1.0  0.16101  0.57282  0.00889  1.0000
  C   C40       1.0  0.09924  0.53205  0.94816  1.0000
  H   H69       1.0  0.36324  0.68697  0.99260  1.0000
  N   N6        1.0  0.10878  0.59190  0.92997  1.0000
  H   H70       1.0  0.07068  0.64270  0.01789  1.0000
  C   C41       1.0  0.28312  0.54145  0.89110  1.0000
  H   H71       1.0  0.38108  0.58216  0.91646  1.0000
  H   H72       1.0  0.44223  0.60394  0.98578  1.0000
  S   S20       1.0  0.11333  0.81673  0.91033  1.0000
  H   H73       1.0  0.25374  0.84901  0.99171  1.0000
  C   C42       1.0  0.34882  0.81155  0.96036  1.0000
  N   N7        1.0  0.31734  0.77830  0.94092  1.0000
  C   C43       1.0  0.07060  0.64980  0.96193  1.0000
  C   C44       1.0  0.32390  0.72182  0.98953  1.0000
  H   H74       1.0  0.03287  0.65926  0.94491  1.0000
  H   H75       1.0  0.23964  0.80075  0.93363  1.0000
  C   C45       1.0  0.47115  0.55748  0.96744  1.0000
  C   C46       1.0  0.15817  0.58199  0.95327  1.0000
  C   C47       1.0  0.26486  0.82559  0.94226  1.0000
  H   H76       1.0  0.30215  0.69385  0.97567  1.0000
  H   H77       1.0  0.16659  0.62628  0.94024  1.0000
  H   H78       1.0  0.37095  0.71731  0.86944  1.0000
  H   H79       1.0  0.38884  0.78005  0.95269  1.0000
  H   H80       1.0  0.29921  0.54423  0.93797  1.0000
  C   C48       1.0  0.33211  0.75481  0.87203  1.0000
  C   C49       1.0  0.41299  0.53722  0.90028  1.0000
  H   H81       1.0  0.31083  0.73907  0.04116  1.0000
  H   H82       1.0  0.18780  0.53879  0.92996  1.0000
  H   H83       1.0  0.06247  0.53767  0.93051  1.0000
  H   H84       1.0  0.48927  0.57044  0.92163  1.0000
  H   H85       1.0  0.10012  0.52103  0.00362  1.0000
  H   H86       1.0  0.23025  0.66975  0.23541  1.0000
  H   H87       1.0  0.22184  0.68348  0.32407  1.0000
  S   S21       1.0  0.33215  0.83678  0.23698  1.0000
  C   C50       1.0  0.12869  0.54678  0.13710  1.0000
  H   H88       1.0  0.35445  0.65000  0.28607  1.0000
  S   S22       1.0  0.45808  0.53295  0.19323  1.0000
  C   C51       1.0  0.45748  0.60935  0.16248  1.0000
  H   H89       1.0  0.14965  0.66785  0.20980  1.0000
  S   S23       1.0  0.21990  0.54619  0.16020  1.0000
  H   H90       1.0  0.05866  0.71366  0.22028  1.0000
  H   H91       1.0  0.30576  0.52582  0.24955  1.0000
  C   C52       1.0  0.41250  0.66138  0.14580  1.0000
  C   C53       1.0  0.45325  0.73769  0.13520  1.0000
  C   C54       1.0  0.12962  0.64108  0.19133  1.0000
  H   H92       1.0  0.48594  0.78216  0.35826  1.0000
  C   C55       1.0  0.41048  0.72546  0.13176  1.0000
  C   C56       1.0  0.15512  0.58049  0.16216  1.0000
  H   H93       1.0  0.08472  0.53705  0.29941  1.0000
  H   H94       1.0  0.37889  0.65277  0.14658  1.0000
  C   C57       1.0  0.11811  0.80643  0.24255  1.0000
  C   C58       1.0  0.24083  0.64545  0.28662  1.0000
  H   H95       1.0  0.30932  0.58912  0.19092  1.0000
  Fe  Fe12      1.0  0.02319  0.80056  0.35448  1.0000
  C   C59       1.0  0.31338  0.67033  0.28382  1.0000
  N   N8        1.0  0.29511  0.61698  0.29399  1.0000
  S   S24       1.0  0.44914  0.81924  0.13212  1.0000
  C   C60       1.0  0.07689  0.57249  0.14383  1.0000
  C   C61       1.0  0.07805  0.66690  0.19758  1.0000
  H   H96       1.0  0.29814  0.70738  0.32333  1.0000
  H   H97       1.0  0.30255  0.69750  0.23387  1.0000
  H   H98       1.0  0.14215  0.79739  0.13781  1.0000
  H   H99       1.0  0.44289  0.67137  0.27926  1.0000
  C   C62       1.0  0.05169  0.63234  0.17494  1.0000
  H   H100      1.0  0.46001  0.76790  0.28456  1.0000
  C   C63       1.0  0.31858  0.56698  0.24310  1.0000
  C   C64       1.0  0.12874  0.81768  0.30715  1.0000
  H   H101      1.0  0.08478  0.79937  0.23428  1.0000
  H   H102      1.0  0.22584  0.60646  0.29323  1.0000
  C   C65       1.0  0.15047  0.80555  0.18804  1.0000
  C   C66       1.0  0.19266  0.81745  0.19832  1.0000
  S   S25       1.0  0.23147  0.82177  0.13070  1.0000
  C   C67       1.0  0.17163  0.82749  0.31740  1.0000
  C   C68       1.0  0.20330  0.82803  0.26311  1.0000
  S   S26       1.0  0.02668  0.69721  0.35978  1.0000
  H   H103      1.0  0.05657  0.54560  0.12609  1.0000
  C   C69       1.0  0.44788  0.65968  0.33415  1.0000
  H   H104      1.0  0.37542  0.76581  0.12080  1.0000
  H   H105      1.0  0.23587  0.83691  0.27165  1.0000
  H   H106      1.0  0.35966  0.54459  0.24677  1.0000
  H   H107      1.0  0.46353  0.60474  0.34227  1.0000
  C   C70       1.0  0.46160  0.75946  0.34044  1.0000
  H   H108      1.0  0.41045  0.67998  0.35876  1.0000
  N   N9        1.0  0.48033  0.68816  0.36100  1.0000
  C   C71       1.0  0.30769  0.58509  0.36233  1.0000
  H   H109      1.0  0.42360  0.78694  0.36145  1.0000
  C   C72       1.0  0.25235  0.78691  0.47770  1.0000
  C   C73       1.0  0.16608  0.64836  0.57984  1.0000
  H   H110      1.0  0.29408  0.54496  0.37209  1.0000
  H   H111      1.0  0.17996  0.83593  0.36722  1.0000
  H   H112      1.0  0.10410  0.59417  0.54584  1.0000
  H   H113      1.0  0.05655  0.66880  0.51322  1.0000
  H   H114      1.0  0.34844  0.56236  0.36903  1.0000
  C   C74       1.0  0.20627  0.82476  0.50667  1.0000
  N   N10       1.0  0.12480  0.67723  0.53238  1.0000
  S   S27       1.0  0.43839  0.52453  0.44795  1.0000
  H   H115      1.0  0.07186  0.66008  0.60072  1.0000
  H   H116      1.0  0.42592  0.79887  0.54156  1.0000
  C   C75       1.0  0.28736  0.73460  0.51513  1.0000
  C   C76       1.0  0.14445  0.66202  0.46284  1.0000
  H   H117      1.0  0.16224  0.60764  0.45661  1.0000
  C   C77       1.0  0.27630  0.72052  0.58227  1.0000
  H   H118      1.0  0.17241  0.68303  0.44907  1.0000
  H   H119      1.0  0.19457  0.66888  0.56847  1.0000
  Fe  Fe13      1.0  0.39658  0.59460  0.52722  1.0000
  S   S28       1.0  0.08843  0.82265  0.37584  1.0000
  C   C78       1.0  0.10098  0.74988  0.53774  1.0000
  H   H120      1.0  0.29144  0.62156  0.40213  1.0000
  H   H121      1.0  0.30358  0.68047  0.61162  1.0000
  S   S29       1.0  0.34420  0.68862  0.47556  1.0000
  H   H122      1.0  0.06702  0.77252  0.50718  1.0000
  C   C79       1.0  0.41251  0.83807  0.50238  1.0000
  H   H123      1.0  0.12599  0.77395  0.51849  1.0000
  S   S30       1.0  0.46505  0.57725  0.58434  1.0000
  H   H124      1.0  0.11464  0.68378  0.42549  1.0000
  C   C80       1.0  0.08774  0.64888  0.54887  1.0000
  H   H125      1.0  0.26111  0.79863  0.42620  1.0000
  H   H126      1.0  0.44252  0.70510  0.45782  1.0000
  C   C81       1.0  0.48031  0.67940  0.43539  1.0000
  H   H127      1.0  0.33897  0.83993  0.50562  1.0000
  H   H128      1.0  0.09034  0.76384  0.59078  1.0000
  H   H129      1.0  0.18479  0.59354  0.57669  1.0000
  C   C82       1.0  0.19516  0.81162  0.57362  1.0000
  C   C83       1.0  0.23018  0.75957  0.61185  1.0000
  C   C84       1.0  0.25520  0.59949  0.85352  1.0000
  Fe  Fe14      1.0  0.12865  0.84564  0.71871  1.0000
  S   S31       1.0  0.41511  0.74118  0.73363  1.0000
  C   C85       1.0  0.10725  0.60363  0.85591  1.0000
  H   H130      1.0  0.11457  0.64807  0.84046  1.0000
  H   H131      1.0  0.45543  0.59893  0.75098  1.0000
  C   C86       1.0  0.23862  0.53427  0.77269  1.0000
  H   H132      1.0  0.22196  0.74955  0.66402  1.0000
  Fe  Fe15      1.0  0.41250  0.84111  0.75085  1.0000
  S   S32       1.0  0.18147  0.85160  0.79232  1.0000
  S   S33       1.0  0.12806  0.75046  0.76353  1.0000
  S   S34       1.0  0.99843  0.79129  0.85411  1.0000
  Fe  Fe16      1.0  0.06498  0.81374  0.82867  1.0000
  H   H133      1.0  0.15302  0.65894  0.63295  1.0000
  H   H134      1.0  0.99233  0.73315  0.71591  1.0000
  H   H135      1.0  0.13561  0.56076  0.83033  1.0000
  C   C87       1.0  0.23482  0.59564  0.79286  1.0000
  Fe  Fe17      1.0  0.17662  0.76011  0.84180  1.0000
  C   C88       1.0  0.48266  0.61607  0.76655  1.0000
  H   H136      1.0  0.21618  0.63979  0.76150  1.0000
  C   C89       1.0  0.47301  0.68354  0.76013  1.0000
  H   H137      1.0  0.07036  0.61180  0.83647  1.0000
  H   H138      1.0  0.32944  0.79632  0.83512  1.0000
  S   S35       1.0  0.01091  0.54803  0.77406  1.0000
  H   H139      1.0  0.22285  0.53145  0.72589  1.0000
  H   H140      1.0  0.42925  0.55114  0.85309  1.0000
  H   H141      1.0  0.30812  0.73193  0.85364  1.0000
  H   H142      1.0  0.40126  0.97512  0.99734  1.0000
  C   C90       1.0  0.46758  0.06144  0.03943  1.0000
  C   C91       1.0  0.15677  0.00697  0.91196  1.0000
  S   S36       1.0  0.10038  0.99936  0.90859  1.0000
  S   S37       1.0  0.31091  0.00334  0.92819  1.0000
  H   H143      1.0  0.25763  0.86620  0.90283  1.0000
  C   C92       1.0  0.42671  0.00105  0.98904  1.0000
  H   H144      1.0  0.28161  0.15515  0.98535  1.0000
  H   H145      1.0  0.41154  0.03974  0.94782  1.0000
  C   C93       1.0  0.24937  0.18431  0.95329  1.0000
  H   H146      1.0  0.33995  0.85956  0.93112  1.0000
  H   H147      1.0  0.46299  0.96392  0.97106  1.0000
  C   C94       1.0  0.44995  0.97728  0.10529  1.0000
  H   H148      1.0  0.48571  0.93698  0.09070  1.0000
  C   C95       1.0  0.17076  0.02386  0.97171  1.0000
  H   H149      1.0  0.00597  0.90538  0.90778  1.0000
  C   C96       1.0  0.21769  0.02475  0.97581  1.0000
  H   H150      1.0  0.14622  0.03359  0.01565  1.0000
  H   H151      1.0  0.36937  0.12310  0.03450  1.0000
  H   H152      1.0  0.23086  0.15072  0.94417  1.0000
  H   H153      1.0  0.45536  0.10152  0.99882  1.0000
  C   C97       1.0  0.38313  0.08059  0.07224  1.0000
  S   S38       1.0  0.31177  0.92545  0.09292  1.0000
  H   H154      1.0  0.35459  0.05942  0.07862  1.0000
  C   C98       1.0  0.25044  0.00918  0.92019  1.0000
  H   H155      1.0  0.22900  0.03559  0.02281  1.0000
  H   H156      1.0  0.33418  0.12644  0.88259  1.0000
  N   N11       1.0  0.43184  0.03023  0.05148  1.0000
  H   H157      1.0  0.47221  0.08406  0.08538  1.0000
  H   H158      1.0  0.08882  0.13983  0.90200  1.0000
  C   C99       1.0  0.09610  0.18332  0.88151  1.0000
  H   H159      1.0  0.13021  0.18075  0.90534  1.0000
  C   C100      1.0  0.46745  0.08706  0.23182  1.0000
  H   H160      1.0  0.16788  0.95453  0.32523  1.0000
  H   H161      1.0  0.42737  0.18096  0.35988  1.0000
  H   H162      1.0  0.08373  0.96241  0.29787  1.0000
  H   H163      1.0  0.38500  0.10091  0.12128  1.0000
  H   H164      1.0  0.45587  0.99648  0.15273  1.0000
  C   C101      1.0  0.36713  0.16885  0.25051  1.0000
  H   H165      1.0  0.11902  0.03113  0.23220  1.0000
  H   H166      1.0  0.36196  0.08577  0.30826  1.0000
  H   H167      1.0  0.19346  0.16140  0.35087  1.0000
  H   H168      1.0  0.36523  0.97566  0.35988  1.0000
  C   C102      1.0  0.20286  0.16079  0.17938  1.0000
  Fe  Fe18      1.0  0.27070  0.88205  0.16424  1.0000
  H   H169      1.0  0.06710  0.10619  0.25282  1.0000
  S   S39       1.0  0.23391  0.97507  0.21947  1.0000
  H   H170      1.0  0.45150  0.01346  0.29345  1.0000
  C   C103      1.0  0.14959  0.99452  0.36077  1.0000
  C   C104      1.0  0.44791  0.15085  0.20128  1.0000
  C   C105      1.0  0.43673  0.06348  0.27112  1.0000
  N   N12       1.0  0.09970  0.03956  0.33809  1.0000
  Fe  Fe19      1.0  0.28101  0.01466  0.15480  1.0000
  C   C106      1.0  0.21656  0.14461  0.24681  1.0000
  Fe  Fe20      1.0  0.37215  0.88394  0.16778  1.0000
  S   S40       1.0  0.34508  0.97748  0.22439  1.0000
  C   C107      1.0  0.38625  0.10420  0.27947  1.0000
  Fe  Fe21      1.0  0.29900  0.93355  0.28643  1.0000
  H   H171      1.0  0.25378  0.11016  0.25885  1.0000
  C   C108      1.0  0.10371  0.06947  0.27037  1.0000
  H   H172      1.0  0.12884  0.09583  0.27030  1.0000
  H   H173      1.0  0.03001  0.03474  0.31999  1.0000
  C   C109      1.0  0.06838  0.00181  0.33496  1.0000
  C   C110      1.0  0.18244  0.17377  0.29888  1.0000
  H   H174      1.0  0.47118  0.16914  0.17000  1.0000
  H   H175      1.0  0.42282  0.95477  0.11713  1.0000
  S   S41       1.0  0.24424  0.11973  0.11479  1.0000
  C   C111      1.0  0.37849  0.93666  0.39883  1.0000
  S   S42       1.0  0.28729  0.93367  0.39832  1.0000
  H   H176      1.0  0.14798  0.97028  0.41116  1.0000
  C   C112      1.0  0.37188  0.13503  0.44107  1.0000
  H   H177      1.0  0.36165  0.11144  0.48698  1.0000
  H   H178      1.0  0.28556  0.17263  0.54771  1.0000
  C   C113      1.0  0.19215  0.98759  0.54511  1.0000
  C   C114      1.0  0.34653  0.91012  0.42980  1.0000
  H   H179      1.0  0.46743  0.10986  0.46047  1.0000
  H   H180      1.0  0.45303  0.93074  0.39137  1.0000
  H   H181      1.0  0.17462  0.04002  0.52527  1.0000
  H   H182      1.0  0.04054  0.12951  0.36928  1.0000
  C   C115      1.0  0.44513  0.86182  0.46828  1.0000
  C   C116      1.0  0.36320  0.86172  0.48253  1.0000
  C   C117      1.0  0.42794  0.91211  0.41755  1.0000
  H   H183      1.0  0.16217  0.97145  0.56238  1.0000
  H   H184      1.0  0.17939  0.86520  0.47754  1.0000
  N   N13       1.0  0.22608  0.98003  0.60031  1.0000
  N   N14       1.0  0.39254  0.18284  0.45786  1.0000
  H   H185      1.0  0.07177  0.07190  0.43726  1.0000
  H   H186      1.0  0.33806  0.15940  0.41024  1.0000
  H   H187      1.0  0.39933  0.09387  0.41260  1.0000
  H   H188      1.0  0.21232  0.95695  0.50230  1.0000
  H   H189      1.0  0.24771  0.05710  0.55845  1.0000
  H   H190      1.0  0.43419  0.11981  0.53991  1.0000
  C   C118      1.0  0.07726  0.09244  0.38630  1.0000
  C   C119      1.0  0.27136  0.16336  0.59658  1.0000
  H   H191      1.0  0.28557  0.97600  0.53191  1.0000
  H   H192      1.0  0.06590  0.97651  0.38465  1.0000
  C   C120      1.0  0.26429  0.00379  0.57544  1.0000
  C   C121      1.0  0.43970  0.14705  0.49304  1.0000
  H   H193      1.0  0.10115  0.11991  0.39189  1.0000
  H   H194      1.0  0.26882  0.87753  0.58069  1.0000
  H   H195      1.0  0.45602  0.18182  0.50708  1.0000
  S   S43       1.0  0.13770  0.86319  0.60803  1.0000
  H   H196      1.0  0.17432  0.02130  0.36395  1.0000
  H   H197      1.0  0.31196  0.17115  0.80334  1.0000
  Fe  Fe22      1.0  0.39260  0.98273  0.69987  1.0000
  S   S44       1.0  0.36410  0.06637  0.62105  1.0000
  S   S45       1.0  0.34358  0.93311  0.74228  1.0000
  H   H198      1.0  0.30547  0.06528  0.73973  1.0000
  C   C122      1.0  0.25003  0.90940  0.62331  1.0000
  S   S46       1.0  0.40820  0.00954  0.80009  1.0000
  S   S47       1.0  0.46071  0.88749  0.69919  1.0000
  H   H199      1.0  0.22233  0.01431  0.69972  1.0000
  Fe  Fe23      1.0  0.36224  0.95643  0.84244  1.0000
  Fe  Fe24      1.0  0.11320  0.90811  0.85369  1.0000
  C   C123      1.0  0.28205  0.10126  0.70370  1.0000
  H   H200      1.0  0.22262  0.89127  0.64689  1.0000
  S   S48       1.0  0.42702  0.85962  0.85511  1.0000
  C   C124      1.0  0.30191  0.11422  0.64192  1.0000
  H   H201      1.0  0.16830  0.00300  0.67664  1.0000
  C   C125      1.0  0.30046  0.15418  0.85270  1.0000
  H   H202      1.0  0.27849  0.90085  0.66145  1.0000
  C   C126      1.0  0.19779  0.01939  0.65713  1.0000
  C   C127      1.0  0.23198  0.13599  0.72003  1.0000
  H   H203      1.0  0.17671  0.98451  0.80831  1.0000
  H   H204      1.0  0.28413  0.11841  0.84291  1.0000
  H   H205      1.0  0.21683  0.12485  0.76763  1.0000
  S   S49       1.0  0.06059  0.90889  0.77604  1.0000
  H   H206      1.0  0.10418  0.17740  0.82638  1.0000
  H   H207      1.0  0.25913  0.98722  0.81555  1.0000
  Fe  Fe25      1.0  0.47191  0.91029  0.80397  1.0000
  C   C128      1.0  0.23504  0.99661  0.85926  1.0000
  C   C129      1.0  0.18834  0.99508  0.85520  1.0000
  H   H208      1.0  0.48970  0.01843  0.85029  1.0000
  H   H209      1.0  0.17950  0.07309  0.64170  1.0000
  H   H210      1.0  0.29155  0.99717  0.61478  1.0000
  H   H211      1.0  0.97357  0.45302  0.97607  1.0000
  C   C130      1.0  0.71732  0.39988  0.96423  1.0000
  H   H212      1.0  0.75296  0.40501  0.96929  1.0000
  C   C131      1.0  0.49063  0.44800  0.92993  1.0000
  H   H213      1.0  0.76384  0.24885  0.89637  1.0000
  H   H214      1.0  0.68880  0.45005  0.95051  1.0000
  H   H215      1.0  0.70656  0.38468  0.01500  1.0000
  C   C132      1.0  0.75892  0.28582  0.93456  1.0000
  H   H216      1.0  0.79562  0.28764  0.94059  1.0000
  H   H217      1.0  0.66070  0.33120  0.95745  1.0000
  H   H218      1.0  0.50906  0.45816  0.88302  1.0000
  S   S50       1.0  0.93650  0.43517  0.10939  1.0000
  C   C133      1.0  0.67275  0.34784  0.90848  1.0000
  C   C134      1.0  0.53400  0.29244  0.01001  1.0000
  H   H219      1.0  0.97567  0.29267  0.87323  1.0000
  H   H220      1.0  0.55615  0.24726  0.91477  1.0000
  C   C135      1.0  0.52594  0.26828  0.95072  1.0000
  H   H221      1.0  0.64338  0.39678  0.89295  1.0000
  N   N15       1.0  0.72124  0.35173  0.91368  1.0000
  C   C136      1.0  0.49479  0.31937  0.05657  1.0000
  H   H222      1.0  0.74825  0.26681  0.98345  1.0000
  S   S51       1.0  0.59345  0.28807  0.02442  1.0000
  H   H223      1.0  0.51973  0.42516  0.96837  1.0000
  S   S52       1.0  0.57483  0.45325  0.09672  1.0000
  H   H224      1.0  0.67407  0.31256  0.87039  1.0000
  H   H225      1.0  0.50050  0.33855  0.10237  1.0000
  Fe  Fe26      1.0  0.59738  0.34437  0.11131  1.0000
  Fe  Fe27      1.0  0.93941  0.38403  0.21174  1.0000
  S   S53       1.0  0.66819  0.32911  0.15925  1.0000
  Fe  Fe28      1.0  0.64129  0.43961  0.15468  1.0000
  Fe  Fe29      1.0  0.91798  0.27697  0.29467  1.0000
  H   H226      1.0  0.80799  0.31508  0.27468  1.0000
  S   S54       1.0  0.98173  0.27401  0.22675  1.0000
  C   C137      1.0  0.82996  0.21384  0.31305  1.0000
  S   S55       1.0  0.69350  0.48466  0.11546  1.0000
  Fe  Fe30      1.0  0.62546  0.34158  0.25735  1.0000
  S   S56       1.0  0.66436  0.26389  0.33842  1.0000
  C   C138      1.0  0.74460  0.29345  0.30374  1.0000
  H   H227      1.0  0.71814  0.34288  0.28960  1.0000
  S   S57       1.0  0.60216  0.45237  0.25552  1.0000
  Fe  Fe31      1.0  0.53669  0.45804  0.19735  1.0000
  S   S58       1.0  0.87287  0.38561  0.27302  1.0000
  S   S59       1.0  0.55610  0.34862  0.20914  1.0000
  C   C139      1.0  0.79555  0.27790  0.29582  1.0000
  C   C140      1.0  0.72799  0.24526  0.32986  1.0000
  S   S60       1.0  0.97421  0.40843  0.29789  1.0000
  S   S61       1.0  0.89386  0.19205  0.30064  1.0000
  H   H228      1.0  0.63231  0.21170  0.14995  1.0000
  Fe  Fe32      1.0  0.91152  0.40138  0.36051  1.0000
  S   S62       1.0  0.57454  0.49765  0.45221  1.0000
  H   H229      1.0  0.72981  0.44838  0.41278  1.0000
  N   N16       1.0  0.76891  0.38967  0.49902  1.0000
  S   S63       1.0  0.87425  0.46773  0.44492  1.0000
  C   C141      1.0  0.76316  0.43920  0.44256  1.0000
  H   H230      1.0  0.78064  0.28707  0.51291  1.0000
  S   S64       1.0  0.95183  0.29299  0.38657  1.0000
  H   H231      1.0  0.79588  0.42264  0.40735  1.0000
  Fe  Fe33      1.0  0.50554  0.50229  0.50842  1.0000
  H   H232      1.0  0.81754  0.34528  0.58241  1.0000
  C   C142      1.0  0.72424  0.41300  0.54350  1.0000
  H   H233      1.0  0.70087  0.23038  0.48723  1.0000
  H   H234      1.0  0.80964  0.42864  0.55734  1.0000
  H   H235      1.0  0.84729  0.36187  0.50646  1.0000
  H   H236      1.0  0.72706  0.37693  0.58673  1.0000
  H   H237      1.0  0.69031  0.42087  0.51559  1.0000
  H   H238      1.0  0.75953  0.48747  0.46120  1.0000
  H   H239      1.0  0.80848  0.30738  0.43715  1.0000
  C   C143      1.0  0.81272  0.38078  0.53811  1.0000
  S   S65       1.0  0.49585  0.41741  0.56575  1.0000
  H   H240      1.0  0.62220  0.23297  0.53823  1.0000
  H   H241      1.0  0.71843  0.46096  0.56489  1.0000
  H   H242      1.0  0.88838  0.50944  0.57309  1.0000
  C   C144      1.0  0.77547  0.32588  0.47181  1.0000
  H   H243      1.0  0.74272  0.33103  0.44258  1.0000
  C   C145      1.0  0.90568  0.51593  0.46687  1.0000
  H   H244      1.0  0.72591  0.21830  0.57035  1.0000
  C   C146      1.0  0.64399  0.19412  0.57653  1.0000
  C   C147      1.0  0.72079  0.19208  0.52720  1.0000
  C   C148      1.0  0.53017  0.40509  0.74509  1.0000
  C   C149      1.0  0.56182  0.42099  0.69943  1.0000
  S   S66       1.0  0.86555  0.40216  0.78343  1.0000
  S   S67       1.0  0.69372  0.26731  0.72865  1.0000
  S   S68       1.0  0.72560  0.49725  0.71669  1.0000
  C   C150      1.0  0.54912  0.34751  0.78712  1.0000
  C   C151      1.0  0.61222  0.37918  0.69527  1.0000
  C   C152      1.0  0.97253  0.50418  0.78376  1.0000
  H   H245      1.0  0.96847  0.35883  0.74302  1.0000
  C   C153      1.0  0.63103  0.32092  0.73635  1.0000
  H   H246      1.0  0.63639  0.39193  0.65982  1.0000
  C   C154      1.0  0.98871  0.43986  0.76126  1.0000
  H   H247      1.0  0.70733  0.42205  0.82964  1.0000
  C   C155      1.0  0.90839  0.43817  0.78976  1.0000
  H   H248      1.0  0.77181  0.37837  0.84912  1.0000
  C   C156      1.0  0.89326  0.50077  0.81622  1.0000
  C   C157      1.0  0.95663  0.40699  0.76390  1.0000
  H   H249      1.0  0.52472  0.33481  0.82199  1.0000
  H   H250      1.0  0.61378  0.26053  0.81487  1.0000
  C   C158      1.0  0.59949  0.30524  0.78258  1.0000
  C   C159      1.0  0.73580  0.37344  0.84729  1.0000
  Fe  Fe34      1.0  0.79272  0.48873  0.77171  1.0000
  H   H251      1.0  0.54748  0.46597  0.66750  1.0000
  H   H252      1.0  0.73949  0.33779  0.80816  1.0000
  H   H253      1.0  0.53482  0.51871  0.79889  1.0000
  H   H254      1.0  0.64765  0.22010  0.62088  1.0000
  H   H255      1.0  0.89413  0.83080  0.88394  1.0000
  C   C160      1.0  0.62778  0.65691  0.03955  1.0000
  H   H256      1.0  0.90820  0.68774  0.96647  1.0000
  H   H257      1.0  0.80226  0.70791  0.01043  1.0000
  C   C161      1.0  0.85755  0.57750  0.01506  1.0000
  H   H258      1.0  0.82774  0.59352  0.97733  1.0000
  H   H259      1.0  0.63869  0.60843  0.01595  1.0000
  H   H260      1.0  0.57099  0.81987  0.98953  1.0000
  H   H261      1.0  0.79241  0.79902  0.91069  1.0000
  H   H262      1.0  0.66209  0.65870  0.05832  1.0000
  C   C162      1.0  0.55708  0.70956  0.96826  1.0000
  C   C163      1.0  0.83246  0.69007  0.04773  1.0000
  N   N17       1.0  0.87469  0.63056  0.02519  1.0000
  H   H263      1.0  0.94609  0.56352  0.06106  1.0000
  H   H264      1.0  0.67064  0.71441  0.94888  1.0000
  H   H265      1.0  0.56392  0.78020  0.06906  1.0000
  H   H266      1.0  0.60367  0.65664  0.08406  1.0000
  S   S69       1.0  0.74961  0.53408  0.86412  1.0000
  H   H267      1.0  0.86745  0.66389  0.92063  1.0000
  H   H268      1.0  0.88821  0.53229  0.99663  1.0000
  C   C164      1.0  0.63632  0.71041  0.93319  1.0000
  N   N18       1.0  0.60260  0.71340  0.99148  1.0000
  H   H269      1.0  0.84383  0.73155  0.05463  1.0000
  S   S70       1.0  0.76396  0.69480  0.88010  1.0000
  H   H270      1.0  0.92787  0.60349  0.94304  1.0000
  C   C165      1.0  0.58957  0.77631  0.02492  1.0000
  H   H271      1.0  0.53848  0.74982  0.92938  1.0000
  H   H272      1.0  0.64764  0.66278  0.90807  1.0000
  H   H273      1.0  0.61868  0.75139  0.89479  1.0000
  H   H274      1.0  0.62307  0.78064  0.04352  1.0000
  H   H275      1.0  0.84288  0.56226  0.06297  1.0000
  C   C166      1.0  0.89551  0.64722  0.96094  1.0000
  H   H276      1.0  0.56543  0.66125  0.94567  1.0000
  C   C167      1.0  0.91324  0.60757  0.07693  1.0000
  H   H277      1.0  0.53000  0.71448  0.01068  1.0000
  H   H278      1.0  0.49955  0.53740  0.00696  1.0000
  H   H279      1.0  0.81648  0.67959  0.09671  1.0000
  H   H280      1.0  0.92626  0.64682  0.08708  1.0000
  H   H281      1.0  0.74356  0.78341  0.33291  1.0000
  C   C168      1.0  0.50095  0.62055  0.16073  1.0000
  Fe  Fe35      1.0  0.63704  0.81026  0.30076  1.0000
  S   S71       1.0  0.90656  0.76378  0.33947  1.0000
  H   H282      1.0  0.62417  0.57575  0.21023  1.0000
  H   H283      1.0  0.53164  0.69443  0.15109  1.0000
  H   H284      1.0  0.62512  0.67702  0.25829  1.0000
  H   H285      1.0  0.53577  0.58058  0.17408  1.0000
  H   H286      1.0  0.53330  0.66174  0.27852  1.0000
  C   C169      1.0  0.65566  0.58864  0.20090  1.0000
  C   C170      1.0  0.65605  0.64597  0.22775  1.0000
  H   H287      1.0  0.76796  0.63560  0.16472  1.0000
  C   C171      1.0  0.73648  0.62295  0.17465  1.0000
  H   H288      1.0  0.79884  0.67246  0.30145  1.0000
  C   C172      1.0  0.69642  0.66331  0.21378  1.0000
  S   S72       1.0  0.98776  0.66289  0.18981  1.0000
  C   C173      1.0  0.69524  0.54994  0.15934  1.0000
  C   C174      1.0  0.73571  0.56692  0.14703  1.0000
  S   S73       1.0  0.69860  0.73584  0.24143  1.0000
  Fe  Fe36      1.0  0.97474  0.73179  0.27326  1.0000
  C   C175      1.0  0.49874  0.68488  0.14735  1.0000
  S   S74       1.0  0.97686  0.83258  0.26228  1.0000
  H   H289      1.0  0.85178  0.67945  0.33531  1.0000
  H   H290      1.0  0.55710  0.67249  0.35621  1.0000
  C   C176      1.0  0.82001  0.66575  0.34826  1.0000
  H   H291      1.0  0.89936  0.59263  0.12565  1.0000
  C   C177      1.0  0.53139  0.65406  0.33412  1.0000
  H   H292      1.0  0.54583  0.59963  0.34605  1.0000
  H   H293      1.0  0.76635  0.53697  0.11527  1.0000
  S   S75       1.0  0.55468  0.85244  0.28863  1.0000
  H   H294      1.0  0.83512  0.61190  0.36333  1.0000
  H   H295      1.0  0.79398  0.79644  0.36626  1.0000
  S   S76       1.0  0.63194  0.80525  0.41317  1.0000
  H   H296      1.0  0.58034  0.53456  0.58859  1.0000
  C   C178      1.0  0.76545  0.77623  0.37887  1.0000
  H   H297      1.0  0.72471  0.70933  0.46216  1.0000
  C   C179      1.0  0.60324  0.55150  0.55492  1.0000
  H   H298      1.0  0.84905  0.71389  0.45046  1.0000
  H   H299      1.0  0.95831  0.61686  0.39415  1.0000
  C   C180      1.0  0.94421  0.59237  0.43350  1.0000
  H   H300      1.0  0.88450  0.78257  0.60425  1.0000
  H   H301      1.0  0.59694  0.75322  0.56393  1.0000
  H   H302      1.0  0.72590  0.68536  0.37707  1.0000
  C   C181      1.0  0.92709  0.54458  0.41689  1.0000
  H   H303      1.0  0.83300  0.64712  0.48377  1.0000
  C   C182      1.0  0.90469  0.53166  0.53416  1.0000
  N   N19       1.0  0.78814  0.70568  0.40249  1.0000
  H   H304      1.0  0.68669  0.60999  0.43450  1.0000
  C   C183      1.0  0.63538  0.56318  0.44264  1.0000
  H   H305      1.0  0.73997  0.80717  0.41799  1.0000
  H   H306      1.0  0.66740  0.78366  0.54997  1.0000
  C   C184      1.0  0.63259  0.58076  0.58109  1.0000
  H   H307      1.0  0.50502  0.69914  0.45785  1.0000
  Fe  Fe37      1.0  0.95884  0.73637  0.42529  1.0000
  C   C185      1.0  0.66337  0.59420  0.46836  1.0000
  H   H308      1.0  0.76544  0.62810  0.43916  1.0000
  C   C186      1.0  0.60548  0.54148  0.48578  1.0000
  C   C187      1.0  0.74922  0.68125  0.42085  1.0000
  C   C188      1.0  0.81764  0.69905  0.46256  1.0000
  H   H309      1.0  0.63749  0.55515  0.38921  1.0000
  C   C189      1.0  0.94122  0.61011  0.50042  1.0000
  C   C190      1.0  0.66321  0.60132  0.53778  1.0000
  S   S77       1.0  0.70426  0.63130  0.56960  1.0000
  H   H310      1.0  0.92129  0.59077  0.60305  1.0000
  S   S78       1.0  0.95407  0.67785  0.51972  1.0000
  H   H311      1.0  0.79468  0.73039  0.50333  1.0000
  C   C191      1.0  0.92317  0.57793  0.55108  1.0000
  S   S79       1.0  0.95884  0.83761  0.42716  1.0000
  H   H312      1.0  0.67512  0.83999  0.60424  1.0000
  H   H313      1.0  0.49354  0.62616  0.45200  1.0000
  S   S80       1.0  0.50843  0.82254  0.48227  1.0000
  C   C192      1.0  0.66204  0.79944  0.60265  1.0000
  H   H314      1.0  0.92745  0.53330  0.36475  1.0000
  H   H315      1.0  0.97619  0.67714  0.67050  1.0000
  H   H316      1.0  0.61399  0.72259  0.64847  1.0000
  C   C193      1.0  0.96605  0.73057  0.67896  1.0000
  C   C194      1.0  0.90835  0.72869  0.76813  1.0000
  Fe  Fe38      1.0  0.74640  0.62937  0.81459  1.0000
  H   H317      1.0  0.68644  0.75640  0.63469  1.0000
  N   N20       1.0  0.91427  0.76276  0.70384  1.0000
  C   C195      1.0  0.92504  0.53402  0.81250  1.0000
  S   S81       1.0  0.61692  0.53664  0.85174  1.0000
  Fe  Fe39      1.0  0.72190  0.59655  0.67745  1.0000
  H   H318      1.0  0.93317  0.73135  0.80715  1.0000
  C   C196      1.0  0.50887  0.70534  0.77851  1.0000
  H   H319      1.0  0.85649  0.52444  0.83806  1.0000
  H   H320      1.0  0.63186  0.58661  0.63482  1.0000
  C   C197      1.0  0.55382  0.65995  0.80455  1.0000
  S   S82       1.0  0.67518  0.65207  0.76324  1.0000
  S   S83       1.0  0.79279  0.58381  0.72437  1.0000
  C   C198      1.0  0.90217  0.83334  0.71447  1.0000
  C   C199      1.0  0.74816  0.77433  0.76459  1.0000
  Fe  Fe40      1.0  0.68224  0.55229  0.80552  1.0000
  C   C200      1.0  0.52744  0.57077  0.79353  1.0000
  H   H321      1.0  0.73474  0.83982  0.67514  1.0000
  C   C201      1.0  0.59259  0.76793  0.61717  1.0000
  C   C202      1.0  0.74711  0.83069  0.72649  1.0000
  H   H322      1.0  0.88836  0.70556  0.64485  1.0000
  H   H323      1.0  0.73655  0.73963  0.74258  1.0000
  C   C203      1.0  0.88057  0.75814  0.65374  1.0000
  H   H324      1.0  0.86969  0.75100  0.78816  1.0000
  H   H325      1.0  0.62713  0.79448  0.72967  1.0000
  H   H326      1.0  0.91766  0.67528  0.76136  1.0000
  H   H327      1.0  0.84126  0.78251  0.67071  1.0000
  H   H328      1.0  0.55274  0.78337  0.63161  1.0000
  C   C204      1.0  0.76352  0.76374  0.83149  1.0000
  H   H329      1.0  0.92745  0.83901  0.75083  1.0000
  H   H330      1.0  0.91214  0.58350  0.82999  1.0000
  C   C205      1.0  0.56283  0.59272  0.81313  1.0000
  H   H331      1.0  0.58060  0.67758  0.82009  1.0000
  N   N21       1.0  0.60968  0.82147  0.62505  1.0000
  H   H332      1.0  0.50201  0.75723  0.77307  1.0000
  C   C206      1.0  0.60497  0.83794  0.69649  1.0000
  C   C207      1.0  0.77956  0.80779  0.85946  1.0000
  H   H333      1.0  0.97186  0.75452  0.63013  1.0000
  C   C208      1.0  0.61747  0.97737  0.92652  1.0000
  C   C209      1.0  0.60631  0.92645  0.90374  1.0000
  Fe  Fe41      1.0  0.77168  0.07825  0.90236  1.0000
  C   C210      1.0  0.52504  0.00670  0.87193  1.0000
  H   H334      1.0  0.65825  0.14098  0.05123  1.0000
  H   H335      1.0  0.83107  0.93333  0.92926  1.0000
  H   H336      1.0  0.50902  0.10835  0.89165  1.0000
  H   H337      1.0  0.65324  0.96594  0.94760  1.0000
  S   S84       1.0  0.83674  0.05356  0.96859  1.0000
  H   H338      1.0  0.63369  0.87585  0.90679  1.0000
  C   C211      1.0  0.93208  0.96903  0.93852  1.0000
  S   S85       1.0  0.59579  0.10624  0.95069  1.0000
  C   C212      1.0  0.53597  0.05752  0.89535  1.0000
  H   H339      1.0  0.70747  0.08157  0.10105  1.0000
  C   C213      1.0  0.90494  0.86909  0.89911  1.0000
  S   S86       1.0  0.73240  0.01083  0.89711  1.0000
  H   H340      1.0  0.94273  0.00790  0.95246  1.0000
  C   C214      1.0  0.58211  0.04271  0.92274  1.0000
  C   C215      1.0  0.86905  0.92754  0.92415  1.0000
  C   C216      1.0  0.88237  0.97807  0.94281  1.0000
  C   C217      1.0  0.96792  0.91099  0.91259  1.0000
  S   S87       1.0  0.70167  0.17020  0.90731  1.0000
  C   C218      1.0  0.66804  0.09728  0.08787  1.0000
  H   H341      1.0  0.90096  0.07934  0.05612  1.0000
  H   H342      1.0  0.57293  0.17941  0.09077  1.0000
  H   H343      1.0  0.57671  0.09674  0.10219  1.0000
  C   C219      1.0  0.56005  0.94119  0.87653  1.0000
  H   H344      1.0  0.96221  0.03112  0.08560  1.0000
  C   C220      1.0  0.92466  0.06675  0.10119  1.0000
  Fe  Fe42      1.0  0.66331  0.10296  0.89300  1.0000
  H   H345      1.0  0.66490  0.05667  0.06075  1.0000
  H   H346      1.0  0.87622  0.98659  0.09420  1.0000
  H   H347      1.0  0.50493  0.02449  0.02500  1.0000
  C   C221      1.0  0.95431  0.86135  0.89193  1.0000
  N   N22       1.0  0.90374  0.03854  0.15788  1.0000
  H   H348      1.0  0.85439  0.13426  0.19090  1.0000
  Fe  Fe43      1.0  0.91250  0.86213  0.33537  1.0000
  H   H349      1.0  0.82833  0.09919  0.13224  1.0000
  H   H350      1.0  0.92050  0.00355  0.26104  1.0000
  C   C222      1.0  0.90087  0.97690  0.13780  1.0000
  H   H351      1.0  0.88585  0.95385  0.17972  1.0000
  H   H352      1.0  0.83679  0.06774  0.21871  1.0000
  C   C223      1.0  0.85357  0.08709  0.17561  1.0000
  N   N23       1.0  0.63494  0.11323  0.14828  1.0000
  C   C224      1.0  0.64110  0.16621  0.18357  1.0000
  C   C225      1.0  0.76243  0.18149  0.34797  1.0000
  Fe  Fe44      1.0  0.55960  0.95123  0.29160  1.0000
  C   C226      1.0  0.74973  0.99124  0.34647  1.0000
  S   S88       1.0  0.52953  0.03643  0.21615  1.0000
  C   C227      1.0  0.64726  0.05343  0.19405  1.0000
  H   H353      1.0  0.61614  0.18037  0.22891  1.0000
  C   C228      1.0  0.93583  0.02358  0.21689  1.0000
  H   H354      1.0  0.74273  0.02158  0.29996  1.0000
  H   H355      1.0  0.97372  0.98621  0.20571  1.0000
  H   H356      1.0  0.62314  0.06416  0.24040  1.0000
  H   H357      1.0  0.93907  0.06898  0.23294  1.0000
  C   C229      1.0  0.81328  0.16564  0.33895  1.0000
  S   S89       1.0  0.64201  0.90898  0.29786  1.0000
  C   C230      1.0  0.58305  0.13607  0.12746  1.0000
  H   H358      1.0  0.68642  0.03367  0.20973  1.0000
  H   H359      1.0  0.67969  0.15070  0.20067  1.0000
  S   S90       1.0  0.84740  0.95771  0.31592  1.0000
  H   H360      1.0  0.55689  0.15065  0.17140  1.0000
  H   H361      1.0  0.83969  0.11577  0.35170  1.0000
  H   H362      1.0  0.64160  0.01325  0.16935  1.0000
  H   H363      1.0  0.93791  0.93956  0.12276  1.0000
  H   H364      1.0  0.92766  0.11306  0.11491  1.0000
  H   H365      1.0  0.62202  0.16491  0.59358  1.0000
  C   C231      1.0  0.68664  0.11766  0.49015  1.0000
  H   H366      1.0  0.84519  0.89101  0.44481  1.0000
  H   H367      1.0  0.75806  0.16129  0.50606  1.0000
  C   C232      1.0  0.71051  0.98434  0.38392  1.0000
  H   H368      1.0  0.77536  0.88269  0.51380  1.0000
  H   H369      1.0  0.66585  0.08616  0.50449  1.0000
  S   S91       1.0  0.67191  0.93057  0.48680  1.0000
  Fe  Fe45      1.0  0.62959  0.90762  0.40943  1.0000
  H   H370      1.0  0.72305  0.08463  0.46830  1.0000
  Fe  Fe46      1.0  0.55019  0.85596  0.40220  1.0000
  H   H371      1.0  0.75777  0.06679  0.58222  1.0000
  S   S92       1.0  0.54753  0.95865  0.40352  1.0000
  C   C233      1.0  0.80762  0.91763  0.42817  1.0000
  C   C234      1.0  0.72069  0.10068  0.60132  1.0000
  H   H372      1.0  0.66623  0.15423  0.44918  1.0000
  C   C235      1.0  0.71988  0.94492  0.44400  1.0000
  H   H373      1.0  0.58169  0.87048  0.52990  1.0000
  C   C236      1.0  0.76821  0.91302  0.46718  1.0000
  C   C237      1.0  0.79832  0.95636  0.36762  1.0000
  N   N24       1.0  0.69303  0.15108  0.54879  1.0000
  C   C238      1.0  0.57907  0.88108  0.58394  1.0000
  H   H374      1.0  0.59105  0.92244  0.58827  1.0000
  H   H375      1.0  0.53922  0.89871  0.59905  1.0000
  H   H376      1.0  0.67305  0.00934  0.36629  1.0000
  H   H377      1.0  0.74987  0.14368  0.36698  1.0000
  S   S93       1.0  0.66460  0.11437  0.78014  1.0000
  H   H378      1.0  0.79374  0.89561  0.84142  1.0000
  S   S94       1.0  0.75720  0.94855  0.70982  1.0000
  Fe  Fe47      1.0  0.73760  0.02729  0.78483  1.0000
  C   C239      1.0  0.77933  0.86324  0.82086  1.0000
  H   H379      1.0  0.90512  0.86074  0.66651  1.0000
  S   S95       1.0  0.78148  0.08882  0.79021  1.0000
  H   H380      1.0  0.72648  0.12411  0.64622  1.0000
  S   S96       1.0  0.54628  0.87693  0.84989  1.0000
  C   C240      1.0  0.76161  0.87589  0.75527  1.0000
  Fe  Fe48      1.0  0.70811  0.17513  0.79422  1.0000
  H   H381      1.0  0.61767  0.87806  0.70434  1.0000
  H   H382      1.0  0.86380  0.85877  0.73489  1.0000
  H   H383      1.0  0.56592  0.85498  0.71458  1.0000
  H   H384      1.0  0.70066  0.06900  0.61908  1.0000
