data_image0
_chemical_formula_structural       FeS2FeS2FeSFeS3FeS2FeS2FeSFeS3FeS2FeS2FeSFeS3FeS2FeS2FeSFeS3FeS2FeS2FeSFeS3FeS2FeS2FeSFeS3FeS2FeS2FeSFeS3FeS2FeS2FeSFeS3FeS2FeS2FeSFeS3FeS2FeS2FeSFeS3FeS2FeS2FeSFeS3FeS2FeS2FeSFeS3FeS2FeS2FeSFeS3FeS2FeS2FeSFeS3FeS2FeS2FeSFeS3FeS2FeS2FeSFeS3C6H4C6H4C6H4C6H4C6H4C6H4C6H4C6H4C6H4C6H4C6H4C6H4C6H4C6H4C6H4C6H4C6H4C6H4C6H4C6H4C6H4C6H4C6H4C6H4C6H4C6H4C6H4C6H4C6H4C6H4C6H4C6H4NC4H12NC4H12NC4H12NC4H12NC4H12NC4H12NC4H12NC4H12NC4H12NC4H12NC4H12NC4H12NC4H12NC4H12NC4H12NC4H12NC4H12NC4H12NC4H12NC4H12NC4H12NC4H12NC4H12NC4H12NC4H12NC4H12NC4H12NC4H12NC4H12NC4H12NC4H12NC4H12
_chemical_formula_sum              "Fe64 S128 C320 H512 N32"
_cell_length_a       34.003883616720145
_cell_length_b       31.317711749434263
_cell_length_c       71.25587892250154
_cell_angle_alpha    91.65074091393467
_cell_angle_beta     90.42496437599083
_cell_angle_gamma    120.99862619093439

_space_group_name_H-M_alt    "P 1"
_space_group_IT_number       1

loop_
  _space_group_symop_operation_xyz
  'x, y, z'

loop_
  _atom_site_type_symbol
  _atom_site_label
  _atom_site_symmetry_multiplicity
  _atom_site_fract_x
  _atom_site_fract_y
  _atom_site_fract_z
  _atom_site_occupancy
  Fe  Fe1       1.0  0.18646068657248072  0.37946267937511863  0.6944713985003944  1.0000
  S   S1        1.0  0.15576153747904786  0.35172133159083124  0.6654693392488122  1.0000
  S   S2        1.0  0.13846451754343853  0.3619929794968421  0.7184557180338312  1.0000
  Fe  Fe2       1.0  0.28424912739738023  0.4312953102910682  0.6812460320126981  1.0000
  S   S3        1.0  0.2624449868560229  0.4066096274584563  0.6512086369786225  1.0000
  S   S4        1.0  0.3567086448430443  0.4801575461204018  0.6924356248909749  1.0000
  Fe  Fe3       1.0  0.20984182294327883  0.4278782711645852  0.6567826196094945  1.0000
  S   S5        1.0  0.20181074039234803  0.4731860853007781  0.634883776804831  1.0000
  Fe  Fe4       1.0  0.21047005328701243  0.3325573306726463  0.6623258646638349  1.0000
  S   S6        1.0  0.19943108108182903  0.26045566404572273  0.6492220797390038  1.0000
  S   S7        1.0  0.23512600783114104  0.4578193327382459  0.686057260362564  1.0000
  S   S8        1.0  0.2376647139098932  0.3550178817098988  0.692018395578672  1.0000
  Fe  Fe5       1.0  0.2230831562626033  0.44207654702860333  0.8512843336316762  1.0000
  S   S9        1.0  0.20406806400812755  0.44143297493622796  0.8211229820576454  1.0000
  S   S10       1.0  0.27840035283177833  0.5069410638622573  0.8683739259494778  1.0000
  Fe  Fe6       1.0  0.1394639235309702  0.34019368974805464  0.8581325068163344  1.0000
  S   S11       1.0  0.11137254752361184  0.3305351710572057  0.8286129796087859  1.0000
  S   S12       1.0  0.11615339094667636  0.2908977608349425  0.8831561744502028  1.0000
  Fe  Fe7       1.0  0.1844426794504823  0.3611406598421512  0.8203953800401701  1.0000
  S   S13       1.0  0.20221596874978834  0.32503764169578075  0.7969757079623565  1.0000
  Fe  Fe8       1.0  0.13286502825506824  0.4116584379176576  0.8315257850703381  1.0000
  S   S14       1.0  0.09520576529346277  0.4464224768137265  0.8193328809560229  1.0000
  S   S15       1.0  0.2111697169043133  0.36483063652205716  0.8496394323788818  1.0000
  S   S16       1.0  0.15317645578644118  0.4180730119904728  0.8618116961805627  1.0000
  Fe  Fe9       1.0  0.5390508460645497  0.7163367331288002  0.657601861295066  1.0000
  S   S17       1.0  0.5644804933558384  0.7940438969568073  0.6483724204220638  1.0000
  S   S18       1.0  0.49044622673308613  0.6498544102352959  0.6392758500132999  1.0000
  Fe  Fe10      1.0  0.5809433936302276  0.7495877934746958  0.6964348506146693  1.0000
  S   S19       1.0  0.6098027168041454  0.8301348706133108  0.6910568006442909  1.0000
  S   S20       1.0  0.5879967427497566  0.721468651000581  0.7242109458206171  1.0000
  Fe  Fe11      1.0  0.5422889462679572  0.8053957202962669  0.6765995346589568  1.0000
  S   S21       1.0  0.5067937562127877  0.8486322289741297  0.681056896730042  1.0000
  Fe  Fe12      1.0  0.6306002090777478  0.813644338750441  0.6631760126966386  1.0000
  S   S22       1.0  0.6986117362036148  0.8786378201837483  0.6542734255404881  1.0000
  S   S23       1.0  0.5111373191712689  0.726199255158618  0.6846961346130992  1.0000
  S   S24       1.0  0.607382269374669  0.734208044186018  0.6697942922937266  1.0000
  Fe  Fe13      1.0  0.5110552444033662  0.6962707034392633  0.843199538194981  1.0000
  S   S25       1.0  0.5217876258241404  0.7367700416150692  0.8711448668920455  1.0000
  S   S26       1.0  0.48069961501319114  0.6137883357309746  0.8382895121667459  1.0000
  Fe  Fe14      1.0  0.5351467607448531  0.7867760628159917  0.8209957514458829  1.0000
  S   S27       1.0  0.5449138164177733  0.8337374864074022  0.8469078951812677  1.0000
  S   S28       1.0  0.5464280395886392  0.822547285359682  0.7931047586019606  1.0000
  Fe  Fe15      1.0  0.5844546253063515  0.7999179986669773  0.8581940818374598  1.0000
  S   S29       1.0  0.6540745286942856  0.8600793999912303  0.8702860804349103  1.0000
  Fe  Fe16      1.0  0.4820330154311814  0.7670206801112541  0.857216333454974  1.0000
  S   S30       1.0  0.4228563350619669  0.7666541326792112  0.8714522631968893  1.0000
  S   S31       1.0  0.5775303496326583  0.7561756147472373  0.8315377271393778  1.0000
  S   S32       1.0  0.4681625864841851  0.7232898656201728  0.8301161723076944  1.0000
  Fe  Fe17      1.0  0.17142734362592285  0.6900208349142686  0.6593811263920697  1.0000
  S   S33       1.0  0.19568557385614163  0.7187565388738917  0.630657369937683  1.0000
  S   S34       1.0  0.13043506809526656  0.6103198786976131  0.6681308580423416  1.0000
  Fe  Fe18      1.0  0.22510413874409343  0.792032748547983  0.6782741565183894  1.0000
  S   S35       1.0  0.2560311952549928  0.8296532740068195  0.6514459233584049  1.0000
  S   S36       1.0  0.24282939909275586  0.8355294821328437  0.7057950083357408  1.0000
  Fe  Fe19      1.0  0.18449023286555943  0.7815350513924694  0.6392831253600766  1.0000
  S   S37       1.0  0.162574187268504  0.8215038976897099  0.6193958770994235  1.0000
  Fe  Fe20      1.0  0.2647531836360493  0.764648097235664  0.6451098497546341  1.0000
  S   S38       1.0  0.32523936742999604  0.7667973821507177  0.6314674886637831  1.0000
  S   S39       1.0  0.15302660756541756  0.7480397419455345  0.6666810475905084  1.0000
  S   S40       1.0  0.24117119648062024  0.7318663923683397  0.6731995776937155  1.0000
  Fe  Fe21      1.0  0.14872803155076095  0.740702539466781  0.8015472431057592  1.0000
  S   S41       1.0  0.19705644337759823  0.8214251780135232  0.808572670461104  1.0000
  S   S42       1.0  0.11723966571168742  0.7130140988658327  0.7725049820435852  1.0000
  Fe  Fe22      1.0  0.15525732981520457  0.7105405275020281  0.8406529514932438  1.0000
  S   S43       1.0  0.20424237396153258  0.7890443599731861  0.8512669788128338  1.0000
  S   S44       1.0  0.13844494799876308  0.648752845712823  0.860256498934782  1.0000
  Fe  Fe23      1.0  0.15879277285814877  0.8086409084350953  0.8353654202429814  1.0000
  S   S45       1.0  0.1513484098999965  0.8746946512187381  0.8434835846992883  1.0000
  Fe  Fe24      1.0  0.23870898342135322  0.7962238350775491  0.8239700832710891  1.0000
  S   S46       1.0  0.31529641893431964  0.8384401320878351  0.821134181724184  1.0000
  S   S47       1.0  0.10604398399518128  0.7289974793713685  0.8270691227192688  1.0000
  S   S48       1.0  0.19388259729910176  0.7162505709398461  0.8145735508065127  1.0000
  Fe  Fe25      1.0  0.9483175630339913  0.9370064623442818  0.4357198066464865  1.0000
  S   S49       1.0  0.9582579537858382  0.9955645293801654  0.415417663748201  1.0000
  S   S50       1.0  0.934558991569301  0.9513899753783389  0.46582760809686224  1.0000
  Fe  Fe26      1.0  0.935918030733911  0.8632596949269613  0.4036458222904135  1.0000
  S   S51       1.0  0.943416436552843  0.9157525967788597  0.3813283089778101  1.0000
  S   S52       1.0  0.9272124142154801  0.7888991004943764  0.3945164297867754  1.0000
  Fe  Fe27      1.0  0.0024783933417679405  0.9732273548486746  0.3995058641780863  1.0000
  S   S53       1.0  0.06621361808717711  0.029619813925164662  0.38441045221734416  1.0000
  Fe  Fe28      1.0  0.8988566354078312  0.9333156047171594  0.39905376578192575  1.0000
  S   S54       1.0  0.8340611054259847  0.9310310963166927  0.3891348042999772  1.0000
  S   S55       1.0  0.9976998113623354  0.9198431610715782  0.4211190531117976  1.0000
  S   S56       1.0  0.8864659765916424  0.8755340129351048  0.41997173384736425  1.0000
  Fe  Fe29      1.0  0.9914472260622176  0.0125082927399806  0.6053461287790075  1.0000
  S   S57       1.0  0.9486762208113363  0.9474717944412764  0.6234737000314808  1.0000
  S   S58       1.0  0.006610937482142163  0.08902641548030589  0.615683973289512  1.0000
  Fe  Fe30      1.0  0.9908391137732899  0.9464312200565984  0.5729572186757533  1.0000
  S   S59       1.0  0.9481524436144005  0.8766676811274212  0.5887736983121565  1.0000
  S   S60       1.0  0.018296283635659938  0.939316527273855  0.544638862417999  1.0000
  Fe  Fe31      1.0  0.9062523038841901  0.9103403395488832  0.5973394546320837  1.0000
  S   S61       1.0  0.8294191832976685  0.8558781768333862  0.5969314840173895  1.0000
  Fe  Fe32      1.0  0.9937331930126155  0.9186427124964752  0.6136872073066523  1.0000
  S   S62       1.0  0.00925794474021673  0.8755733814190613  0.6346714880821338  1.0000
  S   S63       1.0  0.9453370063182855  0.9770911258469128  0.5795617614838865  1.0000
  S   S64       1.0  0.04029428556994519  0.9867283644895175  0.5975342050840583  1.0000
  Fe  Fe33      1.0  0.9770975533618733  0.0011209316672616163  0.8920166444910486  1.0000
  S   S65       1.0  0.9526660915695369  0.9221193963304292  0.8820764662136696  1.0000
  S   S66       1.0  0.9995769179565558  0.056381626868968554  0.868750381454037  1.0000
  Fe  Fe34      1.0  0.9529950845086934  0.9718435376133546  0.9327152783750525  1.0000
  S   S67       1.0  0.9280749612173482  0.8917654245769349  0.9256508756142431  1.0000
  S   S68       1.0  0.9422610393141625  0.9973328453610947  0.9614985790063075  1.0000
  Fe  Fe35      1.0  0.9900353869496388  0.9199777799013864  0.9076980415480344  1.0000
  S   S69       1.0  0.02422389202130557  0.8740781991764958  0.9085366772661806  1.0000
  Fe  Fe36      1.0  0.8927816783618822  0.9005049184461088  0.900657628839702  1.0000
  S   S70       1.0  0.8213759733418953  0.8345719736913065  0.8939293443534945  1.0000
  S   S71       1.0  0.01865069719446938  0.0005066190744443873  0.9167373466269291  1.0000
  S   S72       1.0  0.9138595944721022  0.9792891057901846  0.9085643811662505  1.0000
  Fe  Fe37      1.0  0.8827114910830727  0.8651851195511431  0.10359560796354862  1.0000
  S   S73       1.0  0.9317557690495755  0.9280482204471504  0.12317594396967571  1.0000
  S   S74       1.0  0.818885756044853  0.8001160087109948  0.11521778921366743  1.0000
  Fe  Fe38      1.0  0.9362762649578644  0.9182245822043112  0.06860973071371274  1.0000
  S   S75       1.0  0.9886507716556999  0.9858463801123151  0.08571482451362994  1.0000
  S   S76       1.0  0.9477550561685582  0.9013764030861793  0.03847275453743321  1.0000
  Fe  Fe39      1.0  0.9880072758077092  0.9314543749575291  0.10570464988655554  1.0000
  S   S77       1.0  0.050200599626144274  0.9295189466510305  0.1164929018885472  1.0000
  Fe  Fe40      1.0  0.9276523693905003  0.9768260824950916  0.10170212579316067  1.0000
  S   S78       1.0  0.9223960758841886  0.041945940450892394  0.1132502766694558  1.0000
  S   S79       1.0  0.9385972894936382  0.8638804704182111  0.08796052091225509  1.0000
  S   S80       1.0  0.8752625556048131  0.9137504517641162  0.0828957082143163  1.0000
  Fe  Fe41      1.0  0.3033982370067659  0.10661879998825308  0.15190170721785315  1.0000
  S   S81       1.0  0.31295682549561504  0.13467506950044356  0.18185932163092128  1.0000
  S   S82       1.0  0.2501833880266446  0.11431052757699423  0.1354147177905883  1.0000
  Fe  Fe42      1.0  0.3861794809504989  0.09221789605874986  0.15502993924331038  1.0000
  S   S83       1.0  0.4005516081122845  0.1179415471504354  0.18531037227059377  1.0000
  S   S84       1.0  0.4366596680001763  0.07985367167622792  0.13896199314379265  1.0000
  Fe  Fe43      1.0  0.32418662901664147  0.07191007657681217  0.18783825621571784  1.0000
  S   S85       1.0  0.28997983904147606  0.023028306028028522  0.21221722822166456  1.0000
  Fe  Fe44      1.0  0.3882037528323475  0.1779060915500793  0.17632721375570726  1.0000
  S   S86       1.0  0.4340692936201027  0.2566175575767756  0.1876530547495031  1.0000
  S   S87       1.0  0.30994003834477596  0.04040784307927803  0.15809152241130167  1.0000
  S   S88       1.0  0.3781013602449574  0.15525710762949724  0.14578823066054425  1.0000
  Fe  Fe45      1.0  0.38091656192342116  0.06421557877595761  0.32938471109139933  1.0000
  S   S89       1.0  0.40777815374068416  0.1432768543758022  0.32215367405733564  1.0000
  S   S90       1.0  0.4238845974506183  0.03338344898720377  0.3186165809340477  1.0000
  Fe  Fe46      1.0  0.29637709383162764  0.055337292199569676  0.3484018294650655  1.0000
  S   S91       1.0  0.3173915458096838  0.1344276641459562  0.34265311425291367  1.0000
  S   S92       1.0  0.23603225977383235  0.0038963146562820405  0.3663100009905917  1.0000
  Fe  Fe47      1.0  0.33493223657063836  0.11740343111041227  0.31410830369377896  1.0000
  S   S93       1.0  0.32467217280332045  0.14900217996928355  0.28790113036669107  1.0000
  Fe  Fe48      1.0  0.3882631951507938  0.15267859345009044  0.35112834315696956  1.0000
  S   S94       1.0  0.43835696211025  0.21688532921127343  0.3700675017078604  1.0000
  S   S95       1.0  0.3087576564071094  0.036758466094118036  0.31900918229620245  1.0000
  S   S96       1.0  0.3665668167391478  0.07515681008643102  0.35919205117141856  1.0000
  Fe  Fe49      1.0  0.7277704091134262  0.16466532046145113  0.15764272915413344  1.0000
  S   S97       1.0  0.7012812227033295  0.1571756858892202  0.1867531979530489  1.0000
  S   S98       1.0  0.7422072522064581  0.226737961503262  0.13859939728361187  1.0000
  Fe  Fe50      1.0  0.7213271339067604  0.06459891564032837  0.15654076865564195  1.0000
  S   S99       1.0  0.6925199699534585  0.046557102847341596  0.1855538595820998  1.0000
  S   S100      1.0  0.7298176958162446  0.012706942594568688  0.1362050183225228  1.0000
  Fe  Fe51      1.0  0.6493777576708913  0.07891215819602396  0.17723943224049338  1.0000
  S   S101      1.0  0.5778810003234635  0.05108330970332128  0.18757789604422645  1.0000
  Fe  Fe52      1.0  0.7460600317049526  0.1260175927586546  0.19316115494039335  1.0000
  S   S102      1.0  0.7897412327830016  0.1505178993853316  0.2197092163884982  1.0000
  S   S103      1.0  0.6722998120206506  0.08868806993540236  0.14752021713379898  1.0000
  S   S104      1.0  0.7783935175812351  0.14177737411981203  0.16484433935565954  1.0000
  Fe  Fe53      1.0  0.7403057648295377  0.1893739084669324  0.33348244696954893  1.0000
  S   S105      1.0  0.6705124987948436  0.12882043962582926  0.32352511051590566  1.0000
  S   S106      1.0  0.7647092205396206  0.26573033458088924  0.32282973800625464  1.0000
  Fe  Fe54      1.0  0.7602597374259833  0.11764210821728857  0.3539289178867208  1.0000
  S   S107      1.0  0.690969730094447  0.0510420654055248  0.3462231881349451  1.0000
  S   S108      1.0  0.820809820023169  0.11928894578625766  0.3684049786189076  1.0000
  Fe  Fe55      1.0  0.7036529350795222  0.08406636541862379  0.31775221868349246  1.0000
  S   S109      1.0  0.685364569753953  0.035269968171916286  0.29157721922408375  1.0000
  Fe  Fe56      1.0  0.663563556054748  0.10171028130020611  0.3526890791000143  1.0000
  S   S110      1.0  0.5995540233232235  0.0838202683678122  0.36825854746159875  1.0000
  S   S111      1.0  0.7744854422456994  0.147299830878472  0.32482962771943025  1.0000
  S   S112      1.0  0.7318850236914698  0.1657252416141311  0.36325349823166475  1.0000
  Fe  Fe57      1.0  0.7577706966651592  0.5452014441039823  0.15375650516600303  1.0000
  S   S113      1.0  0.7736273633140114  0.5376289627450697  0.18363003185204776  1.0000
  S   S114      1.0  0.8179090574381619  0.6052471642432036  0.13833943121215675  1.0000
  Fe  Fe58      1.0  0.6649035650534233  0.44837334761942393  0.15406258503729217  1.0000
  S   S115      1.0  0.674222172383461  0.4330853151149774  0.18377159986856473  1.0000
  S   S116      1.0  0.603657511416089  0.3891438263312724  0.1374378486196377  1.0000
  Fe  Fe59      1.0  0.7007634359202203  0.5145365562729245  0.1888567197082806  1.0000
  S   S117      1.0  0.6836916263274392  0.5428328524844209  0.2149512538390364  1.0000
  Fe  Fe60      1.0  0.7459063621932597  0.4573634252507082  0.1755697860791447  1.0000
  S   S118      1.0  0.7827521385167302  0.4196743771224345  0.18584322319943586  1.0000
  S   S119      1.0  0.686287674391729  0.5287492287158219  0.15954510266250885  1.0000
  S   S120      1.0  0.7346116148330275  0.4658539662927765  0.145320896334046  1.0000
  Fe  Fe61      1.0  0.715626023433301  0.5511121048979564  0.34620791549529384  1.0000
  S   S121      1.0  0.7640369583772604  0.5236197040522544  0.34071254988669875  1.0000
  S   S122      1.0  0.7326250175811759  0.6250979743718424  0.3598235115428059  1.0000
  Fe  Fe62      1.0  0.6317102315749967  0.45404597570574834  0.33154212679537726  1.0000
  S   S123      1.0  0.672790724016969  0.41872407740359296  0.3248772149669471  1.0000
  S   S124      1.0  0.5567341286343555  0.40975154140990994  0.3234648263997011  1.0000
  Fe  Fe63      1.0  0.7085977259400273  0.4524104197362722  0.3524879876228582  1.0000
  S   S125      1.0  0.7207338466987221  0.4060389733692454  0.37242291164354124  1.0000
  Fe  Fe64      1.0  0.7239736061733287  0.4925399247355133  0.31350899871851196  1.0000
  S   S126      1.0  0.756532295669038  0.48899402778514145  0.2866697796976461  1.0000
  S   S127      1.0  0.6630401965381101  0.4818362896206845  0.3603021196184237  1.0000
  S   S128      1.0  0.6797593185114884  0.5256764635707617  0.3178540874376582  1.0000
  C   C1        1.0  0.7087962045947149  0.5328200433728137  0.23460814763152407  1.0000
  C   C2        1.0  0.7276377365644892  0.5023866186217791  0.2329430491958529  1.0000
  C   C3        1.0  0.7436815447300299  0.4905350955514639  0.24897195093950708  1.0000
  C   C4        1.0  0.7405911113906242  0.5086820422073274  0.26673028195944526  1.0000
  C   C5        1.0  0.722831424925315  0.5401415930645257  0.26836893361917585  1.0000
  C   C6        1.0  0.7069583430905495  0.5522385530772873  0.2523071909505925  1.0000
  H   H1        1.0  0.7289831556630094  0.48700791482429073  0.21937190193248315  1.0000
  H   H2        1.0  0.7575224268662553  0.46629505163038176  0.247637413313034  1.0000
  H   H3        1.0  0.7215047830170139  0.5553394262556058  0.2819742709121572  1.0000
  H   H4        1.0  0.692750411112436  0.5761286148945879  0.2536057325334619  1.0000
  C   C7        1.0  0.7544814086294183  0.3053210601487141  0.3372487833425729  1.0000
  C   C8        1.0  0.7414719923247419  0.29438416785664223  0.3559079234267075  1.0000
  C   C9        1.0  0.732455018011636  0.3261878392355812  0.36693892609444123  1.0000
  C   C10       1.0  0.7358975706338491  0.3686019049324623  0.35924466815145456  1.0000
  C   C11       1.0  0.749547915836343  0.3798294656754111  0.3406889149028053  1.0000
  C   C12       1.0  0.7589534871407612  0.34837836718182014  0.32975018820672114  1.0000
  H   H5        1.0  0.738592241516417  0.26164534044670024  0.3618860081675642  1.0000
  H   H6        1.0  0.7223367799036324  0.31760366384674227  0.38134507343424306  1.0000
  H   H7        1.0  0.7534513663857193  0.41314163197881565  0.33475975175714917  1.0000
  H   H8        1.0  0.7696076978197857  0.3575024300287771  0.3154261868346784  1.0000
  C   C13       1.0  0.7552908385273963  0.28117740955179393  0.1515322740805968  1.0000
  C   C14       1.0  0.7504392249000024  0.31800500139643567  0.14302887576145407  1.0000
  C   C15       1.0  0.7586332088019977  0.36058287187063637  0.15350435233729712  1.0000
  C   C16       1.0  0.7722944341951148  0.3667482818269735  0.17243473384939087  1.0000
  C   C17       1.0  0.7781370211724106  0.3304121949260724  0.1808098449395018  1.0000
  C   C18       1.0  0.7692858675795071  0.2874774610035561  0.17042313785547045  1.0000
  H   H9        1.0  0.7398180350291074  0.3133579890018452  0.12839137394816003  1.0000
  H   H10       1.0  0.7547513432040323  0.38871570032769465  0.14684220346821972  1.0000
  H   H11       1.0  0.7891621172709523  0.33526430801763335  0.19539940434070863  1.0000
  H   H12       1.0  0.7738753154325713  0.2595871055444683  0.17698790920638627  1.0000
  C   C19       1.0  0.760775753031104  0.1171334420187924  0.23945628663270346  1.0000
  C   C20       1.0  0.71402368281571  0.08099556384189449  0.23830047837373736  1.0000
  C   C21       1.0  0.691246786824109  0.055471465717729804  0.25431776587457566  1.0000
  C   C22       1.0  0.7147442511835702  0.06714640209402975  0.2716716358308744  1.0000
  C   C23       1.0  0.761425627328904  0.10371135613406421  0.2728997243483352  1.0000
  C   C24       1.0  0.7844983116377363  0.1281873401703241  0.2567557301256479  1.0000
  H   H13       1.0  0.695253283472113  0.07267370980160227  0.22509626964067989  1.0000
  H   H14       1.0  0.6551348539723246  0.027209828048411946  0.2532950565833682  1.0000
  H   H15       1.0  0.7799863625027681  0.11264540828795667  0.2861738120543771  1.0000
  H   H16       1.0  0.8207613631410394  0.1558838467693375  0.2576655443033241  1.0000
  C   C25       1.0  0.4727543178846163  0.04800700381238816  0.3324915835299419  1.0000
  C   C26       1.0  0.5080837603273372  0.0434298129307127  0.32453757491731156  1.0000
  C   C27       1.0  0.5472354978586441  0.05460215972860945  0.3353503398740813  1.0000
  C   C28       1.0  0.550882517737578  0.06948904838127774  0.3542975493321769  1.0000
  C   C29       1.0  0.5154137248035241  0.0737481662689567  0.36227797538664197  1.0000
  C   C30       1.0  0.4767582006550411  0.06371906859422193  0.35135618949474123  1.0000
  H   H17       1.0  0.5051150604315616  0.030880351218307595  0.3100178680925304  1.0000
  H   H18       1.0  0.5739441004954811  0.05025723640543365  0.32915252707309933  1.0000
  H   H19       1.0  0.5178032802616888  0.08469422104860787  0.376977159411719  1.0000
  H   H20       1.0  0.44956561079241025  0.06688800741010748  0.3576827679916678  1.0000
  C   C31       1.0  0.4712445446843006  0.27058844791242415  0.3571818200007913  1.0000
  C   C32       1.0  0.5136000602983717  0.3091440733462886  0.3644929051477553  1.0000
  C   C33       1.0  0.540512910051505  0.3516659285820803  0.35406526782480835  1.0000
  C   C34       1.0  0.5244767049167102  0.3563043279751584  0.3365461765976185  1.0000
  C   C35       1.0  0.48194487606077635  0.31794926700889775  0.3293471891260526  1.0000
  C   C36       1.0  0.45561168169795957  0.27491816902554916  0.33954194746089444  1.0000
  H   H21       1.0  0.5257163021055642  0.306073170763979  0.3781782700657072  1.0000
  H   H22       1.0  0.5731874609304974  0.38126483414429757  0.35974258385073293  1.0000
  H   H23       1.0  0.4692635641913114  0.32143879378714824  0.3158560408773827  1.0000
  H   H24       1.0  0.4227563558167963  0.2455669967893228  0.3338745022828321  1.0000
  C   C37       1.0  0.47556729292691896  0.07132965242713402  0.15248630009498562  1.0000
  C   C38       1.0  0.5156008754415138  0.07769372908940841  0.14431593969840167  1.0000
  C   C39       1.0  0.5478267724557753  0.07269599284163064  0.15503476895071144  1.0000
  C   C40       1.0  0.5394521217249924  0.059827117908122326  0.17384149504090812  1.0000
  C   C41       1.0  0.49920406079805146  0.05294219183797645  0.18192857939064017  1.0000
  C   C42       1.0  0.46752576022747383  0.059018422628413315  0.17133928921831393  1.0000
  H   H25       1.0  0.5217466726956247  0.08666461272864345  0.12967699380995515  1.0000
  H   H26       1.0  0.5784870347497382  0.0775197684693747  0.1486274740127946  1.0000
  H   H27       1.0  0.4923504238846804  0.04246721690255924  0.1964008503163522  1.0000
  H   H28       1.0  0.43631212989331725  0.05282356254657106  0.1776345942165806  1.0000
  C   C43       1.0  0.48332713658804877  0.29183300812114055  0.17448691888632956  1.0000
  C   C44       1.0  0.5159225510150269  0.3406373434643081  0.18056625525591802  1.0000
  C   C45       1.0  0.5533988212768758  0.3706670638379949  0.16934893070627546  1.0000
  C   C46       1.0  0.5577832095049572  0.35220458025952667  0.15187495006227983  1.0000
  C   C47       1.0  0.5252784839964659  0.30344372316519036  0.14583835120991165  1.0000
  C   C48       1.0  0.488761159322829  0.2729812969521115  0.15732051341877656  1.0000
  H   H29       1.0  0.5118760824558541  0.35550575245999905  0.1938257643844708  1.0000
  H   H30       1.0  0.5781954755058093  0.40855856967292503  0.17398996005474343  1.0000
  H   H31       1.0  0.5286612232619505  0.2890182079017762  0.1323439150050978  1.0000
  H   H32       1.0  0.46461402308629285  0.2351744641233674  0.15270919276602457  1.0000
  C   C49       1.0  0.2991444905602959  0.05789937977440718  0.2332421542170223  1.0000
  C   C50       1.0  0.28284693234407193  0.03347506081735077  0.25011275481905754  1.0000
  C   C51       1.0  0.2910454786178762  0.061150108617389516  0.2670622819897004  1.0000
  C   C52       1.0  0.31466480782272616  0.11326053887722098  0.26707348402682135  1.0000
  C   C53       1.0  0.3305145500599329  0.13752589887145095  0.25016753394269187  1.0000
  C   C54       1.0  0.3233924100166111  0.10995220481515311  0.23333157959612008  1.0000
  H   H33       1.0  0.26409074723080617  0.9931713218801672  0.25010783626489175  1.0000
  H   H34       1.0  0.2782286693016467  0.04221846388538818  0.280041799332088  1.0000
  H   H35       1.0  0.348923008475311  0.17784449072128972  0.2501431491014576  1.0000
  H   H36       1.0  0.33685617805952034  0.12919898622229375  0.2204786519093633  1.0000
  C   C55       1.0  0.8195563963338792  0.7466503150847167  0.12188928735077245  1.0000
  C   C56       1.0  0.8577789562762222  0.7419375795276938  0.11894520715734769  1.0000
  C   C57       1.0  0.856874420391758  0.6984232729941527  0.12410149460613498  1.0000
  C   C58       1.0  0.8179685946703453  0.6595961173815251  0.132368482550924  1.0000
  C   C59       1.0  0.7800015007180127  0.6646282933015325  0.13556972902163336  1.0000
  C   C60       1.0  0.7807696772118866  0.7079802206735586  0.1302769901514319  1.0000
  H   H37       1.0  0.8878174293996446  0.7715016261517814  0.11250526305080553  1.0000
  H   H38       1.0  0.8863268773343556  0.6947455607208738  0.12156084225661773  1.0000
  H   H39       1.0  0.7498616872614415  0.6349036782079678  0.14191040353904774  1.0000
  H   H40       1.0  0.7510473258123272  0.7113262511988295  0.1325588036032253  1.0000
  C   C61       1.0  0.10512809348256306  0.9816698050340953  0.12204590850836038  1.0000
  C   C62       1.0  0.13999186974110567  0.9735486994895228  0.12824933983062675  1.0000
  C   C63       1.0  0.18461180427183754  0.013854752684668403  0.13233576303187317  1.0000
  C   C64       1.0  0.19473608987566052  0.06269128549894032  0.13020380987682484  1.0000
  C   C65       1.0  0.1599122982944844  0.07086534906700548  0.12397221383878042  1.0000
  C   C66       1.0  0.11517268493596294  0.030528600971375885  0.11998506479507032  1.0000
  H   H41       1.0  0.13252800070416626  0.935795568454495  0.12971493977714668  1.0000
  H   H42       1.0  0.2113137151841136  0.007119684064513798  0.13687740456359623  1.0000
  H   H43       1.0  0.16749911316066587  0.10859266116153221  0.12231526285795723  1.0000
  H   H44       1.0  0.08855756214450801  0.037235802661916395  0.11526831493655143  1.0000
  C   C67       1.0  0.8687446180715444  0.033789447294528395  0.11937582190059375  1.0000
  C   C68       1.0  0.8671046456165731  0.06630875043206119  0.13291831405066168  1.0000
  C   C69       1.0  0.8248093278832763  0.06013202770706298  0.1383765680804984  1.0000
  C   C70       1.0  0.7838476928958269  0.021997098275048248  0.12999268111097814  1.0000
  C   C71       1.0  0.7855849760944096  0.9902353732377879  0.11614429601277446  1.0000
  C   C72       1.0  0.8277827893804922  0.9957176748470197  0.11098449127448899  1.0000
  H   H45       1.0  0.898690004192831  0.09589474572753232  0.13945698075575894  1.0000
  H   H46       1.0  0.8239921016338203  0.0846692501739268  0.1491565278274294  1.0000
  H   H47       1.0  0.754070164887994  0.961019439304596  0.1094306242242964  1.0000
  H   H48       1.0  0.8286814971321592  0.9708888678274227  0.10035162199236698  1.0000
  C   C73       1.0  0.943823067967914  0.9702804416721588  0.9827951116180736  1.0000
  C   C74       1.0  0.9355946196741937  0.9880515306651735  0.9997820051300181  1.0000
  C   C75       1.0  0.9363545615164149  0.9672860316017241  0.016991835137537784  1.0000
  C   C76       1.0  0.9452769007691644  0.9284245682234578  0.017316572606750284  1.0000
  C   C77       1.0  0.953272476653191  0.9105411700952761  0.0003148904496159677  1.0000
  C   C78       1.0  0.9525072724071547  0.9312692010425074  0.9831309685211065  1.0000
  H   H49       1.0  0.9288862551260598  0.018271032139407728  0.9996491499547038  1.0000
  H   H50       1.0  0.9302090607049248  0.9814394074993126  0.029973556850898052  1.0000
  H   H51       1.0  0.9601777937916505  0.8804594688641838  0.0004258296650332393  1.0000
  H   H52       1.0  0.9589949794992051  0.9172915364749901  0.9701847973191343  1.0000
  C   C79       1.0  0.8738572451916986  0.744720861971977  0.3838840492564854  1.0000
  C   C80       1.0  0.8683747871957426  0.7012528283588781  0.3750275253888808  1.0000
  C   C81       1.0  0.8257581552535946  0.6650785312921512  0.36682673321352555  1.0000
  C   C82       1.0  0.7881565894402515  0.6717622168369937  0.36781764141435525  1.0000
  C   C83       1.0  0.7939044773964579  0.7154621390502793  0.3765049585383065  1.0000
  C   C84       1.0  0.8366411496152537  0.7519897985228375  0.3843784096129685  1.0000
  H   H53       1.0  0.897154228635556  0.6955804772607235  0.3744795757225989  1.0000
  H   H54       1.0  0.8219767454573925  0.6320105503793289  0.35985345448925726  1.0000
  H   H55       1.0  0.7650149950809674  0.7209513320614915  0.37730032418813686  1.0000
  H   H56       1.0  0.8404931432342044  0.7854110734895088  0.3910851527553034  1.0000
  C   C85       1.0  0.11359238213699406  0.022528996796488565  0.37978048161911704  1.0000
  C   C86       1.0  0.1210228569027172  0.9890378315675737  0.3894807633959928  1.0000
  C   C87       1.0  0.15867286027468563  0.9837290303697247  0.3851531477916476  1.0000
  C   C88       1.0  0.18924471368102783  0.011888507274524729  0.37115453460081443  1.0000
  C   C89       1.0  0.18187849628403305  0.045455405428825646  0.361473260141626  1.0000
  C   C90       1.0  0.14437349334186128  0.05096757858041534  0.3658769996356356  1.0000
  H   H57       1.0  0.09790628010094124  0.9674802102191575  0.40039127146126685  1.0000
  H   H58       1.0  0.16428750922472396  0.9578293414483514  0.3927605184206578  1.0000
  H   H59       1.0  0.20491322524384678  0.06700329879914729  0.3505355312079537  1.0000
  H   H60       1.0  0.13879962927861414  0.07693581509919145  0.35829245480796174  1.0000
  C   C91       1.0  0.8313198198447905  0.9834141798947919  0.3826161574672238  1.0000
  C   C92       1.0  0.7881403287482015  0.9777627006109357  0.37903074726475877  1.0000
  C   C93       1.0  0.7843578134091465  0.018977985268806105  0.3744816272486818  1.0000
  C   C94       1.0  0.8238042333701694  0.06619379464837148  0.37355693639738063  1.0000
  C   C95       1.0  0.8669364731339343  0.07179694100846584  0.37714862887637934  1.0000
  C   C96       1.0  0.8707700049409154  0.030541618926754773  0.3815402938266232  1.0000
  H   H61       1.0  0.7574380850729633  0.9414279711761422  0.3800113887019393  1.0000
  H   H62       1.0  0.7509479669585895  0.014507614770362134  0.37212819093108795  1.0000
  H   H63       1.0  0.8975892370177094  0.10830264470703317  0.3764998913074623  1.0000
  H   H64       1.0  0.9041999856540334  0.03533085123376319  0.3842540256140209  1.0000
  C   C97       1.0  0.9580588674428452  0.9466753679350979  0.48746305375963905  1.0000
  C   C98       1.0  0.9405477688662174  0.95395548741728  0.504287256970336  1.0000
  C   C99       1.0  0.9583804297889905  0.9514383456772438  0.5218564092491803  1.0000
  C   C100      1.0  0.9942445936808977  0.9419393011124283  0.5227981960777761  1.0000
  C   C101      1.0  0.01178964631087398  0.9345667150625565  0.5059759370715207  1.0000
  C   C102      1.0  0.9937144352774557  0.936763575893423  0.48837116387482865  1.0000
  H   H65       1.0  0.9129809402700341  0.9616168283117932  0.5037589010148853  1.0000
  H   H66       1.0  0.9445258963508091  0.9571499619488639  0.5346594437043305  1.0000
  H   H67       1.0  0.03963416341201542  0.9273814122794319  0.5065355152089753  1.0000
  H   H68       1.0  0.007582836894628242  0.9312438995708074  0.475538417844806  1.0000
  C   C103      1.0  0.11510429924109815  0.873096328839575  0.8614150445696447  1.0000
  C   C104      1.0  0.10391379931197789  0.9104633062542746  0.8624930461255732  1.0000
  C   C105      1.0  0.07612943593550822  0.9112639722355891  0.8768661523271486  1.0000
  C   C106      1.0  0.06011985978660702  0.8751981600015262  0.8905019771405093  1.0000
  C   C107      1.0  0.07156240902835703  0.8380125514089051  0.8894992086928157  1.0000
  C   C108      1.0  0.09855466775177689  0.8365994210373673  0.8748916919991628  1.0000
  H   H69       1.0  0.11672503386132614  0.9388790814077661  0.8521283948234458  1.0000
  H   H70       1.0  0.06749758805031253  0.9400482599501099  0.877505769557586  1.0000
  H   H71       1.0  0.0594501644167682  0.8100974945378826  0.900050585427918  1.0000
  H   H72       1.0  0.10722628592915981  0.8078444558856571  0.87425248291541  1.0000
  C   C109      1.0  0.20759502888241504  0.8017787901184711  0.7242939835114329  1.0000
  C   C110      1.0  0.2250299013331312  0.8137903296644959  0.7427869474481638  1.0000
  C   C111      1.0  0.19749084178892728  0.7868464775947395  0.7577035800844433  1.0000
  C   C112      1.0  0.15190515006352184  0.7488941457499688  0.7542417616466559  1.0000
  C   C113      1.0  0.13423154224889913  0.7374936002645732  0.735768832584156  1.0000
  C   C114      1.0  0.16219034569892798  0.7633445211522414  0.7207997454846834  1.0000
  H   H73       1.0  0.26022166322775175  0.8432785205767549  0.7455740975395025  1.0000
  H   H74       1.0  0.21184906940636272  0.7951167771890255  0.7718175634149899  1.0000
  H   H75       1.0  0.09893276854782022  0.7082982277153973  0.7330423170891394  1.0000
  H   H76       1.0  0.1482991580870099  0.7537903545187288  0.7066346591935556  1.0000
  C   C115      1.0  0.1210942644843933  0.8375033994855853  0.6247651732473811  1.0000
  C   C116      1.0  0.08587528735727996  0.81030072393293  0.6372015466572525  1.0000
  C   C117      1.0  0.05199012710713731  0.8226496832331207  0.6402814783939449  1.0000
  C   C118      1.0  0.05280558662902359  0.8617906008164975  0.6307757257558474  1.0000
  C   C119      1.0  0.0885433543613274  0.88958607915393  0.6186444240223226  1.0000
  C   C120      1.0  0.12259482493073917  0.8775032307702878  0.6156950147437381  1.0000
  H   H77       1.0  0.08405642143613352  0.778940563776684  0.6440384849068859  1.0000
  H   H78       1.0  0.024473092318513873  0.8010711167816094  0.6497407729472645  1.0000
  H   H79       1.0  0.09001702103447726  0.9205828353388487  0.6116568426405343  1.0000
  H   H80       1.0  0.15027688409289913  0.899150966275641  0.6063121139460634  1.0000
  C   C121      1.0  0.7755220578759593  0.8422319035200089  0.8867703723557318  1.0000
  C   C122      1.0  0.7324697076314642  0.7998496197789837  0.8822384509229966  1.0000
  C   C123      1.0  0.6949240601842968  0.8045782096621126  0.8769381586885568  1.0000
  C   C124      1.0  0.700098908032986  0.8517932493082035  0.8764299046247378  1.0000
  C   C125      1.0  0.7431760867065448  0.8941393794649276  0.8809243565288487  1.0000
  C   C126      1.0  0.7808528047871985  0.8894668917227535  0.8859133486192935  1.0000
  H   H81       1.0  0.7280415698016856  0.7631448209144186  0.8828590600714094  1.0000
  H   H82       1.0  0.6618748940504217  0.7717203577042616  0.8735159595930128  1.0000
  H   H83       1.0  0.74744925281033  0.9308133891131883  0.8805047492149611  1.0000
  H   H84       1.0  0.8139122815902321  0.9224379680998812  0.8891389876301926  1.0000
  C   C127      1.0  0.34457829351938474  0.8176238071096791  0.8350335322159413  1.0000
  C   C128      1.0  0.32649877634038943  0.7944607187187182  0.8519337507124821  1.0000
  C   C129      1.0  0.3513517592685438  0.7800561060818599  0.8632618361125305  1.0000
  C   C130      1.0  0.39349953640277163  0.7870837575236974  0.8574168805784864  1.0000
  C   C131      1.0  0.41117349268078246  0.8094469253319644  0.8403631161377106  1.0000
  C   C132      1.0  0.3870707305969576  0.8254037080489477  0.8293420695876678  1.0000
  H   H85       1.0  0.2937312040164821  0.7882537001724588  0.8564267065143444  1.0000
  H   H86       1.0  0.3377422618778094  0.7629681596761086  0.8765015579850622  1.0000
  H   H87       1.0  0.443702624738888  0.8150212071606685  0.8357641871015951  1.0000
  H   H88       1.0  0.401221271236119  0.8433527627780111  0.8162824442956104  1.0000
  C   C133      1.0  0.7343033579149685  0.8714586970968987  0.6382394615202377  1.0000
  C   C134      1.0  0.7193902931012113  0.8266119285006476  0.6280985387603201  1.0000
  C   C135      1.0  0.7485347394038017  0.8227491129848782  0.6151313572448566  1.0000
  C   C136      1.0  0.7929396792038855  0.8633413423374765  0.6124465635698428  1.0000
  C   C137      1.0  0.8079528798749128  0.9080620995240066  0.622695574520223  1.0000
  C   C138      1.0  0.7786042067043327  0.912131098438137  0.6354685053138295  1.0000
  H   H89       1.0  0.6852252917649742  0.7951526064844543  0.6300609919714848  1.0000
  H   H90       1.0  0.7366631008604003  0.7880921220719614  0.6071915031359821  1.0000
  H   H91       1.0  0.8420722587241573  0.9395815868702926  0.6206962397171442  1.0000
  H   H92       1.0  0.7903101123627603  0.946978424040675  0.6432404844103083  1.0000
  C   C139      1.0  0.4563375090215623  0.826123657591834  0.6672939407751961  1.0000
  C   C140      1.0  0.42120796721693665  0.833528063695861  0.6735486829361677  1.0000
  C   C141      1.0  0.3807033791796228  0.8155694335189827  0.6626475120691134  1.0000
  C   C142      1.0  0.37596406708904545  0.7916028862548885  0.6451863091760737  1.0000
  C   C143      1.0  0.4115879093807155  0.7853357900049207  0.6387558729629763  1.0000
  C   C144      1.0  0.45127128991293963  0.801645481320543  0.6499345442182234  1.0000
  H   H93       1.0  0.4250269613096348  0.8525541089638359  0.6869662613662726  1.0000
  H   H94       1.0  0.3533561672131223  0.8206032128097721  0.6676892713390988  1.0000
  H   H95       1.0  0.40819862860712797  0.7671341343398383  0.6251941135673112  1.0000
  H   H96       1.0  0.4781017266551872  0.7957458344459414  0.6449768354021393  1.0000
  C   C145      1.0  0.5765644585926201  0.7496151293260239  0.7433483595345438  1.0000
  C   C146      1.0  0.5652920390224906  0.786063958083585  0.7405285264053938  1.0000
  C   C147      1.0  0.5558765027158792  0.8080325534913079  0.7559085552590515  1.0000
  C   C148      1.0  0.5564211881836005  0.7926962301691761  0.7741160652077904  1.0000
  C   C149      1.0  0.5664022757232983  0.755183879395801  0.776912364681183  1.0000
  C   C150      1.0  0.5772164490607589  0.7342601115325424  0.7615754820189541  1.0000
  H   H97       1.0  0.5639102515022916  0.7975458193133009  0.7265180102761892  1.0000
  H   H98       1.0  0.5479097766023528  0.836840649324351  0.7536667463907382  1.0000
  H   H99       1.0  0.5663328200828236  0.7426612799137132  0.7908760389523611  1.0000
  H   H100      1.0  0.5856944803142177  0.7058665993361972  0.7638209645548982  1.0000
  C   C151      1.0  0.08077043611586554  0.22579695304243405  0.8794466025316506  1.0000
  C   C152      1.0  0.0751228589210393  0.19423563486979667  0.8941049932957548  1.0000
  C   C153      1.0  0.04928497655212344  0.14209355850854868  0.8911865757025687  1.0000
  C   C154      1.0  0.029026792298187405  0.12130119349091995  0.8735543316927432  1.0000
  C   C155      1.0  0.03398655820651255  0.15291318938606613  0.8590096810185339  1.0000
  C   C156      1.0  0.05958284996589764  0.20500846651351393  0.8619578849839901  1.0000
  H   H101      1.0  0.0912059776368119  0.210076272822595  0.9077106694085985  1.0000
  H   H102      1.0  0.04558406542926695  0.11800852724978045  0.9024818068675409  1.0000
  H   H103      1.0  0.017856402407053988  0.13695041054423973  0.8454175328507335  1.0000
  H   H104      1.0  0.06296385287699338  0.22904604848943275  0.8507106895739872  1.0000
  C   C157      1.0  0.10711376505382568  0.502540126241907  0.8307827940280342  1.0000
  C   C158      1.0  0.11839187344921474  0.5111864451076029  0.8499852864242229  1.0000
  C   C159      1.0  0.1269665070875148  0.555711583224407  0.8590002267870779  1.0000
  C   C160      1.0  0.1251839655790385  0.5922558857770791  0.8487940081381856  1.0000
  C   C161      1.0  0.11444070925969523  0.5839781064095475  0.8295419003522695  1.0000
  C   C162      1.0  0.10488989376796583  0.5389229669030575  0.8206058394053432  1.0000
  H   H105      1.0  0.11900789111407757  0.48292644864191797  0.8580335852831038  1.0000
  H   H106      1.0  0.13500494846805788  0.5618808364676465  0.8739094000148452  1.0000
  H   H107      1.0  0.11256692791041681  0.6118264578916444  0.8216056414949261  1.0000
  H   H108      1.0  0.09580576410111634  0.5322529134473843  0.8057850521569402  1.0000
  C   C163      1.0  0.3344460679589743  0.5346208552675177  0.8599851519492205  1.0000
  C   C164      1.0  0.3685448793365801  0.5797770809673606  0.868414522612751  1.0000
  C   C165      1.0  0.4131755122692315  0.6041190357468044  0.8616071645686182  1.0000
  C   C166      1.0  0.4245479857415998  0.5825764721418659  0.8467874145821336  1.0000
  C   C167      1.0  0.3907046756692994  0.5366323459008677  0.8386182433823927  1.0000
  C   C168      1.0  0.3454284000301447  0.5129539853479207  0.8450371329261362  1.0000
  H   H109      1.0  0.36039004594786467  0.5966238633364104  0.8800408852069493  1.0000
  H   H110      1.0  0.43898486756317734  0.6393468766356455  0.8680416956107916  1.0000
  H   H111      1.0  0.3993521455844191  0.5198763777530263  0.8271282099728017  1.0000
  H   H112      1.0  0.319229274428174  0.4779876990195029  0.83848641735864  1.0000
  C   C169      1.0  0.06043263886208807  0.13595403008004714  0.6250530095133119  1.0000
  C   C170      1.0  0.0974281245952469  0.12849380912373148  0.6267091304911899  1.0000
  C   C171      1.0  0.1398589700584948  0.16697573176942662  0.6342029818208188  1.0000
  C   C172      1.0  0.14550155054869862  0.2129688534306234  0.6401470000593712  1.0000
  C   C173      1.0  0.10851194017773387  0.220452505266617  0.6385112600324464  1.0000
  C   C174      1.0  0.06612115064373526  0.18203383794131925  0.6310006683907791  1.0000
  H   H113      1.0  0.09339136076672445  0.09318170683814925  0.622127298302498  1.0000
  H   H114      1.0  0.168451467392965  0.16106089278064456  0.6353559626276014  1.0000
  H   H115      1.0  0.11264631246850303  0.2558754423694253  0.6428300655761938  1.0000
  H   H116      1.0  0.03757238870765904  0.18796544401688786  0.6296650386508557  1.0000
  C   C175      1.0  0.1503150980625589  0.5723268631918849  0.6587703118268952  1.0000
  C   C176      1.0  0.14075142712995112  0.5289907606719291  0.6678767859190765  1.0000
  C   C177      1.0  0.15713221802793215  0.4988295503010907  0.6607976268547547  1.0000
  C   C178      1.0  0.18149664545816638  0.5107746055566879  0.6441356503570017  1.0000
  C   C179      1.0  0.19024750619692948  0.5534751820834747  0.6348201081358821  1.0000
  C   C180      1.0  0.17556144658235187  0.5847729463992758  0.6423299244969455  1.0000
  H   H117      1.0  0.12071344632134835  0.5187075464186356  0.680444025093961  1.0000
  H   H118      1.0  0.14995575450726287  0.4657188013640314  0.6680087572408732  1.0000
  H   H119      1.0  0.20868975790682526  0.5626204849402276  0.6218339464824574  1.0000
  H   H120      1.0  0.18274061254663687  0.6178262830096891  0.6351127435258208  1.0000
  C   C181      1.0  0.455257467641763  0.5995957807453419  0.6533107035955509  1.0000
  C   C182      1.0  0.4689020615309507  0.5985072438999369  0.6717616926134385  1.0000
  C   C183      1.0  0.43902089501907554  0.5604355865451262  0.6834124995063362  1.0000
  C   C184      1.0  0.39486041896504237  0.5243620288220497  0.6769023351894318  1.0000
  C   C185      1.0  0.3814816403556404  0.524979743172268  0.6583522540705437  1.0000
  C   C186      1.0  0.41199794257506767  0.5619733689363707  0.6464515407946719  1.0000
  H   H121      1.0  0.5027298139371122  0.6267208128671502  0.6769889097852423  1.0000
  H   H122      1.0  0.4500705353764327  0.559056450109205  0.6975044721615032  1.0000
  H   H123      1.0  0.3477665092361204  0.49703369707810086  0.6531446465163274  1.0000
  H   H124      1.0  0.4016342817966285  0.5622627171719435  0.6320896578447058  1.0000
  C   C187      1.0  0.15728307226133048  0.35249825369425203  0.740182709244729  1.0000
  C   C188      1.0  0.1391849869102076  0.3594889301755388  0.7567906850637032  1.0000
  C   C189      1.0  0.15334670616948884  0.351724869504006  0.7742699952850389  1.0000
  C   C190      1.0  0.18477580318127215  0.33561279036443437  0.7751796848451596  1.0000
  C   C191      1.0  0.2021809181985429  0.3275965156017635  0.7585629413089302  1.0000
  C   C192      1.0  0.18880992967602217  0.33649107837800063  0.7411097464631954  1.0000
  H   H125      1.0  0.11465259618213869  0.37167340017365724  0.756194467360902  1.0000
  H   H126      1.0  0.13968483090264971  0.3580136018415779  0.7870171843986562  1.0000
  H   H127      1.0  0.2266060928819515  0.31529563966604923  0.7592098962227761  1.0000
  H   H128      1.0  0.20274346934796053  0.3305648493293666  0.7284567886775891  1.0000
  N   N1        1.0  0.1665546486367187  0.20846973254143683  0.8335555082887436  1.0000
  C   C193      1.0  0.1331560038665732  0.21856249959262464  0.8244170418813551  1.0000
  C   C194      1.0  0.15565484320428177  0.15764482873383143  0.8279309045256383  1.0000
  C   C195      1.0  0.16397846543125927  0.21233374453198475  0.8541951730121476  1.0000
  C   C196      1.0  0.21333486300391483  0.24530688695963943  0.8276392002989482  1.0000
  H   H129      1.0  0.13959762682374163  0.2560555360648246  0.8287755639663734  1.0000
  H   H130      1.0  0.09731031881297246  0.19065709632244113  0.828033504025558  1.0000
  H   H131      1.0  0.13543735961389833  0.21799022627928172  0.8088329176355288  1.0000
  H   H132      1.0  0.18010216937747106  0.14866541709422548  0.8346014187215361  1.0000
  H   H133      1.0  0.120457138014971  0.12902701945507147  0.8322142831279392  1.0000
  H   H134      1.0  0.15717370297458796  0.1534109641172692  0.8124313701779314  1.0000
  H   H135      1.0  0.19032408475169743  0.20753845146976133  0.8615569307647466  1.0000
  H   H136      1.0  0.1299279067213445  0.18318472241590694  0.8592414317927243  1.0000
  H   H137      1.0  0.16915203798111075  0.2491770401546151  0.858898279293207  1.0000
  H   H138      1.0  0.23964520568750117  0.23894980207240135  0.8341245023361392  1.0000
  H   H139      1.0  0.22247216102912143  0.2840464064427782  0.831626419793824  1.0000
  H   H140      1.0  0.21630180553817016  0.24397805775678075  0.8120938796050966  1.0000
  N   N2        1.0  0.2999544588264615  0.1496940013227693  0.40106816319825433  1.0000
  C   C197      1.0  0.257704752755018  0.14104149087725779  0.39139393326489397  1.0000
  C   C198      1.0  0.33991507105249  0.1958757241796348  0.3944150973652772  1.0000
  C   C199      1.0  0.30616505912007347  0.10705742658937975  0.39690984123613493  1.0000
  C   C200      1.0  0.2959947704822227  0.15466268941307282  0.4215476251374935  1.0000
  H   H141      1.0  0.22685759429171354  0.10624362633893203  0.39597364964169324  1.0000
  H   H142      1.0  0.25958711243135857  0.13705376273689385  0.3759011531287756  1.0000
  H   H143      1.0  0.2517251558019486  0.17236330776573006  0.3941837252540071  1.0000
  H   H144      1.0  0.37262711230103734  0.20309388206230425  0.40109155238903044  1.0000
  H   H145      1.0  0.34372682768529095  0.1935912420389535  0.3789750502574466  1.0000
  H   H146      1.0  0.33680111710031946  0.2290376754627321  0.3974450002431084  1.0000
  H   H147      1.0  0.33808019636435643  0.11241586129034112  0.403683781972941  1.0000
  H   H148      1.0  0.3086806268629207  0.10190319861029586  0.3815830277362079  1.0000
  H   H149      1.0  0.27664884187146915  0.07140104827717808  0.4016698963902608  1.0000
  H   H150      1.0  0.32736057072964353  0.16120147699914975  0.42924620946588404  1.0000
  H   H151      1.0  0.26616467422815654  0.12030960930365765  0.42697533600459997  1.0000
  H   H152      1.0  0.2911340014142466  0.1864246005696458  0.4251986621014609  1.0000
  N   N3        1.0  0.801594116290755  0.8835732389777834  0.9512591306426893  1.0000
  C   C201      1.0  0.7542113180548028  0.8447580168538197  0.9454903013501086  1.0000
  C   C202      1.0  0.8307545122226672  0.8613178055148375  0.9517663026724141  1.0000
  C   C203      1.0  0.8020160289635114  0.904867162374087  0.9701012323833075  1.0000
  C   C204      1.0  0.8197129800277007  0.9235066598568753  0.937570147060212  1.0000
  H   H153      1.0  0.7394109727093131  0.8136663164512793  0.9553800029649024  1.0000
  H   H154      1.0  0.7531728612332178  0.8285298263409607  0.931202732606531  1.0000
  H   H155      1.0  0.7312023192528907  0.8602287718583778  0.9449169605496905  1.0000
  H   H156      1.0  0.8668851889262109  0.889829653267524  0.9558776331858595  1.0000
  H   H157      1.0  0.8184694252386981  0.831362643989569  0.962099792789819  1.0000
  H   H158      1.0  0.8310855627270164  0.8446843548763934  0.9377719693210819  1.0000
  H   H159      1.0  0.8376212143858586  0.934161305995376  0.9747112763524023  1.0000
  H   H160      1.0  0.7886837462229739  0.8758327234676675  0.9808424517655047  1.0000
  H   H161      1.0  0.7807478234663994  0.9224762152486018  0.9702378267739878  1.0000
  H   H162      1.0  0.797833458138769  0.9402084787088447  0.9363180060872734  1.0000
  H   H163      1.0  0.8213972846106765  0.9089783599412781  0.9233552471317021  1.0000
  H   H164      1.0  0.8549586125243386  0.9541814137177186  0.9417368637066553  1.0000
  N   N4        1.0  0.6889404109271475  0.8963992199539801  0.813357918762663  1.0000
  C   C205      1.0  0.6526242691470562  0.9008493274703832  0.822791916626428  1.0000
  C   C206      1.0  0.6686571074459047  0.8610812708014738  0.7969978515147271  1.0000
  C   C207      1.0  0.7096941331837037  0.8777620784250407  0.8266920817872828  1.0000
  C   C208      1.0  0.7244929378009594  0.9458048759015805  0.8070108963920335  1.0000
  H   H165      1.0  0.6661821396478788  0.9265445300058861  0.8354279525878248  1.0000
  H   H166      1.0  0.6255404546600992  0.8641889159860884  0.8276723267087122  1.0000
  H   H167      1.0  0.6354778964814731  0.9141077590079323  0.8131790008893529  1.0000
  H   H168      1.0  0.6418497560977138  0.8234271894641795  0.8013995822510716  1.0000
  H   H169      1.0  0.6516055990941071  0.8733220928534561  0.78686687361799  1.0000
  H   H170      1.0  0.6949015880437719  0.8568990611188482  0.7893224836632993  1.0000
  H   H171      1.0  0.7370903900272698  0.8735043019346949  0.8201187284695585  1.0000
  H   H172      1.0  0.6835198850321298  0.8407865605003169  0.8319693092974985  1.0000
  H   H173      1.0  0.7250222408192026  0.9034040189197449  0.8392798945635791  1.0000
  H   H174      1.0  0.7525404397048613  0.9438680106703585  0.7998542891076869  1.0000
  H   H175      1.0  0.7401856785080673  0.9732688411354885  0.8190734488073844  1.0000
  H   H176      1.0  0.7097261509403754  0.9607511002146153  0.7969533125479077  1.0000
  N   N5        1.0  0.754368284674917  0.2431879270603974  0.2654365459421084  1.0000
  C   C209      1.0  0.7189165848004989  0.1970348974196796  0.27405554026881984  1.0000
  C   C210      1.0  0.7506351831322632  0.23591234959960908  0.2447584896987679  1.0000
  C   C211      1.0  0.8003381995106655  0.2549305531293853  0.2720197173632354  1.0000
  C   C212      1.0  0.7476631561734268  0.28485527799374  0.2709350259427849  1.0000
  H   H177      1.0  0.7213814517733059  0.20082426928706895  0.2896726413269037  1.0000
  H   H178      1.0  0.7225690075848022  0.16473477338339435  0.26995422528396945  1.0000
  H   H179      1.0  0.683718680793977  0.18728094345671364  0.26967357004215803  1.0000
  H   H180      1.0  0.7770923377948695  0.26979355563448687  0.23774442525806974  1.0000
  H   H181      1.0  0.7555091103311927  0.20472329054433444  0.2401611655923464  1.0000
  H   H182      1.0  0.7163345859657307  0.22673175661307793  0.2392696719771846  1.0000
  H   H183      1.0  0.8041926755077143  0.2602211651832088  0.2876018731189222  1.0000
  H   H184      1.0  0.8279937300376032  0.28967510685644904  0.26590868148494484  1.0000
  H   H185      1.0  0.8066362528989686  0.22441812388207474  0.26803995656877305  1.0000
  H   H186      1.0  0.7503333790046558  0.29132583184847355  0.2864663792338577  1.0000
  H   H187      1.0  0.7133198670276909  0.2773262841686449  0.2662593939541786  1.0000
  H   H188      1.0  0.774012519891149  0.3203519273970517  0.26476919011113703  1.0000
  N   N6        1.0  0.766990080558241  0.987385908120407  0.3162369361885106  1.0000
  C   C213      1.0  0.7881747246474634  0.04183904953845041  0.3191053086241682  1.0000
  C   C214      1.0  0.7610194099046297  0.9744663417455188  0.29587655391599815  1.0000
  C   C215      1.0  0.7216766851135245  0.961802337632648  0.32509575412831687  1.0000
  C   C216      1.0  0.7970019130275126  0.9716585570811904  0.3248476050615013  1.0000
  H   H189      1.0  0.7667180921753471  0.054795173838689815  0.3124460928732374  1.0000
  H   H190      1.0  0.8227913598123843  0.06262189054104117  0.3129395250300207  1.0000
  H   H191      1.0  0.792157092689717  0.05301618494529503  0.3342934063980878  1.0000
  H   H192      1.0  0.794395934573019  0.9937684638998883  0.28865418632824474  1.0000
  H   H193      1.0  0.7452034416876319  0.9336387068500651  0.29314365403784876  1.0000
  H   H194      1.0  0.7382372387279676  0.9856628079356266  0.28903396751939076  1.0000
  H   H195      1.0  0.7045521433479726  0.9205877278051612  0.32323903158524925  1.0000
  H   H196      1.0  0.6982441903047861  0.9729802409793947  0.3188861035251006  1.0000
  H   H197      1.0  0.7247989046710506  0.9710120858701903  0.3404389095038789  1.0000
  H   H198      1.0  0.8312615720183893  0.9897784701388438  0.31831153950957497  1.0000
  H   H199      1.0  0.7816447286033775  0.9305673390567291  0.3233877714314785  1.0000
  H   H200      1.0  0.8030259327949304  0.9820169741849896  0.34011654328408747  1.0000
  N   N7        1.0  0.7977000663407092  0.8885514428118536  0.1511144638123482  1.0000
  C   C217      1.0  0.81910999873366  0.8596794595613159  0.15645642937015478  1.0000
  C   C218      1.0  0.7573023174491195  0.8744464039813092  0.16277392894458426  1.0000
  C   C219      1.0  0.7829519547588674  0.877650953642477  0.13111062435525778  1.0000
  C   C220      1.0  0.8313409529772505  0.9423991893426549  0.1540768311257629  1.0000
  H   H201      1.0  0.8498288721967664  0.8696845656473412  0.14795300244338325  1.0000
  H   H202      1.0  0.7950336680855714  0.8188494618465925  0.15397847536165368  1.0000
  H   H203      1.0  0.8301995043759871  0.8663485660339721  0.1715046237376659  1.0000
  H   H204      1.0  0.7403937139790729  0.8956845011078137  0.15906921905388388  1.0000
  H   H205      1.0  0.7312090103895643  0.834026339719806  0.16077870898188062  1.0000
  H   H206      1.0  0.7670645010857559  0.8821399926903052  0.17797187406350848  1.0000
  H   H207      1.0  0.7646412283743437  0.8967832795806701  0.12680766278628874  1.0000
  H   H208      1.0  0.7593607867654183  0.8369590662323677  0.1281502021502649  1.0000
  H   H209      1.0  0.8127947243651706  0.8898207979285069  0.12179642661565003  1.0000
  H   H210      1.0  0.8444445176301721  0.951830857793913  0.1688689972994823  1.0000
  H   H211      1.0  0.8157792721936508  0.9651407771063283  0.15081702099767832  1.0000
  H   H212      1.0  0.861477338127364  0.9548204124995212  0.1448882147274092  1.0000
  N   N8        1.0  0.444866843377672  0.6127550723879337  0.7424793967029981  1.0000
  C   C221      1.0  0.45398984027351913  0.6643173296822097  0.7438485483915336  1.0000
  C   C222      1.0  0.4353375563407375  0.5915653504237094  0.7613402367462988  1.0000
  C   C223      1.0  0.4854511298514843  0.6131329033987082  0.7349726802025396  1.0000
  C   C224      1.0  0.40478919706707894  0.5820086109235574  0.7297478272820191  1.0000
  H   H213      1.0  0.4643354297449728  0.6827334405308342  0.730116589859853  1.0000
  H   H214      1.0  0.482346287391205  0.6877671601072038  0.754147558330922  1.0000
  H   H215      1.0  0.42337847478612944  0.6653740186399083  0.748553877086974  1.0000
  H   H216      1.0  0.4280956118011463  0.5525767469130365  0.7608152589970967  1.0000
  H   H217      1.0  0.46508825363620515  0.6137622281341446  0.7712734547760954  1.0000
  H   H218      1.0  0.4051477335714592  0.5910544547304601  0.7675367708974725  1.0000
  H   H219      1.0  0.47950918618727  0.5747927316133161  0.7332889256155238  1.0000
  H   H220      1.0  0.5161653444151869  0.6351241101721082  0.7443969785560852  1.0000
  H   H221      1.0  0.4945960884364173  0.630293334928399  0.7209830992096073  1.0000
  H   H222      1.0  0.3975442317627932  0.5430807383722858  0.7280051548059966  1.0000
  H   H223      1.0  0.4105742825391995  0.5974674565763963  0.7154809260816658  1.0000
  H   H224      1.0  0.3731854360395823  0.5797610778409001  0.7351345136062569  1.0000
  N   N9        1.0  0.08444078165334418  0.9576891521631913  0.05573075485513443  1.0000
  C   C225      1.0  0.06710928341735808  0.9803919033780171  0.04261042554213511  1.0000
  C   C226      1.0  0.045412337670105496  0.9114515294772765  0.06274908571328666  1.0000
  C   C227      1.0  0.10910767106057521  0.9928917952390819  0.07177478492944633  1.0000
  C   C228      1.0  0.11586668530604945  0.9457864896003094  0.04585518182499451  1.0000
  H   H225      1.0  0.047893051362918375  0.9545481236314127  0.030417168004263768  1.0000
  H   H226      1.0  0.09543581119626555  0.01552845804737697  0.03702914359606563  1.0000
  H   H227      1.0  0.04274832887391521  0.9892070988569481  0.049567476322601764  1.0000
  H   H228      1.0  0.05676159570114395  0.8934418370888436  0.07296512327759132  1.0000
  H   H229      1.0  0.021248368230840118  0.9194791199883667  0.07013455280021226  1.0000
  H   H230      1.0  0.025409661096056534  0.8839087963415797  0.05110162541806095  1.0000
  H   H231      1.0  0.1223003591330872  0.9767096836568963  0.0820224241269487  1.0000
  H   H232      1.0  0.08605989233479151  0.0020961007793151324  0.07963095390517412  1.0000
  H   H233      1.0  0.13878101788569877  0.028462923529112203  0.0671371286116867  1.0000
  H   H234      1.0  0.1293231239539143  0.9283940051860279  0.05538642225789452  1.0000
  H   H235      1.0  0.14579336313726157  0.9798788189986912  0.040376313918434395  1.0000
  H   H236      1.0  0.09806292743579326  0.9191570858636886  0.0337103535655435  1.0000
  N   N10       1.0  0.7589442793691089  0.5572066198721275  0.40765673096874566  1.0000
  C   C229      1.0  0.7082538566739465  0.5273682151192379  0.4078017148730657  1.0000
  C   C230      1.0  0.774640853495745  0.6103357016570378  0.4116164998828114  1.0000
  C   C231      1.0  0.7745809410809121  0.5514282771665113  0.38899797150773197  1.0000
  C   C232      1.0  0.7781990347734606  0.5395373807863095  0.42205432772416474  1.0000
  H   H237      1.0  0.695050397526403  0.5298983081818442  0.4217680262558591  1.0000
  H   H238      1.0  0.6951501624992632  0.48726377246951186  0.4042458092749514  1.0000
  H   H239      1.0  0.692857541488657  0.5406326335235903  0.3972787181354891  1.0000
  H   H240      1.0  0.7649703736366581  0.6165059957111519  0.4258745080105873  1.0000
  H   H241      1.0  0.8125889399483299  0.6345341081091544  0.4106062943136125  1.0000
  H   H242      1.0  0.75906479696243  0.6240301032208985  0.4013901641880074  1.0000
  H   H243      1.0  0.7637325823653938  0.5118566199700776  0.38555715155267906  1.0000
  H   H244      1.0  0.8126126401649677  0.5740944542027686  0.38811177590435414  1.0000
  H   H245      1.0  0.7599715075593322  0.5636422751912862  0.3778416067406698  1.0000
  H   H246      1.0  0.8164159874743987  0.5614490166072303  0.4222502538179253  1.0000
  H   H247      1.0  0.7671719826642167  0.4996287974908022  0.41925937311287576  1.0000
  H   H248      1.0  0.7668843505427738  0.5429138798666976  0.43634870582179774  1.0000
  N   N11       1.0  0.18061464785986148  0.34858847104589874  0.5987899887315196  1.0000
  C   C233      1.0  0.19804992914793798  0.31712254757253405  0.6056618917656628  1.0000
  C   C234      1.0  0.21924706735675772  0.4004191165235925  0.5972657558950868  1.0000
  C   C235      1.0  0.1472156134916143  0.34789590885850075  0.612108749005289  1.0000
  C   C236      1.0  0.1578438772488091  0.32892456261579966  0.5801766778725798  1.0000
  H   H249      1.0  0.1698511277045493  0.27771938218717024  0.6070463108059864  1.0000
  H   H250      1.0  0.21517915261031217  0.3305857166125321  0.6197436356805615  1.0000
  H   H251      1.0  0.2235904307470072  0.3169002584907974  0.5960555622110957  1.0000
  H   H252      1.0  0.24511408846771002  0.40270734685512183  0.5872269866872827  1.0000
  H   H253      1.0  0.2071678786070622  0.42544236319865814  0.5925241835788105  1.0000
  H   H254      1.0  0.23723440852743252  0.41622147655074204  0.6110953860893135  1.0000
  H   H255      1.0  0.1332689023277706  0.3712458793166213  0.6073943615837291  1.0000
  H   H256      1.0  0.16368170084984537  0.3634293908087324  0.6261324848831741  1.0000
  H   H257      1.0  0.11785357132716079  0.30936126058500063  0.61392119070093  1.0000
  H   H258      1.0  0.14423777561294043  0.3517853368515827  0.5745819082880266  1.0000
  H   H259      1.0  0.12845477773841033  0.289871786379771  0.5809180074626407  1.0000
  H   H260      1.0  0.18204491714928192  0.32879877146742337  0.5697668086162496  1.0000
  N   N12       1.0  0.6066204223664635  0.24396382770174166  0.15992429473861708  1.0000
  C   C237      1.0  0.5614688263896054  0.20362568563452244  0.1524852010519739  1.0000
  C   C238      1.0  0.635309396601304  0.22281029170274042  0.16488744327266835  1.0000
  C   C239      1.0  0.6000894454874799  0.26791145822836054  0.176828251135669  1.0000
  C   C240      1.0  0.6296229934301466  0.28157159047136104  0.14551401828939445  1.0000
  H   H261      1.0  0.5431291237520504  0.17459651449387742  0.16301591585836975  1.0000
  H   H262      1.0  0.5650430991441888  0.18471953105189814  0.13970970408196076  1.0000
  H   H263      1.0  0.5387188141480319  0.2179471980009006  0.14860712873038168  1.0000
  H   H264      1.0  0.6420651376992133  0.2056530596556569  0.1523461450437841  1.0000
  H   H265      1.0  0.6692642642088653  0.25201617011659844  0.17097139761106203  1.0000
  H   H266      1.0  0.6184077465276373  0.19315769134110664  0.175323327287334  1.0000
  H   H267      1.0  0.6335463850360223  0.2986020651696509  0.1828000906384472  1.0000
  H   H268      1.0  0.5825413749088945  0.24058451519214188  0.18796445231171213  1.0000
  H   H269      1.0  0.578814881108304  0.28450603752617487  0.17352141453782038  1.0000
  H   H270      1.0  0.662811045475748  0.3136322458797042  0.15097771352247585  1.0000
  H   H271      1.0  0.6082629830100145  0.29708351606434596  0.1409390717730148  1.0000
  H   H272      1.0  0.6368868544546427  0.2654816137574604  0.1328188953713555  1.0000
  N   N13       1.0  0.4151731313993982  0.04668037539297136  0.26021909561646916  1.0000
  C   C241      1.0  0.45818805368831916  0.08392113132417046  0.2514841477324151  1.0000
  C   C242      1.0  0.3791048251418682  0.019922988628922358  0.24545469291579744  1.0000
  C   C243      1.0  0.40055948852467127  0.07220639388288505  0.27376057212098887  1.0000
  C   C244      1.0  0.4229241665323653  0.010733262019464937  0.2701495597591281  1.0000
  H   H273      1.0  0.45345631706814665  0.11160196266598252  0.24386555778713961  1.0000
  H   H274      1.0  0.4701425941281818  0.06588057933135397  0.24116717106916566  1.0000
  H   H275      1.0  0.48616792817534654  0.1047985693883665  0.26224026894756197  1.0000
  H   H276      1.0  0.34565603772818004  0.9926779995876053  0.25154977767647346  1.0000
  H   H277      1.0  0.37358108211642577  0.046204374616600985  0.23726868369696172  1.0000
  H   H278      1.0  0.38833077856744536  0.999104488522862  0.2352495072292331  1.0000
  H   H279      1.0  0.39428959641854233  0.09963151237890236  0.26680412237460904  1.0000
  H   H280      1.0  0.4268674789533719  0.09250400938597511  0.2851821340048062  1.0000
  H   H281      1.0  0.36823806015835997  0.04521152608919268  0.2806824999139734  1.0000
  H   H282      1.0  0.3917553533231102  0.9834432771456495  0.27766252901928945  1.0000
  H   H283      1.0  0.451096677356281  0.0299407716404366  0.2809485898764366  1.0000
  H   H284      1.0  0.43244079658533296  0.9894407442137205  0.2603253069824866  1.0000
  N   N14       1.0  0.1714992778786637  0.019387350201108378  0.19181226788336075  1.0000
  C   C245      1.0  0.19768096343399916  0.04593170398376256  0.20924454722502936  1.0000
  C   C246      1.0  0.12395625525797746  0.9815283518911289  0.19644610823401634  1.0000
  C   C247      1.0  0.19352173314628165  0.9945500477568208  0.18250127260700194  1.0000
  C   C248      1.0  0.1708115379304517  0.05537164688902818  0.17901979843987334  1.0000
  H   H285      1.0  0.23378282906545864  0.07464088148260806  0.20626369630479283  1.0000
  H   H286      1.0  0.19938600078039728  0.019938182920262504  0.21911893630493331  1.0000
  H   H287      1.0  0.18215583783084824  0.06509679300699789  0.21675182583090896  1.0000
  H   H288      1.0  0.10331622138905229  0.9608135872926968  0.1835611765981703  1.0000
  H   H289      1.0  0.12328740040018192  0.9536898019912841  0.20602286491003957  1.0000
  H   H290      1.0  0.10624534893554946  0.9989431308294744  0.20348994583805252  1.0000
  H   H291      1.0  0.17433757342492176  0.9733899090994528  0.16946113030297585  1.0000
  H   H292      1.0  0.195862065189076  0.9680951958935793  0.19191013398514786  1.0000
  H   H293      1.0  0.22915368610862225  0.022157224552966426  0.17855823494929293  1.0000
  H   H294      1.0  0.20601086218061876  0.08330734295395104  0.17455494968885507  1.0000
  H   H295      1.0  0.15590677988746204  0.07614904410427603  0.18577269183423445  1.0000
  H   H296      1.0  0.149984132929952  0.036279101220936694  0.1660094916308132  1.0000
  N   N15       1.0  0.8976968939710412  0.5547556106851772  0.16570444992409591  1.0000
  C   C249      1.0  0.8590575182179783  0.5211589197765828  0.15279586324915925  1.0000
  C   C250      1.0  0.9403617273740805  0.5590815263294143  0.1587297547811214  1.0000
  C   C251      1.0  0.888616712193704  0.5341141730656773  0.18465738915766214  1.0000
  C   C252      1.0  0.9025943125001532  0.6045269328904656  0.16657586764641344  1.0000
  H   H297      1.0  0.826682209161466  0.5175544883388742  0.157655588148939  1.0000
  H   H298      1.0  0.8535604403264422  0.48287505022017624  0.15196822911593397  1.0000
  H   H299      1.0  0.8642339614840318  0.5356315693534323  0.13836593406838887  1.0000
  H   H300      1.0  0.9702961107991659  0.5841454810053424  0.16814170189872676  1.0000
  H   H301      1.0  0.9375679269121869  0.5220412823215378  0.15785052955520062  1.0000
  H   H302      1.0  0.9480151966538315  0.5744973281458854  0.1444359677228534  1.0000
  H   H303      1.0  0.9169964802290103  0.5583085758739924  0.19483596636835723  1.0000
  H   H304      1.0  0.8839397498567926  0.49617142117338014  0.18446563055446757  1.0000
  H   H305      1.0  0.8564994052199175  0.5301781145241601  0.1903104613664706  1.0000
  H   H306      1.0  0.9084272448581615  0.6207463856833778  0.1524256871770364  1.0000
  H   H307      1.0  0.9315675150397398  0.631155755052465  0.1760739291806065  1.0000
  H   H308      1.0  0.8709141576704812  0.6025637954156403  0.1717891663755339  1.0000
  N   N16       1.0  0.8458713234609998  0.8003921787851964  0.6488720696104046  1.0000
  C   C253      1.0  0.835234915889628  0.778517242273968  0.6675895475592255  1.0000
  C   C254      1.0  0.8087505551558081  0.7670031756840068  0.6352948070596106  1.0000
  C   C255      1.0  0.8898432072085247  0.8066386533099186  0.6426037575156271  1.0000
  C   C256      1.0  0.8496854920453503  0.8495794487586099  0.6499805199084183  1.0000
  H   H309      1.0  0.8626077686187352  0.8027518586730089  0.6781686451554793  1.0000
  H   H310      1.0  0.8320308474894259  0.7412899188671795  0.6672808783079136  1.0000
  H   H311      1.0  0.8022777142213141  0.7736202875216555  0.672667128041161  1.0000
  H   H312      1.0  0.8038576660413942  0.7290392587941993  0.6345237125921762  1.0000
  H   H313      1.0  0.7754183285996438  0.7633100786279791  0.6390644695009635  1.0000
  H   H314      1.0  0.8164719734075901  0.781487308583417  0.6208813419900893  1.0000
  H   H315      1.0  0.9187914266902927  0.8319961575282069  0.6524100477547321  1.0000
  H   H316      1.0  0.8988437703711439  0.8232375917588857  0.6285022125312376  1.0000
  H   H317      1.0  0.8885848027490829  0.7704538052280631  0.6415547778264367  1.0000
  H   H318      1.0  0.8593810750872011  0.8677330672370177  0.636249731649796  1.0000
  H   H319      1.0  0.8765058084701588  0.8754153169153985  0.6604436628660207  1.0000
  H   H320      1.0  0.8165921232280091  0.8464238300197965  0.6538218015013371  1.0000
  N   N17       1.0  0.391072362315422  0.3167427621493494  0.1422729899268374  1.0000
  C   C257      1.0  0.38271473655471994  0.2655362666200799  0.14203943180917653  1.0000
  C   C258      1.0  0.3514354615118301  0.3168909698163675  0.15058011081869027  1.0000
  C   C259      1.0  0.3971090787919203  0.33407427941349727  0.12285123264278103  1.0000
  C   C260      1.0  0.43303657842804427  0.35026373374104197  0.15365322469498496  1.0000
  H   H321      1.0  0.41204810375398065  0.2639406266978228  0.13599522361838923  1.0000
  H   H322      1.0  0.3512480011007838  0.2389413767197068  0.13361414456989476  1.0000
  H   H323      1.0  0.3779692972124246  0.25126901997274487  0.1564811573251469  1.0000
  H   H324      1.0  0.35638467281273517  0.3549163155175756  0.1509903226020882  1.0000
  H   H325      1.0  0.319095650074327  0.29155536588400033  0.14242980430510904  1.0000
  H   H326      1.0  0.3462372647860232  0.30394823583893493  0.16526317827182266  1.0000
  H   H327      1.0  0.4034360190627921  0.37262922879843047  0.12246716966978695  1.0000
  H   H328      1.0  0.36619373957575524  0.3093762770840545  0.11382989152445351  1.0000
  H   H329      1.0  0.426929510533215  0.33439688648441823  0.11629413652301528  1.0000
  H   H330      1.0  0.42969060154186234  0.3382018336185818  0.16841276549723685  1.0000
  H   H331      1.0  0.4406375081155156  0.3893414947213122  0.15412707547783253  1.0000
  H   H332      1.0  0.46362269572682574  0.3507206202227499  0.14788132195423448  1.0000
  N   N18       1.0  0.922109057948468  0.7711743809341469  0.8711785475830502  1.0000
  C   C261      1.0  0.9468711017179705  0.7501063045348831  0.8806247219022904  1.0000
  C   C262      1.0  0.887303680582704  0.7334224532904811  0.8578030027106199  1.0000
  C   C263      1.0  0.9549668888562916  0.8155240316588135  0.8609020423386055  1.0000
  C   C264      1.0  0.8992905519686011  0.7857666100047582  0.8853865534861838  1.0000
  H   H333      1.0  0.966075595683375  0.740457883651042  0.8704568780819273  1.0000
  H   H334      1.0  0.9230178412763417  0.7159051776711709  0.8881502565948433  1.0000
  H   H335      1.0  0.9723335082997582  0.777139804509529  0.8912447081072794  1.0000
  H   H336      1.0  0.8620114809994015  0.6993586445251699  0.8650763726312586  1.0000
  H   H337      1.0  0.8677376552225949  0.7480790564414388  0.850578804364289  1.0000
  H   H338      1.0  0.903503469047807  0.7219221826288018  0.8468157849452091  1.0000
  H   H339      1.0  0.9746784985959994  0.8067428075954529  0.8506895062129065  1.0000
  H   H340      1.0  0.9803444892542531  0.8455348701174885  0.8706972659428652  1.0000
  H   H341      1.0  0.9373021934531228  0.8314702231714892  0.8531047262273646  1.0000
  H   H342      1.0  0.8810022197019342  0.8027336565089077  0.8787999398683136  1.0000
  H   H343      1.0  0.924599141296389  0.8137282017404337  0.8958688995161255  1.0000
  H   H344      1.0  0.8736583880846918  0.7532897776451973  0.8932745767404736  1.0000
  N   N19       1.0  0.2729868219695846  0.6335551531419276  0.8427401351888719  1.0000
  C   C265      1.0  0.24286521974853204  0.5810714955532743  0.8360891271774447  1.0000
  C   C266      1.0  0.30921668020464893  0.6373931630787374  0.8555033414606812  1.0000
  C   C267      1.0  0.24538962619183016  0.6505280879722636  0.8528354572599551  1.0000
  C   C268      1.0  0.2944977561811948  0.6652908236403567  0.8265348495139744  1.0000
  H   H345      1.0  0.21474495636964372  0.5765687545248127  0.8265517054552739  1.0000
  H   H346      1.0  0.226322789298762  0.5561773056396361  0.8480297166559836  1.0000
  H   H347      1.0  0.2625067398943987  0.5668343892235695  0.8284469373045081  1.0000
  H   H348      1.0  0.3321944044898458  0.676255736817098  0.861112245454965  1.0000
  H   H349      1.0  0.2943731563855504  0.6130931185331663  0.8677013310663844  1.0000
  H   H350      1.0  0.33134052038884343  0.6260247130859735  0.8481421669426189  1.0000
  H   H351      1.0  0.26698402385127845  0.689280624369412  0.8586430517384097  1.0000
  H   H352      1.0  0.22717059652742141  0.6264182261891712  0.8647534716114089  1.0000
  H   H353      1.0  0.21900430952987948  0.6500328930294583  0.8433548834265292  1.0000
  H   H354      1.0  0.31767353081281063  0.7050449200458209  0.8311628365506003  1.0000
  H   H355      1.0  0.2682261095991515  0.6638018734391515  0.8166787720582982  1.0000
  H   H356      1.0  0.3156048969839834  0.6535425185093473  0.8185713026841972  1.0000
  N   N20       1.0  0.7721389014843505  0.13479427973632074  0.0991865599813021  1.0000
  C   C269      1.0  0.7226868541826006  0.11095330527988022  0.10301045727986388  1.0000
  C   C270      1.0  0.7806740437481419  0.09871645407658577  0.08894408515593262  1.0000
  C   C271      1.0  0.7986463653729314  0.15052054312034271  0.11713311560484385  1.0000
  C   C272      1.0  0.786480973455856  0.178980356086565  0.08782232278363795  1.0000
  H   H357      1.0  0.7014712610521369  0.0989124362983523  0.08981069289343592  1.0000
  H   H358      1.0  0.7151593384596859  0.13694642116383682  0.11101646325858038  1.0000
  H   H359      1.0  0.7107114287690173  0.07721117013199011  0.11147789396136826  1.0000
  H   H360      1.0  0.7694324736207035  0.06472887713195563  0.0971751888235423  1.0000
  H   H361      1.0  0.7616301726103808  0.0863497267395173  0.07521118064348627  1.0000
  H   H362      1.0  0.8178311385435241  0.11491694969013769  0.08623700540633149  1.0000
  H   H363      1.0  0.8360955957607317  0.1676811559349915  0.11493112939553213  1.0000
  H   H364      1.0  0.7878758188719922  0.11815927884642459  0.12615922049657702  1.0000
  H   H365      1.0  0.7934814176039131  0.17824044276282544  0.12516702389346485  1.0000
  H   H366      1.0  0.7670556083210802  0.16864161979524195  0.0741794657114554  1.0000
  H   H367      1.0  0.8237035866305676  0.19801223403414123  0.08476726067631465  1.0000
  H   H368      1.0  0.7803697031144358  0.2067158944899783  0.09535478029379099  1.0000
  N   N21       1.0  0.17661417182471104  0.9024753532018847  0.6820076446909846  1.0000
  C   C273      1.0  0.20969156358071508  0.9017069247833528  0.6688755823757115  1.0000
  C   C274      1.0  0.152818998608703  0.9251423263974802  0.6729424331993553  1.0000
  C   C275      1.0  0.201446455992931  0.9319167735384167  0.6992303683643  1.0000
  C   C276      1.0  0.14262401293280966  0.8509509704869548  0.6869954878062033  1.0000
  H   H369      1.0  0.22934349191819337  0.8864547501542032  0.6755449356582534  1.0000
  H   H370      1.0  0.23510454340215503  0.9397253296788173  0.6643087907185548  1.0000
  H   H371      1.0  0.1921115248555791  0.8781650152101743  0.6560068535624507  1.0000
  H   H372      1.0  0.1268479412525936  0.9254263863613915  0.6822719669222506  1.0000
  H   H373      1.0  0.17739335597148487  0.9642624211390837  0.6691868919098314  1.0000
  H   H374      1.0  0.13453739016243949  0.9041715740605646  0.6597247467080061  1.0000
  H   H375      1.0  0.17762231685537544  0.9333204335800928  0.7095063266625897  1.0000
  H   H376      1.0  0.22786602952997656  0.9708735054831819  0.6960183392818791  1.0000
  H   H377      1.0  0.21950846960718323  0.9153237271225724  0.7063917074797118  1.0000
  H   H378      1.0  0.15959584238453553  0.832921492644596  0.6938502445033209  1.0000
  H   H379      1.0  0.12350324486171729  0.8274409495242319  0.6743546809572305  1.0000
  H   H380      1.0  0.11711027267332777  0.8499491376256596  0.696931646625257  1.0000
  N   N22       1.0  0.30248422060958824  0.941484147501271  0.8566918579344219  1.0000
  C   C277      1.0  0.3233258836615314  0.9124754167491379  0.8626539462575683  1.0000
  C   C278      1.0  0.2871908038670047  0.9286090024253593  0.8368076149164854  1.0000
  C   C279      1.0  0.33683195413316386  0.995295957865223  0.8587950017486441  1.0000
  C   C280      1.0  0.26255570723497285  0.9295056442569865  0.8683954461813992  1.0000
  H   H381      1.0  0.3358849280376089  0.9214538115910232  0.8775237715366786  1.0000
  H   H382      1.0  0.35276069763208673  0.919554028588156  0.853736448518975  1.0000
  H   H383      1.0  0.2982556675614422  0.8716999596035834  0.8613264571143552  1.0000
  H   H384      1.0  0.26992411151462425  0.9484159314971723  0.8318397413141335  1.0000
  H   H385      1.0  0.3162628249558317  0.9372130116087811  0.8274349252920598  1.0000
  H   H386      1.0  0.2621816742872148  0.8881714351158262  0.8348041064450531  1.0000
  H   H387      1.0  0.367322673779574  0.005366866083970032  0.8501077803262047  1.0000
  H   H388      1.0  0.34911413285510723  0.0063583943367732055  0.8736555264112956  1.0000
  H   H389      1.0  0.3222125534437461  0.018147534534376796  0.8542851564195756  1.0000
  H   H390      1.0  0.24554973878478864  0.9501641833550631  0.8640660525901649  1.0000
  H   H391      1.0  0.27254152085285743  0.9385794113069403  0.8835293565557111  1.0000
  H   H392      1.0  0.23577341955950396  0.8892174551700447  0.8670228193199837  1.0000
  N   N23       1.0  0.3376689279168126  0.6367855008711792  0.6523306361527594  1.0000
  C   C281      1.0  0.31745015127442056  0.6438798070201255  0.6351269044492377  1.0000
  C   C282      1.0  0.33380985421937104  0.6658149543777022  0.6681816175912368  1.0000
  C   C283      1.0  0.38660083842508786  0.6542439187159251  0.6493923143294753  1.0000
  C   C284      1.0  0.31280409918104257  0.5832951243148345  0.6566018979503658  1.0000
  H   H393      1.0  0.3168653748287862  0.6199875667822694  0.623140280890976  1.0000
  H   H394      1.0  0.3372361996475197  0.6831599891678164  0.6307682091325479  1.0000
  H   H395      1.0  0.28165631986400297  0.6349146470074721  0.6372928971563876  1.0000
  H   H396      1.0  0.29732506012883375  0.6538489112235586  0.6707175822726753  1.0000
  H   H397      1.0  0.3490413346931256  0.6616579158263387  0.6813669174711348  1.0000
  H   H398      1.0  0.35203583737868893  0.7062908610577414  0.6653392818835058  1.0000
  H   H399      1.0  0.4026787063198425  0.6476365511473688  0.6617693836561429  1.0000
  H   H400      1.0  0.4068668256988077  0.6948390178200524  0.6469295842639019  1.0000
  H   H401      1.0  0.391099664204821  0.6350329430770733  0.6369524020652482  1.0000
  H   H402      1.0  0.27578377577443636  0.5689686464023361  0.658968232411703  1.0000
  H   H403      1.0  0.32741984994644113  0.5763196775303753  0.669380662172645  1.0000
  H   H404      1.0  0.31462925283142607  0.5602214031190855  0.6448421718367283  1.0000
  N   N24       1.0  0.1569416741842871  0.6207131227884087  0.7274554209947365  1.0000
  C   C285      1.0  0.13631276387944483  0.5731645104708455  0.7372382648013944  1.0000
  C   C286      1.0  0.18852603755086147  0.621759343762967  0.7130902268218172  1.0000
  C   C287      1.0  0.18265523448249613  0.6627419949447741  0.7412144155662883  1.0000
  C   C288      1.0  0.12018892823200356  0.6251985339274445  0.7182543182666065  1.0000
  H   H405      1.0  0.11661571202893793  0.540615666585514  0.7272604952427381  1.0000
  H   H406      1.0  0.11223417832401748  0.5713142670123442  0.7481644766893066  1.0000
  H   H407      1.0  0.16299362971907114  0.5684502065721567  0.7443795890017375  1.0000
  H   H408      1.0  0.2040247934042267  0.6568950263430428  0.7052745505798818  1.0000
  H   H409      1.0  0.2169082113665277  0.6187534047297527  0.7194659345355757  1.0000
  H   H410      1.0  0.1701853410846093  0.590530733435357  0.7024964747670184  1.0000
  H   H411      1.0  0.15987610271507255  0.6628688692092237  0.7523546448697104  1.0000
  H   H412      1.0  0.19826334763761308  0.699302892339729  0.7343610917183424  1.0000
  H   H413      1.0  0.21088481057351316  0.6608655235561809  0.7483568046635413  1.0000
  H   H414      1.0  0.13460212329800011  0.6599407270798038  0.7102475700288716  1.0000
  H   H415      1.0  0.09633716770723239  0.6259051188614584  0.7287162155315036  1.0000
  H   H416      1.0  0.09959269536472737  0.5935934971722352  0.707992508837313  1.0000
  N   N25       1.0  0.20785220985660044  0.42630012954642654  0.9154787717925266  1.0000
  C   C289      1.0  0.22686476120374482  0.4069636722401343  0.9012930780757507  1.0000
  C   C290      1.0  0.157457748158057  0.39283445823960894  0.915851883484111  1.0000
  C   C291      1.0  0.2189922280247394  0.47687311711239616  0.9106169780394129  1.0000
  C   C292      1.0  0.228194093463192  0.4284894429784752  0.9341382635162678  1.0000
  H   H417      1.0  0.26481791341796945  0.43144391263248355  0.9004470931332947  1.0000
  H   H418      1.0  0.21242154107155725  0.4051569945291741  0.887095164276759  1.0000
  H   H419      1.0  0.21857038634302633  0.3685357925296872  0.9042901333557887  1.0000
  H   H420      1.0  0.14176841141478638  0.40606947408856925  0.9263961664563717  1.0000
  H   H421      1.0  0.1409928933832513  0.39015978731406054  0.9019517617460137  1.0000
  H   H422      1.0  0.1477495324482154  0.35411664260163345  0.9192092421488819  1.0000
  H   H423      1.0  0.20401314409768517  0.47653824948264867  0.8966264604351832  1.0000
  H   H424      1.0  0.2567662339956815  0.5028614384381742  0.9098039095201788  1.0000
  H   H425      1.0  0.20558333939137963  0.4929729210170363  0.9210680113838661  1.0000
  H   H426      1.0  0.21465020221369208  0.4429488721129416  0.9452098861752145  1.0000
  H   H427      1.0  0.2662236985849731  0.4534144978702208  0.9342748760293861  1.0000
  H   H428      1.0  0.22043649310506278  0.3908825233954  0.9381865215518435  1.0000
  N   N26       1.0  0.5886097515261012  0.2302986206182027  0.35288512232366215  1.0000
  C   C293      1.0  0.6227515592842455  0.21555883429351314  0.35658576604867565  1.0000
  C   C294      1.0  0.5571638862334131  0.21651683149922438  0.3687934513440499  1.0000
  C   C295      1.0  0.5618773354223721  0.20413151790030123  0.33552571789136  1.0000
  C   C296      1.0  0.6125491983190111  0.28480951039154057  0.35065395866268456  1.0000
  H   H429      1.0  0.6433855382309634  0.23427861313327503  0.36964976530970506  1.0000
  H   H430      1.0  0.6470329990686913  0.22516773432424805  0.34485385043426586  1.0000
  H   H431      1.0  0.6059699156869978  0.17474849778555415  0.3583637102702611  1.0000
  H   H432      1.0  0.5305209504724407  0.22645982006731752  0.3663542957140507  1.0000
  H   H433      1.0  0.5388227807264795  0.17567770367977387  0.37093850526408473  1.0000
  H   H434      1.0  0.5759926297368537  0.2358048795114908  0.38213357049786917  1.0000
  H   H435      1.0  0.5352089072743601  0.2137607362670479  0.33249429412031534  1.0000
  H   H436      1.0  0.543865221923507  0.16288966397716292  0.3367285793693646  1.0000
  H   H437      1.0  0.5844397333495711  0.21390699290072135  0.32319996022242836  1.0000
  H   H438      1.0  0.6377823205630274  0.29683289981371397  0.3391885227462005  1.0000
  H   H439      1.0  0.6320438583728639  0.30568707702211956  0.3637086950253843  1.0000
  H   H440      1.0  0.5879841700112347  0.29716620573451746  0.34732946328156256  1.0000
  N   N27       1.0  0.02852656990617497  0.8636041739340244  0.3562390227762046  1.0000
  C   C297      1.0  0.9789503314074475  0.8320092353627896  0.3515363966421195  1.0000
  C   C298      1.0  0.05391534697071898  0.8439859489463092  0.3459999274658188  1.0000
  C   C299      1.0  0.03610152408552647  0.8630715705224324  0.37666221276535067  1.0000
  C   C300      1.0  0.045246191402442015  0.915310485552988  0.35079297170251184  1.0000
  H   H441      1.0  0.965037775579012  0.7928457360534282  0.3557083383743214  1.0000
  H   H442      1.0  0.9717359337352397  0.8312485520982746  0.33624577195641603  1.0000
  H   H443      1.0  0.9587579363973409  0.845644058832214  0.35909100309714526  1.0000
  H   H444      1.0  0.0421859537671867  0.8050611370215324  0.3498501194304756  1.0000
  H   H445      1.0  0.04903902469864718  0.8438805206623861  0.3305330353002268  1.0000
  H   H446      1.0  0.09149056563378055  0.8670261375589952  0.34927201100748084  1.0000
  H   H447      1.0  0.07321265330278903  0.8849653226067496  0.3806505311291653  1.0000
  H   H448      1.0  0.022159899407991457  0.8244184691017403  0.3814327819795698  1.0000
  H   H449      1.0  0.018657038426196593  0.8791510173820768  0.38482359510146585  1.0000
  H   H450      1.0  0.02851637752611258  0.9322997655884135  0.35894783926879154  1.0000
  H   H451      1.0  0.038346778058690134  0.9170319798483693  0.3356404205859194  1.0000
  H   H452      1.0  0.08292557782663934  0.9396091218494608  0.3533983968769385  1.0000
  N   N28       1.0  0.8459727485744373  0.9975008523591622  0.4464208272460799  1.0000
  C   C301      1.0  0.8879831817906516  0.02501800507705664  0.45842317201754545  1.0000
  C   C302      1.0  0.8388435337208121  0.9482224633700167  0.4407040738039105  1.0000
  C   C303      1.0  0.8510877490915678  0.025992370961098892  0.4295072955546638  1.0000
  C   C304      1.0  0.8060244033171932  0.990637228181097  0.45699262974453964  1.0000
  H   H453      1.0  0.8948776622551057  0.06263048787930982  0.4628740451914733  1.0000
  H   H454      1.0  0.918664905994788  0.030011006361162905  0.45093089220581684  1.0000
  H   H455      1.0  0.8853630989977581  0.00451780430733371  0.47132967651395885  1.0000
  H   H456      1.0  0.835770767325485  0.925825830299539  0.453072388023288  1.0000
  H   H457      1.0  0.8076153758988307  0.9263017263436573  0.431509869276005  1.0000
  H   H458      1.0  0.868222872263982  0.952256648488053  0.4325976861842851  1.0000
  H   H459      1.0  0.8568140005821765  0.06359304606716053  0.4331510958433104  1.0000
  H   H460      1.0  0.8199936167736782  0.006256944899511471  0.42011705994260046  1.0000
  H   H461      1.0  0.8807103925224802  0.03124640644406954  0.42114284819881365  1.0000
  H   H462      1.0  0.7738143329989372  0.969911462317525  0.44827658471664406  1.0000
  H   H463      1.0  0.8102228189716612  0.027108772383024907  0.4615116623218091  1.0000
  H   H464      1.0  0.801266696123023  0.9691036888047633  0.46981455849557363  1.0000
  N   N29       1.0  0.0684648759554718  0.8514924029302042  0.5599311308652839  1.0000
  C   C305      1.0  0.05691275320527733  0.8429306800596656  0.5395907381079205  1.0000
  C   C306      1.0  0.10311257108225713  0.9046962694937688  0.563788539042143  1.0000
  C   C307      1.0  0.08711643244214273  0.8203363394624177  0.5658309882798148  1.0000
  C   C308      1.0  0.026606781887483555  0.8380896046619881  0.5704724017508913  1.0000
  H   H465      1.0  0.030521151376098787  0.8033067713284839  0.5361340238867953  1.0000
  H   H466      1.0  0.08765151608557864  0.8527538962590988  0.531147788313335  1.0000
  H   H467      1.0  0.04280472688771697  0.8660588612694122  0.5347302955518582  1.0000
  H   H468      1.0  0.11247192051213317  0.9127235957974563  0.5789770654259961  1.0000
  H   H469      1.0  0.13512393909010445  0.9162155666925749  0.5560207195886054  1.0000
  H   H470      1.0  0.09008161971314887  0.9292369553714717  0.5595437382453913  1.0000
  H   H471      1.0  0.09549151845384984  0.825267644891125  0.581173239068036  1.0000
  H   H472      1.0  0.11920426853965749  0.8299939798456138  0.55841485585823  1.0000
  H   H473      1.0  0.062069385857990156  0.779995495540832  0.5629197333790743  1.0000
  H   H474      1.0  0.033916340768211706  0.8447912963456249  0.5858685751665161  1.0000
  H   H475      1.0  0.999754328606469  0.7981640915789376  0.5680077930073391  1.0000
  H   H476      1.0  0.011470277921180605  0.8605425232424982  0.5661424436625733  1.0000
  N   N30       1.0  0.5821880481766396  0.4227713157390663  0.26736700930652185  1.0000
  C   C309      1.0  0.5338198309341028  0.38386003109916933  0.270225927128601  1.0000
  C   C310      1.0  0.5911935817486886  0.4272438309189249  0.2470354844239966  1.0000
  C   C311      1.0  0.6128343045590469  0.409031458237673  0.27675295562277397  1.0000
  C   C312      1.0  0.5909193596966965  0.47097763293049344  0.275474751701089  1.0000
  H   H477      1.0  0.526040186253562  0.3468684884242364  0.26443251696283104  1.0000
  H   H478      1.0  0.5097755742358892  0.3930646901684849  0.263327024328473  1.0000
  H   H479      1.0  0.5258086301820267  0.3796942704127516  0.2854340200163971  1.0000
  H   H480      1.0  0.6276516608220745  0.4552323680402348  0.2444257525502927  1.0000
  H   H481      1.0  0.5839979784617493  0.3913223577841587  0.2403338308798172  1.0000
  H   H482      1.0  0.569956525463184  0.4393650350271037  0.23954433954250776  1.0000
  H   H483      1.0  0.6065711135011782  0.40479720855427676  0.2920721103547887  1.0000
  H   H484      1.0  0.6496086524952891  0.43803584582609184  0.2752005458546571  1.0000
  H   H485      1.0  0.6078465453274412  0.37329732399214494  0.2708390250462701  1.0000
  H   H486      1.0  0.5842844607087455  0.46887005779525975  0.2908003332118596  1.0000
  H   H487      1.0  0.5687222062745775  0.4828380547739609  0.2686663266185874  1.0000
  H   H488      1.0  0.6271805876939902  0.5010717875557065  0.27375972953156746  1.0000
  N   N31       1.0  0.07805339099758624  0.21569680646540243  0.6967708696925696  1.0000
  C   C313      1.0  0.05926281266568978  0.2425526246525369  0.6869499280240167  1.0000
  C   C314      1.0  0.12839546074788988  0.24262973563188056  0.6949541230736176  1.0000
  C   C315      1.0  0.05784064488484497  0.16480746117980083  0.6882973043469004  1.0000
  C   C316      1.0  0.0669545554825326  0.21313574526187598  0.7168897315430096  1.0000
  H   H489      1.0  0.021366429745504956  0.22358052733934156  0.6882068880720328  1.0000
  H   H490      1.0  0.06684951927962945  0.24510086251965335  0.6717284227041616  1.0000
  H   H491      1.0  0.07420549993046621  0.2813269200262911  0.6928851091140692  1.0000
  H   H492      1.0  0.14389805047522897  0.22332607347839842  0.7020088950213722  1.0000
  H   H493      1.0  0.1382919708647179  0.246177632604513  0.6799852793322776  1.0000
  H   H494      1.0  0.14460719747810935  0.28083542754569185  0.7014480818109909  1.0000
  H   H495      1.0  0.07116962675136129  0.14343506426527747  0.6954045555878429  1.0000
  H   H496      1.0  0.06616486165797464  0.16571702804728858  0.6731469590571096  1.0000
  H   H497      1.0  0.01977652448965661  0.143454372160247  0.6892005547243377  1.0000
  H   H498      1.0  0.08128679243475267  0.19393289231375055  0.7248486782984463  1.0000
  H   H499      1.0  0.029236456946888367  0.19292202076296308  0.718891068719355  1.0000
  H   H500      1.0  0.08162145731426662  0.2512005362449857  0.7235551389058151  1.0000
  N   N32       1.0  0.6152626774840281  0.9478380387370781  0.645691987328675  1.0000
  C   C317      1.0  0.5657447423758037  0.9203907782577536  0.6405845283091453  1.0000
  C   C318      1.0  0.6337079322442579  0.0020093552141694656  0.6450746404738719  1.0000
  C   C319      1.0  0.6399527388371279  0.9334663578585035  0.6323384470459757  1.0000
  C   C320      1.0  0.6216576242585526  0.9354086569914075  0.6648757240673199  1.0000
  H   H501      1.0  0.5508597834015116  0.879382410493001  0.6408138064535631  1.0000
  H   H502      1.0  0.5592583263867934  0.9291259260297056  0.6262845999292228  1.0000
  H   H503      1.0  0.545877601402354  0.9292619298693449  0.6507125391604501  1.0000
  H   H504      1.0  0.6295591963218582  0.012765950729555308  0.6307702083939878  1.0000
  H   H505      1.0  0.6157085238721169  0.013902035914795819  0.6550157681737583  1.0000
  H   H506      1.0  0.6709488652298482  0.0236771439928663  0.6489883618579223  1.0000
  H   H507      1.0  0.6773470015017298  0.9529301528384342  0.6359603042884693  1.0000
  H   H508      1.0  0.6360008119951801  0.9421595843449263  0.6176710079636526  1.0000
  H   H509      1.0  0.627133323014324  0.8928283474856297  0.6325581850487321  1.0000
  H   H510      1.0  0.6586148217016674  0.9541251116270439  0.6691355874839837  1.0000
  H   H511      1.0  0.6072959086835524  0.894802130240823  0.6657711581598871  1.0000
  H   H512      1.0  0.6036306741674776  0.9456689243171061  0.675440194658645  1.0000
