data_image0
_chemical_formula_structural       FeS2FeS2FeSFeS3FeS2FeS2FeSFeS3FeS2FeS2FeSFeS3FeS2FeS2FeSFeS3FeS2FeS2FeSFeS3FeS2FeS2FeSFeS3FeS2FeS2FeSFeS3FeS2FeS2FeSFeS3FeS2FeS2FeSFeS3FeS2FeS2FeSFeS3FeS2FeS2FeSFeS3FeS2FeS2FeSFeS3FeS2FeS2FeSFeS3FeS2FeS2FeSFeS3FeS2FeS2FeSFeS3FeS2FeS2FeSFeS3FeS2FeS2FeSFeS3FeS2FeS2FeSFeS3FeS2FeS2FeSFeS3FeS2FeS2FeSFeS3FeS2FeS2FeSFeS3FeS2FeS2FeSFeS3FeS2FeS2FeSFeS3FeS2FeS2FeSFeS3FeS2FeS2FeSFeS3FeS2FeS2FeSFeS3FeS2FeS2FeSFeS3FeS2FeS2FeSFeS3C6H4C6H4C6H4C6H4C6H4C6H4C6H4C6H4C6H4C6H4C6H4C6H4C6H4C6H4C6H4C6H4C6H4C6H4C6H4C6H4C6H4C6H4C6H4C6H4C6H4C6H4C6H4C6H4C6H4C6H4C6H4C6H4C6H4C6H4C6H4C6H4C6H4C6H4C6H4C6H4C6H4C6H4C6H4C6H4C6H4C6H4C6H4C6H4C6H4C6H4C6H4C6H4C6H4C6H4C6H4C6H4NC4H12NC4H12NC4H12NC4H12NC4H12NC4H12NC4H12NC4H12NC4H12NC4H12NC4H12NC4H12NC4H12NC4H12NC4H12NC4H12NC4H12NC4H12NC4H12NC4H12NC4H12NC4H12NC4H12NC4H12NC4H12NC4H12NC4H12NC4H12NC4H12NC4H12NC4H12NC4H12NC4H12NC4H12NC4H12NC4H12NC4H12NC4H12NC4H12NC4H12NC4H12NC4H12NC4H12NC4H12NC4H12NC4H12NC4H12NC4H12NC4H12NC4H12NC4H12NC4H12NC4H12NC4H12NC4H12NC4H12
_chemical_formula_sum              "Fe112 S224 C560 H896 N56"
_cell_length_a       50.23517965199053
_cell_length_b       36.392631429166435
_cell_length_c       45.714302627777585
_cell_angle_alpha    90.74476731129263
_cell_angle_beta     113.35484725988644
_cell_angle_gamma    90.59246992968936

_space_group_name_H-M_alt    "P 1"
_space_group_IT_number       1

loop_
  _space_group_symop_operation_xyz
  'x, y, z'

loop_
  _atom_site_type_symbol
  _atom_site_label
  _atom_site_symmetry_multiplicity
  _atom_site_fract_x
  _atom_site_fract_y
  _atom_site_fract_z
  _atom_site_occupancy
  Fe  Fe1       1.0  0.3033883463365256  0.7879652986355957  0.8653120892022713  1.0000
  S   S1        1.0  0.3280044664935663  0.8411813216903009  0.8758383322413669  1.0000
  S   S2        1.0  0.3228527162527306  0.7360254662481986  0.8547809000190569  1.0000
  Fe  Fe2       1.0  0.247641815610549  0.8237870241090122  0.8627706653022594  1.0000
  S   S3        1.0  0.26845503152238664  0.8807246055156678  0.872981609341843  1.0000
  S   S4        1.0  0.20334070632542436  0.8074293989565529  0.8630317098690083  1.0000
  Fe  Fe3       1.0  0.28839933423535663  0.8645381077798402  0.8382691897467117  1.0000
  S   S5        1.0  0.2993175134670619  0.9068084749367874  0.8082959247237291  1.0000
  Fe  Fe4       1.0  0.30707133790445207  0.8541143389280141  0.9101341680536886  1.0000
  S   S6        1.0  0.3396993618345432  0.8804722587544526  0.9565260758669532  1.0000
  S   S7        1.0  0.2645405594060334  0.8101641644273646  0.8249715868668109  1.0000
  S   S8        1.0  0.2855385427869227  0.7980463406593068  0.9025849777707601  1.0000
  Fe  Fe5       1.0  0.7252501087641346  0.8717507936412677  0.6978531063397498  1.0000
  S   S9        1.0  0.7510628720627689  0.8199503869257136  0.7128441422846348  1.0000
  S   S10       1.0  0.7160962895638924  0.9167290430896833  0.7273605526172849  1.0000
  Fe  Fe6       1.0  0.710099391532884  0.8587551384412908  0.6264812930873421  1.0000
  S   S11       1.0  0.7342566254580062  0.8054353760029117  0.6356813970987062  1.0000
  S   S12       1.0  0.6781603454972783  0.8766848161879187  0.577235231421269  1.0000
  Fe  Fe7       1.0  0.7142851574842977  0.7940306277864806  0.670836887653067  1.0000
  S   S13       1.0  0.6976006560567946  0.7364521209462049  0.6728790051287209  1.0000
  Fe  Fe8       1.0  0.7695877199234799  0.8346726845114415  0.6768880334496545  1.0000
  S   S14       1.0  0.8165067305405054  0.8308977732389278  0.6810865792409219  1.0000
  S   S15       1.0  0.6873621812595292  0.8445936051498808  0.6586411077144545  1.0000
  S   S16       1.0  0.7466657630244744  0.88910205996865  0.6651035582397165  1.0000
  Fe  Fe9       1.0  0.03629502143073775  0.7634161685783754  0.7700979655663491  1.0000
  S   S17       1.0  0.023903151725640455  0.7594036847208757  0.8122386495954498  1.0000
  S   S18       1.0  0.06959280734966161  0.8046668713831113  0.7664153228813602  1.0000
  Fe  Fe10      1.0  0.9964441846562822  0.6983880908133872  0.7356323736195715  1.0000
  S   S19       1.0  0.9826467460156105  0.6895559053357907  0.7759553196410143  1.0000
  S   S20       1.0  0.9769282440486745  0.6618750887994802  0.6915524996399595  1.0000
  Fe  Fe11      1.0  0.9776234428958009  0.7506985479190432  0.7761260729201676  1.0000
  S   S21       1.0  0.9359342461051074  0.7678735566877612  0.7817217429353029  1.0000
  Fe  Fe12      1.0  0.029423089804895084  0.6985653836513841  0.8073263268025762  1.0000
  S   S22       1.0  0.05352072934632256  0.6627774699874417  0.8495252062148514  1.0000
  S   S23       1.0  0.9895363160756125  0.7594586085952091  0.7341671234659344  1.0000
  S   S24       1.0  0.04385260442997908  0.7030041860677704  0.7669452176483772  1.0000
  Fe  Fe13      1.0  0.2535533037655924  0.13155646523818926  0.3644760760014072  1.0000
  S   S25       1.0  0.2599094166732706  0.07175461050089461  0.3547163913402845  1.0000
  S   S26       1.0  0.21157634408165532  0.16091087720712824  0.3596305306160438  1.0000
  Fe  Fe14      1.0  0.31875281133484035  0.14761132216674244  0.39683042609258934  1.0000
  S   S27       1.0  0.32876617658534824  0.08997282819635517  0.3887307345840738  1.0000
  S   S28       1.0  0.36001001861899967  0.17817819046549596  0.4281728422793326  1.0000
  Fe  Fe15      1.0  0.29467772874663034  0.09353946394855535  0.3394216419242888  1.0000
  S   S29       1.0  0.3115304888705106  0.06030420676249832  0.3077899972204505  1.0000
  Fe  Fe16      1.0  0.29430879331935883  0.07167270702979359  0.4048429746576174  1.0000
  S   S30       1.0  0.3122517924070132  0.021756179980864897  0.43599749423865675  1.0000
  S   S31       1.0  0.2866655470238591  0.15348487835419206  0.34614727712131793  1.0000
  S   S32       1.0  0.28597716473338036  0.129539324865361  0.41591705573099275  1.0000
  Fe  Fe17      1.0  0.7652798902569263  0.13761396618993388  0.18243421626141487  1.0000
  S   S33       1.0  0.76056825176155  0.0775780787570991  0.1911240006468846  1.0000
  S   S34       1.0  0.8070060495898606  0.16552668883747834  0.18315968961663612  1.0000
  Fe  Fe18      1.0  0.6989183198180806  0.1470791150321992  0.15267643581174953  1.0000
  S   S35       1.0  0.6905894445215758  0.08749290073179174  0.1585888437067063  1.0000
  S   S36       1.0  0.6572086973186426  0.17705364320412595  0.12493915337346073  1.0000
  Fe  Fe19      1.0  0.7255764290438754  0.09484567229238307  0.20764052599188457  1.0000
  S   S37       1.0  0.7154415832362142  0.062365512464297446  0.24463341810692865  1.0000
  Fe  Fe20      1.0  0.7255873403455747  0.07522636691452533  0.14140169521594972  1.0000
  S   S38       1.0  0.7255232113213056  0.026591966232941605  0.10913623209940937  1.0000
  S   S39       1.0  0.7325522520145831  0.1556229008738989  0.20266328021995972  1.0000
  S   S40       1.0  0.7315194987815629  0.1341993137671016  0.13179613910838262  1.0000
  Fe  Fe21      1.0  0.9979517143561003  0.25907754901592583  0.23522650601507059  1.0000
  S   S41       1.0  0.9812648434919231  0.2625052277268268  0.27397429410207813  1.0000
  S   S42       1.0  0.9786328357504647  0.2956197548958634  0.19254284189269405  1.0000
  Fe  Fe22      1.0  0.041129439241589745  0.19799385246418527  0.26832965039683065  1.0000
  S   S43       1.0  0.02623834437130197  0.196677752893341  0.30859034479092895  1.0000
  S   S44       1.0  0.0766550813305622  0.16052493863834713  0.2658976699665239  1.0000
  Fe  Fe23      1.0  0.980377883427926  0.20079460453711767  0.27111008637193396  1.0000
  S   S45       1.0  0.9429281609444231  0.16582963753851215  0.2732645359759136  1.0000
  Fe  Fe24      1.0  0.02820647506175308  0.25829870150757994  0.3066625073711333  1.0000
  S   S46       1.0  0.05168157477917932  0.2939694484093019  0.35028158191123765  1.0000
  S   S47       1.0  0.9950953402878044  0.1972864954091793  0.23074498626416937  1.0000
  S   S48       1.0  0.04505653467644352  0.25935804938648355  0.26803297207709037  1.0000
  Fe  Fe25      1.0  0.35223750770750323  0.8939651164866534  0.6670961598788431  1.0000
  S   S49       1.0  0.40076790774504917  0.8973803869604741  0.6904221605444535  1.0000
  S   S50       1.0  0.323829185266603  0.8611453122917363  0.6861607225273046  1.0000
  Fe  Fe26      1.0  0.34975524202922714  0.9393049128841979  0.6097255980756663  1.0000
  S   S51       1.0  0.39837120399307835  0.946207112773783  0.6286550068512801  1.0000
  S   S52       1.0  0.3138817000832904  0.9680656288026047  0.5690641008971628  1.0000
  Fe  Fe27      1.0  0.39993555334570574  0.8862128391150116  0.6416478541255105  1.0000
  S   S53       1.0  0.4366903485811768  0.8515269716287188  0.6397875841960974  1.0000
  Fe  Fe28      1.0  0.3959030577358588  0.956465811068923  0.675931191268033  1.0000
  S   S54       1.0  0.42141844886399665  0.9991058630156148  0.712736735823847  1.0000
  S   S55       1.0  0.35145121234499715  0.8782798728680722  0.618767468734329  1.0000
  S   S56       1.0  0.3475175970502493  0.953996782272054  0.6567486425135424  1.0000
  Fe  Fe29      1.0  0.3647827694271141  0.05402384903625103  0.16743444379652908  1.0000
  S   S57       1.0  0.41239464267713016  0.04962294826781221  0.19627625487680642  1.0000
  S   S58       1.0  0.3332987841174295  0.08748687063875567  0.1813254553610811  1.0000
  Fe  Fe30      1.0  0.3681938566270769  0.01085370869503311  0.11079736986553844  1.0000
  S   S59       1.0  0.4166791220784615  0.003036043987184623  0.1356035614554262  1.0000
  S   S60       1.0  0.33348951102749014  0.993784338006135  0.06197617621766158  1.0000
  Fe  Fe31      1.0  0.40740528176782237  0.9909143857831137  0.17883205103534655  1.0000
  S   S61       1.0  0.4285265941055004  0.9499172359728004  0.21781964355114458  1.0000
  Fe  Fe32      1.0  0.41872579926505066  0.06259329520039673  0.15149948735812693  1.0000
  S   S62       1.0  0.45806969429197836  0.10004329246251005  0.1604917483920234  1.0000
  S   S63       1.0  0.3590330331407986  0.9942279041883545  0.15335887031677625  1.0000
  S   S64       1.0  0.37119977107323615  0.07147758773819  0.12351569882174174  1.0000
  Fe  Fe33      1.0  0.6552572604292356  0.9717232481260529  0.9190113426699819  1.0000
  S   S65       1.0  0.6067906670217253  0.9647908261906607  0.8975649463070189  1.0000
  S   S66       1.0  0.6702957494620582  0.017747429002683335  0.9569988914383905  1.0000
  Fe  Fe34      1.0  0.6612480906369181  0.9180505942858888  0.8691867659110613  1.0000
  S   S67       1.0  0.6130848771177931  0.9077538824419632  0.8452879128514186  1.0000
  S   S68       1.0  0.690193755560581  0.8851106477631215  0.8508938968939677  1.0000
  Fe  Fe35      1.0  0.6099535668427406  0.9689003013373286  0.8504335221935079  1.0000
  S   S69       1.0  0.5793153122903266  0.0008657654428850354  0.8087943712224389  1.0000
  Fe  Fe36      1.0  0.6143848360528673  0.9042202930623834  0.89487299336415  1.0000
  S   S70       1.0  0.5843011807411703  0.8688495353784521  0.9099212338166456  1.0000
  S   S71       1.0  0.6579727076198577  0.9796153740762512  0.8712345912110356  1.0000
  S   S72       1.0  0.6629770534581948  0.910656689820145  0.9192348502185334  1.0000
  Fe  Fe37      1.0  0.6471672119121962  0.022988078307858463  0.4340439252131685  1.0000
  S   S73       1.0  0.5987463525997381  0.012597767032656465  0.4119463024609601  1.0000
  S   S74       1.0  0.6787234069604671  0.006578133993865873  0.4841464169984914  1.0000
  Fe  Fe38      1.0  0.6469752120374233  0.06593860925969562  0.3758380420844781  1.0000
  S   S75       1.0  0.5989904160038323  0.058155906416230904  0.3504653264139974  1.0000
  S   S76       1.0  0.669490720420342  0.10389171552651183  0.35270696202366225  1.0000
  Fe  Fe39      1.0  0.5956143143433031  0.07180334907463246  0.39685267171503025  1.0000
  S   S77       1.0  0.5566547247578085  0.10777338427314638  0.3897055944869444  1.0000
  Fe  Fe40      1.0  0.6059295184039115  0.00019394351870667226  0.3673367692523688  1.0000
  S   S78       1.0  0.5811512605055714  0.9587363266177916  0.3284983896968925  1.0000
  S   S79       1.0  0.6434268058559824  0.08349890331876811  0.4217751910739741  1.0000
  S   S80       1.0  0.6545526915457898  0.006582500962999345  0.3898706520118906  1.0000
  Fe  Fe41      1.0  0.5202697594209363  0.2992379927155756  0.43586674167046086  1.0000
  S   S81       1.0  0.4913138830115933  0.29334313468001233  0.3842366943419491  1.0000
  S   S82       1.0  0.5520446996291364  0.25573449681852883  0.46340245197592167  1.0000
  Fe  Fe42      1.0  0.5046583062435268  0.3808680258711428  0.4402912614321923  1.0000
  S   S83       1.0  0.47513351639277757  0.38069379161445344  0.3877425336446051  1.0000
  S   S84       1.0  0.5204577014016606  0.4317031545937729  0.47431508688983465  1.0000
  Fe  Fe43      1.0  0.4596784823559883  0.3252684061564862  0.3975816055640108  1.0000
  S   S85       1.0  0.412221962479975  0.3080572824664017  0.3743720696270847  1.0000
  Fe  Fe44      1.0  0.5091143761381588  0.3482283952438205  0.37827935846576327  1.0000
  S   S86       1.0  0.532023750209537  0.3486860270161245  0.3438437689138164  1.0000
  S   S87       1.0  0.4873121831581987  0.3270897522791567  0.4503468896182088  1.0000
  S   S88       1.0  0.5398432766039224  0.3525820983797161  0.42979715363332577  1.0000
  Fe  Fe45      1.0  0.5374373681870684  0.6571094918823714  0.620290981274477  1.0000
  S   S89       1.0  0.4948217069489673  0.6380459323295042  0.5823459356196988  1.0000
  S   S90       1.0  0.5630204133913765  0.7015262940342559  0.6080391704444296  1.0000
  Fe  Fe46      1.0  0.5261324110204996  0.6184836354286284  0.6733640102442227  1.0000
  S   S91       1.0  0.483021395166547  0.5961348224409687  0.6393696466122866  1.0000
  S   S92       1.0  0.5460541300641214  0.6206117233321743  0.727802550936732  1.0000
  Fe  Fe47      1.0  0.5050088647846479  0.5828010957764664  0.6055846620813559  1.0000
  S   S93       1.0  0.4887091058109113  0.5299582827556014  0.5743802630126905  1.0000
  Fe  Fe48      1.0  0.4760841702896597  0.6523441157152917  0.6180569953176629  1.0000
  S   S94       1.0  0.43297140991621325  0.6803970859444117  0.6059487304599026  1.0000
  S   S95       1.0  0.5493434339865683  0.6011495607528892  0.6418223017151747  1.0000
  S   S96       1.0  0.5176333159159182  0.67540583950485  0.6539905432825489  1.0000
  Fe  Fe49      1.0  0.555958073686566  0.3272870069563469  0.14677581333829084  1.0000
  S   S97       1.0  0.5269164299818435  0.3169456398059849  0.09535512737946297  1.0000
  S   S98       1.0  0.6039773794127192  0.3147204354444121  0.16831526427770113  1.0000
  Fe  Fe50      1.0  0.5086586610811432  0.3635821959079096  0.16211784815075858  1.0000
  S   S99       1.0  0.47689584953891645  0.35734423093601325  0.11098568635956192  1.0000
  S   S100      1.0  0.48993312935434646  0.3869996138231337  0.19642710290875381  1.0000
  Fe  Fe51      1.0  0.4937277037782846  0.2997879632302755  0.11447966484859884  1.0000
  S   S101      1.0  0.4593183882900262  0.2541973757365637  0.09565419264929562  1.0000
  Fe  Fe52      1.0  0.5128584828886894  0.375726793897014  0.09621193650905949  1.0000
  S   S102      1.0  0.5055674424724765  0.41090743621792214  0.051459385087035715  1.0000
  S   S103      1.0  0.5240102628712596  0.30547332216182377  0.16592863624215218  1.0000
  S   S104      1.0  0.5433257705541166  0.3866646335835732  0.1473861530808559  1.0000
  Fe  Fe53      1.0  0.48268458638610656  0.6602553575835977  0.9184008950050435  1.0000
  S   S105      1.0  0.5266258485675641  0.6533534135902576  0.9577688175587741  1.0000
  S   S106      1.0  0.4543327354166667  0.6958117689887141  0.9349451217730125  1.0000
  Fe  Fe54      1.0  0.4986416322267841  0.6125649738207668  0.8729520438015852  1.0000
  S   S107      1.0  0.5430349618068989  0.6009913431628753  0.9100915573620622  1.0000
  S   S108      1.0  0.48196232003699246  0.5911293295700877  0.8216067276513305  1.0000
  Fe  Fe55      1.0  0.5211793707390376  0.5929318732925972  0.9445969729306558  1.0000
  S   S109      1.0  0.5356366018639438  0.5567354131912673  0.9897266028191054  1.0000
  Fe  Fe56      1.0  0.5442585085342632  0.6619627367851485  0.920426845362517  1.0000
  S   S110      1.0  0.5851686706956958  0.6949531464152449  0.9273932266695175  1.0000
  S   S111      1.0  0.47632898193853906  0.5998114935212177  0.9063851622539422  1.0000
  S   S112      1.0  0.5009032031549429  0.6736486116425248  0.882005853494226  1.0000
  Fe  Fe57      1.0  0.7955542678010145  0.5815650073090368  0.41531683509886674  1.0000
  S   S113      1.0  0.7915522586095126  0.6425825396959834  0.4181142511892106  1.0000
  S   S114      1.0  0.7907822873681717  0.5548635862302649  0.45804340806305055  1.0000
  Fe  Fe58      1.0  0.8000375918018762  0.5879795438331378  0.349874010119312  1.0000
  S   S115      1.0  0.7954321667391079  0.6496443065854023  0.34882552558301133  1.0000
  S   S116      1.0  0.8147853840649506  0.5518954912225444  0.3180340709873996  1.0000
  Fe  Fe59      1.0  0.8267794877125288  0.6474812150248723  0.4001682495472233  1.0000
  S   S117      1.0  0.8691022697549059  0.6772118389364604  0.42913794578368264  1.0000
  Fe  Fe60      1.0  0.7598088453517818  0.63888029608474  0.3667913246049899  1.0000
  S   S118      1.0  0.718959818303463  0.6718686699147043  0.36021199306506135  1.0000
  S   S119      1.0  0.8329064637267509  0.5866742595809475  0.4005792965053925  1.0000
  S   S120      1.0  0.7624544346215166  0.5771622535835895  0.3645753081710302  1.0000
  Fe  Fe61      1.0  0.22107410163657243  0.667716795899066  0.1684586841013226  1.0000
  S   S121      1.0  0.19255566611125774  0.6175574555529048  0.15206359244317605  1.0000
  S   S122      1.0  0.20472939256473763  0.7220680075411612  0.17886766026830075  1.0000
  Fe  Fe62      1.0  0.2761201013184691  0.625949121617208  0.17507230136275514  1.0000
  S   S123      1.0  0.25098581878508036  0.5718852611796209  0.1607646691521276  1.0000
  S   S124      1.0  0.3212900360458897  0.632974395616957  0.17366832800488394  1.0000
  Fe  Fe63      1.0  0.21720519923884915  0.6033965139897904  0.12187519693356522  1.0000
  S   S125      1.0  0.19398559110654243  0.5905011291355969  0.06827172122135353  1.0000
  Fe  Fe64      1.0  0.2281214198129906  0.5903316770981534  0.19239478057531034  1.0000
  S   S126      1.0  0.21081368045230617  0.5528000156300997  0.22089569470826084  1.0000
  S   S127      1.0  0.2427720329670933  0.6566900843498692  0.13499362854645247  1.0000
  S   S128      1.0  0.2561372842140063  0.6412577183876256  0.2100046024127418  1.0000
  Fe  Fe65      1.0  0.4860985084701815  0.7107753544215677  0.277346170119003  1.0000
  S   S129      1.0  0.5030834515539155  0.7073467297118087  0.23874105113830257  1.0000
  S   S130      1.0  0.4455189050207276  0.6829093590736451  0.27880098269377673  1.0000
  Fe  Fe66      1.0  0.5355815449559419  0.7639065047142044  0.31729526161405797  1.0000
  S   S131      1.0  0.5554205861101498  0.7649261362124574  0.28117507328223257  1.0000
  S   S132      1.0  0.5574756011488995  0.7973048021460477  0.3624669363888025  1.0000
  Fe  Fe67      1.0  0.5092524372475059  0.7687537025866193  0.2458342201447189  1.0000
  S   S133      1.0  0.49418610011868935  0.8069833713515635  0.20394748783422828  1.0000
  Fe  Fe68      1.0  0.5479535027589904  0.7038642534941503  0.27840266573527606  1.0000
  S   S134      1.0  0.5814774871754257  0.6617998491129967  0.2782405097748365  1.0000
  S   S135      1.0  0.489997941718319  0.7722486623228566  0.28236356350532643  1.0000
  S   S136      1.0  0.5303875518451365  0.7025488279665948  0.3165838673243592  1.0000
  Fe  Fe69      1.0  0.8089931562683913  0.2871439211239707  0.8670049635378811  1.0000
  S   S137      1.0  0.8364456780676691  0.337977824786992  0.8836352735145888  1.0000
  S   S138      1.0  0.8270202601337346  0.23134267946892045  0.8625688945215123  1.0000
  Fe  Fe70      1.0  0.7524794222834977  0.3277582862546314  0.8554874343613394  1.0000
  S   S139      1.0  0.7766694097369717  0.3825383305582536  0.8709076969458982  1.0000
  S   S140      1.0  0.7048916460334037  0.31956994137135897  0.8493378296508856  1.0000
  Fe  Fe71      1.0  0.8017746181002355  0.36414947838304196  0.8416128701280104  1.0000
  S   S141      1.0  0.8211056624306395  0.4011115018430932  0.8146795629910449  1.0000
  Fe  Fe72      1.0  0.8097561793547073  0.35227622335207825  0.9117191393953977  1.0000
  S   S142      1.0  0.8348817891318517  0.36499333061303796  0.9654636543362852  1.0000
  S   S143      1.0  0.7753212699579427  0.31211596482424775  0.8233949777550962  1.0000
  S   S144      1.0  0.7845794414479221  0.29859368026429234  0.8978593883358563  1.0000
  Fe  Fe73      1.0  0.20023586976398516  0.3105712627856918  0.6384106531250558  1.0000
  S   S145      1.0  0.1969970254771212  0.3718435093120773  0.6360738341584886  1.0000
  S   S146      1.0  0.15595674463002276  0.28400756616740036  0.6115601971983095  1.0000
  Fe  Fe74      1.0  0.26724788446086234  0.31463359629258997  0.6727110886940527  1.0000
  S   S147      1.0  0.2676425070243438  0.3765532740290821  0.6731810967018893  1.0000
  S   S148      1.0  0.30606032313669884  0.2761268816685283  0.6847515834851908  1.0000
  Fe  Fe75      1.0  0.22914436663313992  0.37098392746869396  0.6871448998749925  1.0000
  S   S149      1.0  0.21665764077393065  0.4092802558768252  0.7194179123181191  1.0000
  Fe  Fe76      1.0  0.23502516858831593  0.37167086295882246  0.6221227128277578  1.0000
  S   S150      1.0  0.24072929883927185  0.3937168558015254  0.5781715578151103  1.0000
  S   S151      1.0  0.23077396771154923  0.3092992960851085  0.6900508012525306  1.0000
  S   S152      1.0  0.23618763247681573  0.31009178059773523  0.6212085919831678  1.0000
  Fe  Fe77      1.0  0.5411016158852153  0.23879072525376396  0.7459970998037431  1.0000
  S   S153      1.0  0.5240311832307175  0.2502975427745303  0.7838325399717592  1.0000
  S   S154      1.0  0.5838323697125479  0.25886053053656377  0.7436963839217912  1.0000
  Fe  Fe78      1.0  0.49146256061362426  0.18233112922251174  0.7120994733335708  1.0000
  S   S155      1.0  0.471702799867704  0.18947474894725666  0.7479828588493765  1.0000
  S   S156      1.0  0.47116039454302855  0.14120545085779845  0.6715338722216307  1.0000
  Fe  Fe79      1.0  0.4789575125281731  0.24979567141467574  0.7439796939656121  1.0000
  S   S157      1.0  0.4448939725036636  0.29250347435931934  0.7422308758943327  1.0000
  Fe  Fe80      1.0  0.5178164773967782  0.18900353978256468  0.7837589809891014  1.0000
  S   S158      1.0  0.5336222532226508  0.15712007167420336  0.82942240623122  1.0000
  S   S159      1.0  0.4965484237187495  0.24293639768275488  0.7058436566415851  1.0000
  S   S160      1.0  0.5370373826742589  0.17744899849191634  0.7481604185004102  1.0000
  Fe  Fe81      1.0  0.8832488783853786  0.4368173217657957  0.6152511658019959  1.0000
  S   S161      1.0  0.9301988127281904  0.4435617830386906  0.6486040906097884  1.0000
  S   S162      1.0  0.8765522988841601  0.44952215482683133  0.563769783198816  1.0000
  Fe  Fe82      1.0  0.8679245229865399  0.40324611901251783  0.6684997628037751  1.0000
  S   S163      1.0  0.9138201860232371  0.4074395938934427  0.704416596278648  1.0000
  S   S164      1.0  0.8330693102225476  0.3760087188125076  0.6816107218207652  1.0000
  Fe  Fe83      1.0  0.913402119662891  0.4635511824986124  0.6843683084102846  1.0000
  S   S165      1.0  0.9347489891125979  0.5077635044293719  0.7216289701569248  1.0000
  Fe  Fe84      1.0  0.9265160036262557  0.3867633318219679  0.6653738150115771  1.0000
  S   S166      1.0  0.9660320154739447  0.35096418550875125  0.6752464929285013  1.0000
  S   S167      1.0  0.8665114688278769  0.46108883518072336  0.6504052167605046  1.0000
  S   S168      1.0  0.8805464888435581  0.37832647184509577  0.630183383541815  1.0000
  Fe  Fe85      1.0  0.909313721542886  0.48949353288767905  0.18222344705033297  1.0000
  S   S169      1.0  0.8606391859157226  0.49150720523631036  0.15621231928965573  1.0000
  S   S170      1.0  0.933660192565279  0.4489785113281111  0.22041785952808599  1.0000
  Fe  Fe86      1.0  0.9194966526936172  0.56350540988716  0.1571353041435148  1.0000
  S   S171      1.0  0.8719100742263488  0.5709056580709754  0.1296967724572036  1.0000
  S   S172      1.0  0.9569453414080918  0.6012084714698893  0.15983648272330178  1.0000
  Fe  Fe87      1.0  0.8661558924968605  0.5506192470165729  0.17336717622717795  1.0000
  S   S173      1.0  0.8380177206428547  0.5837748176554999  0.19273902183881939  1.0000
  Fe  Fe88      1.0  0.8705448557327345  0.5111415197318702  0.11467444010319525  1.0000
  S   S174      1.0  0.844862022569824  0.5008045378934172  0.0608726529536495  1.0000
  S   S175      1.0  0.9140350247371704  0.5473686791630876  0.2016132170544071  1.0000
  S   S176      1.0  0.9189507191672686  0.505034619175594  0.13997076682606185  1.0000
  Fe  Fe89      1.0  0.16130562468125556  0.4048098690203696  0.8617957193862876  1.0000
  S   S177      1.0  0.11291179305364729  0.4072736669411394  0.8364994770881765  1.0000
  S   S178      1.0  0.1872136474990357  0.37131753616962493  0.8397019503564934  1.0000
  Fe  Fe90      1.0  0.160106990910462  0.44349372400225917  0.9224715112229942  1.0000
  S   S179      1.0  0.11163845917325357  0.44917163965040857  0.899816488445248  1.0000
  S   S180      1.0  0.1857941516432867  0.4525627948965591  0.9763311304248049  1.0000
  Fe  Fe91      1.0  0.11073515135525355  0.39066568220494896  0.8826267924568313  1.0000
  S   S181      1.0  0.07584332206351568  0.3528492421151127  0.8865966361006438  1.0000
  Fe  Fe92      1.0  0.11841376631686033  0.46527306241245275  0.8559967719404056  1.0000
  S   S182      1.0  0.09264233124550911  0.5064068002518001  0.8189778064298175  1.0000
  S   S183      1.0  0.15869742476483215  0.3840492542196005  0.9069255714844792  1.0000
  S   S184      1.0  0.16733189844030105  0.4638041741418191  0.8794165974579305  1.0000
  Fe  Fe93      1.0  0.11516326097971931  0.4890252682017213  0.351391466113136  1.0000
  S   S185      1.0  0.1628194209403867  0.49236145508392  0.3830021118591135  1.0000
  S   S186      1.0  0.09212185204832118  0.44559912476861036  0.31396961436087767  1.0000
  Fe  Fe94      1.0  0.10238778393422567  0.565221612045235  0.3716160952614333  1.0000
  S   S187      1.0  0.14889825945923924  0.5741837612125179  0.404780288415038  1.0000
  S   S188      1.0  0.06522301362059352  0.605617613227334  0.3557273339787647  1.0000
  Fe  Fe95      1.0  0.16008587208698485  0.5505647357976307  0.3651381685517993  1.0000
  S   S189      1.0  0.19013454929979504  0.5841029096134318  0.34848712044832114  1.0000
  Fe  Fe96      1.0  0.147410797437661  0.5153435656738603  0.41978673972614516  1.0000
  S   S190      1.0  0.15902857942137535  0.5027542005106346  0.4725143686331923  1.0000
  S   S191      1.0  0.11368896893439685  0.5452415780337229  0.33144797103498985  1.0000
  S   S192      1.0  0.09969428958598262  0.5082194598322883  0.38856202146338564  1.0000
  Fe  Fe97      1.0  0.062345460017156275  0.1338679439092264  0.6532218072873897  1.0000
  S   S193      1.0  0.025244768239434855  0.1419085837307692  0.606161338052727  1.0000
  S   S194      1.0  0.10922870149322375  0.15297198203401455  0.6694774925402482  1.0000
  Fe  Fe98      1.0  0.027232519605225967  0.08225693636994094  0.6770528531507914  1.0000
  S   S195      1.0  0.9877359861537852  0.08504044291599926  0.6307285689172752  1.0000
  S   S196      1.0  0.034755908470931865  0.04910333946419648  0.7217851498352595  1.0000
  Fe  Fe99      1.0  0.018334209713026767  0.08011039726589948  0.6053617125915488  1.0000
  S   S197      1.0  0.01279999994695026  0.052397744034910786  0.5571159017914966  1.0000
  Fe  Fe100     1.0  0.997907411022392  0.14615436836854956  0.634905726584887  1.0000
  S   S198      1.0  0.9605350388040095  0.18591401281477818  0.6244971281690412  1.0000
  S   S199      1.0  0.056882515156388924  0.07244259025124923  0.6514408217688834  1.0000
  S   S200      1.0  0.0357448098775105  0.14316382360580412  0.6822358143030773  1.0000
  Fe  Fe101     1.0  0.009792580210067927  0.8633090579496278  0.3686921600348174  1.0000
  S   S201      1.0  0.04698735532216043  0.859879265640474  0.41699103145333716  1.0000
  S   S202      1.0  0.006902679198777352  0.894593143786653  0.32451520449178467  1.0000
  Fe  Fe102     1.0  0.9694402981475437  0.8177305371132679  0.3896263590832662  1.0000
  S   S203      1.0  0.003587594029830977  0.8095316161003638  0.438548856522298  1.0000
  S   S204      1.0  0.9219661285262779  0.8005204031333322  0.3699806493547506  1.0000
  Fe  Fe103     1.0  0.014099463943874938  0.8702513417419503  0.43866408749033053  1.0000
  S   S205      1.0  0.019626428672954752  0.9003041299621093  0.48600877018676736  1.0000
  Fe  Fe104     1.0  0.033545198647767956  0.7999345794702296  0.4135021717832113  1.0000
  S   S206      1.0  0.06754718549975136  0.7553350333720398  0.43030955344074734  1.0000
  S   S207      1.0  0.9781196485994809  0.8784996358513366  0.39058296411863797  1.0000
  S   S208      1.0  0.9983551124167406  0.8031509641347553  0.36434566328008106  1.0000
  Fe  Fe105     1.0  0.9859203056623204  0.15105366768313147  0.9213291744891507  1.0000
  S   S209      1.0  0.030066042186273893  0.14068617601678554  0.9596756938464568  1.0000
  S   S210      1.0  0.9608804506740591  0.1976113423488371  0.9316791166941784  1.0000
  Fe  Fe106     1.0  0.9973708047194483  0.10152211510136701  0.8729437808431684  1.0000
  S   S211      1.0  0.042114168004114015  0.08811940668766823  0.9080700644539357  1.0000
  S   S212      1.0  0.9763949371484671  0.08741403638289702  0.8195697955951946  1.0000
  Fe  Fe107     1.0  0.021676231765743407  0.08081110689061675  0.9441772855536819  1.0000
  S   S213      1.0  0.03844228800532963  0.03434224025183322  0.9815257939155877  1.0000
  Fe  Fe108     1.0  0.04639712080438869  0.14870025166205667  0.9209675839508797  1.0000
  S   S214      1.0  0.08572937506636613  0.18359948263720216  0.9243208917314939  1.0000
  S   S215      1.0  0.9761876174622965  0.09097355497059931  0.9077529544893087  1.0000
  S   S216      1.0  0.0030294521848349422  0.1621275496699161  0.8838606765826587  1.0000
  Fe  Fe109     1.0  0.03930634037614704  0.8429316684984358  0.17004279373502337  1.0000
  S   S217      1.0  0.9944342271559221  0.8596893263283362  0.13743247961798247  1.0000
  S   S218      1.0  0.059763481106481345  0.8450038242996535  0.22446683567751893  1.0000
  Fe  Fe110     1.0  0.04940045202964734  0.8030269187722426  0.11618955244422391  1.0000
  S   S219      1.0  0.004775680960556845  0.8159735136403041  0.08054672266022038  1.0000
  S   S220      1.0  0.07500201973764456  0.7670294678860052  0.09631303785906942  1.0000
  Fe  Fe111     1.0  0.014025055787947244  0.8734475983928225  0.10152256769142375  1.0000
  S   S221      1.0  0.9985805017715808  0.9209462019188355  0.06527643280719542  1.0000
  Fe  Fe112     1.0  0.989583493591256  0.8011501030908625  0.11896473296063978  1.0000
  S   S222      1.0  0.9494024269954859  0.7664024249382536  0.11228493438245174  1.0000
  S   S223      1.0  0.05966956997986087  0.8608230990843899  0.13597320071408273  1.0000
  S   S224      1.0  0.03344507006135471  0.7840716923104435  0.1527645904697843  1.0000
  C   C1        1.0  0.026696881630532538  0.0038360427946201093  0.005029090611294196  1.0000
  C   C2        1.0  0.047579017835602866  0.9832902440293124  0.029145049134468772  1.0000
  C   C3        1.0  0.039598799466582985  0.9585156059946388  0.04810309962506146  1.0000
  C   C4        1.0  0.010375613378392714  0.9531168820404042  0.042946901866888175  1.0000
  C   C5        1.0  0.9895074245211565  0.9737105803671875  0.01889617185585031  1.0000
  C   C6        1.0  0.9975254357444227  0.9988638969318167  0.00020519583762734786  1.0000
  H   H1        1.0  0.07023238473510793  0.9870326110038278  0.03349435331699432  1.0000
  H   H2        1.0  0.05614788315512122  0.9440583574718393  0.06698950299326102  1.0000
  H   H3        1.0  0.9668454750868948  0.9701890090448717  0.014607255133070115  1.0000
  H   H4        1.0  0.9810728400136751  0.014258777204679059  0.9819123998645121  1.0000
  C   C7        1.0  0.02028664761319128  0.8784872498534165  0.29616786687062013  1.0000
  C   C8        1.0  0.04119550393511969  0.8511525066161878  0.3034070407206822  1.0000
  C   C9        1.0  0.05276491542606901  0.8409295392753922  0.281021059707643  1.0000
  C   C10       1.0  0.04300336853898694  0.8570870412637792  0.2508493339811213  1.0000
  C   C11       1.0  0.021356851476755416  0.8835054439295729  0.24317400089343658  1.0000
  C   C12       1.0  0.010389531796736904  0.8945049587318038  0.26591018932905164  1.0000
  H   H5        1.0  0.04916601201620954  0.8388236841510693  0.3266708624266233  1.0000
  H   H6        1.0  0.06966861819938439  0.8207155847882582  0.28729084715510206  1.0000
  H   H7        1.0  0.013869425538790559  0.8964538668536981  0.2201890342690753  1.0000
  H   H8        1.0  0.994297719192271  0.9157565006486389  0.26013365653088144  1.0000
  C   C13       1.0  0.019260880014888525  0.06201677067116969  0.7491569662592891  1.0000
  C   C14       1.0  0.992754194571436  0.08004161090234317  0.7392129751661455  1.0000
  C   C15       1.0  0.9798613258662622  0.08726325691431966  0.7610024111957142  1.0000
  C   C16       1.0  0.9937475330793188  0.07778001316341378  0.7932114180330039  1.0000
  C   C17       1.0  0.02056526956653353  0.06036976592878367  0.8033236931367158  1.0000
  C   C18       1.0  0.03308098873796534  0.052207510549250595  0.7813231041972637  1.0000
  H   H9        1.0  0.981700728660094  0.08740567608977612  0.7144767763464503  1.0000
  H   H10       1.0  0.9590037456786475  0.10042467056415944  0.7528342985531398  1.0000
  H   H11       1.0  0.03131339043903991  0.05248453656379404  0.8279520067473289  1.0000
  H   H12       1.0  0.05354238110550158  0.03816514994449671  0.7892613972688836  1.0000
  C   C19       1.0  0.014566481628379133  0.009551181565012896  0.5379408348287472  1.0000
  C   C20       1.0  0.008649541086780621  0.009026024663996823  0.5050651691964577  1.0000
  C   C21       1.0  0.010249138696736049  0.9762049351941702  0.48883380768430834  1.0000
  C   C22       1.0  0.017876741556823967  0.9431204591830801  0.5052348324053321  1.0000
  C   C23       1.0  0.023850470688591474  0.9436599967669556  0.5381252106322617  1.0000
  C   C24       1.0  0.022283937556977575  0.976495720874618  0.5543661495957364  1.0000
  H   H13       1.0  0.002702784563783256  0.034279514682329766  0.4919619447512056  1.0000
  H   H14       1.0  0.005590318269544925  0.976566101512238  0.46362165694039215  1.0000
  H   H15       1.0  0.02971897432670279  0.9183807737085503  0.5512020862671  1.0000
  H   H16       1.0  0.026925853937942387  0.9761407823546607  0.5795731376638166  1.0000
  C   C25       1.0  0.06445296425077021  0.6456930150002249  0.3777894978590876  1.0000
  C   C26       1.0  0.04450691620427782  0.6732650423773855  0.36272180833918843  1.0000
  C   C27       1.0  0.04469147767971014  0.7066949157724848  0.37872308805308136  1.0000
  C   C28       1.0  0.06488025912314441  0.7128115224909962  0.4099761497016948  1.0000
  C   C29       1.0  0.08441350315499152  0.6849168447729277  0.4252146861047809  1.0000
  C   C30       1.0  0.0840770543148005  0.6514011668258467  0.40930869288316307  1.0000
  H   H17       1.0  0.029142542237343742  0.6690149475419664  0.3383798826409647  1.0000
  H   H18       1.0  0.029540910554091634  0.727935768478104  0.36674970060230444  1.0000
  H   H19       1.0  0.09988525815048743  0.6892769455530074  0.44951258605633587  1.0000
  H   H20       1.0  0.09910728376536826  0.6300700716459725  0.4214211524933102  1.0000
  C   C31       1.0  0.07932067253623132  0.3058056484103455  0.8971600989299695  1.0000
  C   C32       1.0  0.05567924927841895  0.28743565645906133  0.8998998191326866  1.0000
  C   C33       1.0  0.057463877576854026  0.25024787246819485  0.9085907397874512  1.0000
  C   C34       1.0  0.08295584861018046  0.23089863758241633  0.914565885083675  1.0000
  C   C35       1.0  0.10671447282458837  0.24933988639017285  0.9120794404007109  1.0000
  C   C36       1.0  0.10492342653294502  0.2865799622743156  0.9033519161812781  1.0000
  H   H21       1.0  0.035810024737834976  0.3020567814262352  0.8953116521874316  1.0000
  H   H22       1.0  0.039077418223875254  0.2365557991307205  0.9106733472469325  1.0000
  H   H23       1.0  0.12655271349489167  0.23464469067408963  0.9166970666658227  1.0000
  H   H24       1.0  0.12328446754749356  0.30028924013193103  0.9012495454667039  1.0000
  C   C37       1.0  0.9540269679561405  0.6470219151681235  0.1462700117671509  1.0000
  C   C38       1.0  0.9274601282114325  0.6649798700269426  0.13353301733348602  1.0000
  C   C39       1.0  0.9263034604134095  0.7014264189558258  0.12295185813715998  1.0000
  C   C40       1.0  0.9516337943659946  0.7202537233601293  0.12505771885995398  1.0000
  C   C41       1.0  0.9781320507209963  0.7022280022816274  0.13782116071604955  1.0000
  C   C42       1.0  0.9792883005162851  0.6658610684291593  0.14835025380524655  1.0000
  H   H25       1.0  0.9078786363408257  0.6509386985312355  0.13208500133039483  1.0000
  H   H26       1.0  0.9057010518376296  0.7151881076334943  0.11323262084537208  1.0000
  H   H27       1.0  0.9977493467414353  0.7161355697934675  0.13933675572346632  1.0000
  H   H28       1.0  0.9999162140592817  0.6521710398372732  0.15804464446201  1.0000
  C   C43       1.0  0.9643447869674536  0.30418284153639163  0.6631471116007445  1.0000
  C   C44       1.0  0.9900764756867988  0.28634431956609974  0.6664966552549487  1.0000
  C   C45       1.0  0.9894291054984168  0.2497371864898046  0.6556693162312646  1.0000
  C   C46       1.0  0.9629559855906976  0.23068934759722082  0.6412482814178287  1.0000
  C   C47       1.0  0.9373076704792541  0.24834483522118403  0.6384725185028017  1.0000
  C   C48       1.0  0.9379724245269471  0.2848618886398595  0.6494388618481186  1.0000
  H   H29       1.0  0.010595238985652289  0.30103184245323605  0.67721107165127  1.0000
  H   H30       1.0  0.009303382371234958  0.23645894037682874  0.6579362948656825  1.0000
  H   H31       1.0  0.916769707630429  0.23367857994267954  0.6276090744836448  1.0000
  H   H32       1.0  0.9180811067068079  0.29804593646827804  0.6472329732896289  1.0000
  C   C49       1.0  0.18182032338742124  0.4717186324750288  0.5011011932973192  1.0000
  C   C50       1.0  0.20056624847573132  0.4478612207866893  0.4946288000814241  1.0000
  C   C51       1.0  0.21843762182641452  0.4242208332873641  0.5184643469135265  1.0000
  C   C52       1.0  0.21745752834775015  0.42367003050888385  0.5488277877437523  1.0000
  C   C53       1.0  0.19841682181735829  0.44710914417926917  0.5551327508446563  1.0000
  C   C54       1.0  0.1809337640346196  0.47115578802169805  0.5315032191705641  1.0000
  H   H33       1.0  0.2016194355073954  0.4480823721272594  0.4714473221686102  1.0000
  H   H34       1.0  0.23318268544326423  0.4063757491104241  0.5133227145033744  1.0000
  H   H35       1.0  0.19763088867189682  0.447411404591401  0.5784486832224456  1.0000
  H   H36       1.0  0.16668786060064808  0.4896785121967237  0.5368712685735446  1.0000
  C   C55       1.0  0.344643654314196  0.28148829522939484  0.7014718601492951  1.0000
  C   C56       1.0  0.3587843670910996  0.3145422256473436  0.715435341101  1.0000
  C   C57       1.0  0.3893738943045177  0.3174598295498248  0.7275146454529311  1.0000
  C   C58       1.0  0.40630085517375514  0.28751369902859486  0.725826829240597  1.0000
  C   C59       1.0  0.3921658982304432  0.25447908682487386  0.7119122355121302  1.0000
  C   C60       1.0  0.36160759046743174  0.25151748080977837  0.6999465035463224  1.0000
  H   H37       1.0  0.3462259515296561  0.33776233496543234  0.7172681421748844  1.0000
  H   H38       1.0  0.40002353532094753  0.3431019507715987  0.7384078940265958  1.0000
  H   H39       1.0  0.40475096225004864  0.23114308560950728  0.7103445580207894  1.0000
  H   H40       1.0  0.3510126821283488  0.22578012115512802  0.6892326404061494  1.0000
  C   C61       1.0  0.20898990851386906  0.39827521134667526  0.7531215534895528  1.0000
  C   C62       1.0  0.19418624199273485  0.42382133572012476  0.764294822812002  1.0000
  C   C63       1.0  0.18718784578672296  0.4160030226455069  0.7906033294243536  1.0000
  C   C64       1.0  0.19530735105397715  0.3826636689609302  0.8063575961135473  1.0000
  C   C65       1.0  0.21022449905183166  0.3571751806357477  0.7952574840146899  1.0000
  C   C66       1.0  0.2169878717587736  0.3648554182673808  0.7687800085402416  1.0000
  H   H41       1.0  0.18805544408859315  0.4498632280563753  0.7525107451874385  1.0000
  H   H42       1.0  0.17582171291888998  0.43594816599531355  0.7989209584869358  1.0000
  H   H43       1.0  0.21681629803275912  0.3314400313975659  0.8074385724171674  1.0000
  H   H44       1.0  0.22882585589482196  0.3451988623241393  0.7608505700926506  1.0000
  C   C67       1.0  0.14323058343775627  0.24749429865138034  0.6278313704033086  1.0000
  C   C68       1.0  0.1619152512700715  0.22840045575821194  0.6541549804204031  1.0000
  C   C69       1.0  0.15107837230771654  0.19950579561671364  0.666608888944881  1.0000
  C   C70       1.0  0.12151901486452385  0.18962013651426243  0.6529901947517573  1.0000
  C   C71       1.0  0.1027815679102769  0.2087500468684311  0.6266955004884525  1.0000
  C   C72       1.0  0.11366901316461524  0.23752449217554758  0.6140867291850517  1.0000
  H   H45       1.0  0.18477073813120987  0.23562769991178803  0.6647493883426492  1.0000
  H   H46       1.0  0.16569664402062803  0.18470612816457016  0.686919619678056  1.0000
  H   H47       1.0  0.07996073838500076  0.20135561000086655  0.6160814713209177  1.0000
  H   H48       1.0  0.09909095701311572  0.252177177719874  0.5936761208251076  1.0000
  C   C73       1.0  0.8373015851845577  0.4033300592872954  0.9913688361164115  1.0000
  C   C74       1.0  0.8557051345835552  0.40116421423560034  0.023926702347060624  1.0000
  C   C75       1.0  0.8583338817872124  0.4305386099242836  0.04552047676950033  1.0000
  C   C76       1.0  0.8425231147541166  0.46262965073616513  0.034855002816165825  1.0000
  C   C77       1.0  0.8242696019397379  0.4649041644779739  0.0022761052254083314  1.0000
  C   C78       1.0  0.8216410226315252  0.4355235311216034  0.9806783102667188  1.0000
  H   H49       1.0  0.8679744636399195  0.3765200614715628  0.03258500634168282  1.0000
  H   H50       1.0  0.8724837437495115  0.42825296484189895  0.07041657434425544  1.0000
  H   H51       1.0  0.8118452484423698  0.48946548902997  0.9936543565011676  1.0000
  H   H52       1.0  0.8073713130767362  0.4377109797786517  0.955800476659541  1.0000
  C   C79       1.0  0.671644536177934  0.3022197695772365  0.8194840498049988  1.0000
  C   C80       1.0  0.6690264082910943  0.2910118822014969  0.789033773682158  1.0000
  C   C81       1.0  0.6420008849223714  0.27817360298304544  0.7661817056894131  1.0000
  C   C82       1.0  0.6172562959512747  0.2759470490733902  0.7734401108304279  1.0000
  C   C83       1.0  0.6199348591505659  0.2868635675794402  0.8039723001868764  1.0000
  C   C84       1.0  0.6468951639118959  0.2998943163025695  0.8267392426975706  1.0000
  H   H53       1.0  0.6877311071415  0.29271263003139497  0.7829548222946988  1.0000
  H   H54       1.0  0.6402700199616581  0.26996227859264144  0.7426582119173395  1.0000
  H   H55       1.0  0.6011220257529621  0.2859780069482015  0.8098803779681136  1.0000
  H   H56       1.0  0.6485436693107515  0.3087444171873064  0.8500906332108081  1.0000
  C   C85       1.0  0.8241259381674927  0.3931395439099078  0.7776262322017907  1.0000
  C   C86       1.0  0.84583741360569  0.4120900096439228  0.7714284288643836  1.0000
  C   C87       1.0  0.8489040777346537  0.4070789704212553  0.7422694594340322  1.0000
  C   C88       1.0  0.8299338871988159  0.38342980043144087  0.718658720450512  1.0000
  C   C89       1.0  0.8080414462388863  0.36468814507136954  0.7247246574280375  1.0000
  C   C90       1.0  0.8052826758139904  0.36922856464490084  0.7541269209277724  1.0000
  H   H57       1.0  0.8603666824562574  0.4308964091982925  0.789297456467987  1.0000
  H   H58       1.0  0.8657398730392938  0.4218636774602148  0.7379318711758684  1.0000
  H   H59       1.0  0.7930853674922147  0.34658901311074597  0.7065225867055279  1.0000
  H   H60       1.0  0.7881355485638387  0.3549719301191154  0.7582824061948749  1.0000
  C   C91       1.0  0.8645921225721348  0.2227284693287424  0.8792452341170286  1.0000
  C   C92       1.0  0.8848573277956875  0.2508779115970847  0.8937071266647739  1.0000
  C   C93       1.0  0.9144840283084017  0.24290523808787187  0.9086098050697946  1.0000
  C   C94       1.0  0.9241623623616088  0.20685562571594152  0.908658204801753  1.0000
  C   C95       1.0  0.9040771739711828  0.17895374789671567  0.8927958365177627  1.0000
  C   C96       1.0  0.8743343550286382  0.18689220131439074  0.8782398167306374  1.0000
  H   H61       1.0  0.8776909544807624  0.2786941495794797  0.8938377613820248  1.0000
  H   H62       1.0  0.9300184770507947  0.2646231269797271  0.9206136085213481  1.0000
  H   H63       1.0  0.9113367205480704  0.1510446355539111  0.8928293423722832  1.0000
  H   H64       1.0  0.8587867248782021  0.16497716446636698  0.866833241957432  1.0000
  C   C97       1.0  0.19077387630912676  0.5509194881230336  0.04359260012961135  1.0000
  C   C98       1.0  0.2050411263920787  0.5181310779835239  0.05554070247416485  1.0000
  C   C99       1.0  0.20318230175751295  0.48838926374115293  0.034605769282429276  1.0000
  C   C100      1.0  0.18692395674047554  0.4908496697762927  0.0015414918599924994  1.0000
  C   C101      1.0  0.17242665401459598  0.5234711213063462  0.9896571710693137  1.0000
  C   C102      1.0  0.17445634004359614  0.5532978656554648  0.01055418505186093  1.0000
  H   H65       1.0  0.21751014251213036  0.5156441801053734  0.0808595543169457  1.0000
  H   H66       1.0  0.2144559658757159  0.46327822887401626  0.04409677721065097  1.0000
  H   H67       1.0  0.1598352914440829  0.5258734044814152  0.9643347809428063  1.0000
  H   H68       1.0  0.16335325930687356  0.5785043315456572  0.0009848924128439544  1.0000
  C   C103      1.0  0.41082549165476673  0.6709920594877583  0.24879629101851122  1.0000
  C   C104      1.0  0.38764364326741807  0.6637875634175893  0.25793656618343486  1.0000
  C   C105      1.0  0.3599593751664388  0.6530621680908709  0.2352707124710204  1.0000
  C   C106      1.0  0.35519730654788045  0.6487548273790285  0.2031191283051376  1.0000
  C   C107      1.0  0.37839291989981405  0.6560892736058289  0.19394649216332802  1.0000
  C   C108      1.0  0.40598770048796673  0.6672901284717736  0.2165544862233404  1.0000
  H   H69       1.0  0.3911009020293468  0.6663325650605662  0.2828053468887496  1.0000
  H   H70       1.0  0.3424627959225598  0.6473751694794365  0.2427969638765585  1.0000
  H   H71       1.0  0.3750408271710178  0.652698481348214  0.16918146443797327  1.0000
  H   H72       1.0  0.4235937800316548  0.6722501848033765  0.20907950850473267  1.0000
  C   C109      1.0  0.20509215287253202  0.5625898192735119  0.2562374923080171  1.0000
  C   C110      1.0  0.21723131693369574  0.5936321375897313  0.27556536239522383  1.0000
  C   C111      1.0  0.21232428787788934  0.5999018000521535  0.3035758568386419  1.0000
  C   C112      1.0  0.1951711459229765  0.5753769714983047  0.3125885425566733  1.0000
  C   C113      1.0  0.18265937607578295  0.5446926461497158  0.29299150372622973  1.0000
  C   C114      1.0  0.18774933724967457  0.5382753588353022  0.26513293711314667  1.0000
  H   H73       1.0  0.2309213348313467  0.6123711629349121  0.2693189350933292  1.0000
  H   H74       1.0  0.22228139168581784  0.6235968717901699  0.3186243137361674  1.0000
  H   H75       1.0  0.16949472870316154  0.5254925040053697  0.29959799404431714  1.0000
  H   H76       1.0  0.17834664087439295  0.5140932334427888  0.2504886525957516  1.0000
  C   C115      1.0  0.11047485146895643  0.7535189901854007  0.12054931708147773  1.0000
  C   C116      1.0  0.12333672062508398  0.7254096784329757  0.10960138946308788  1.0000
  C   C117      1.0  0.15202949768780755  0.7150250435758507  0.12762447187573667  1.0000
  C   C118      1.0  0.1682421817651265  0.7332615170835421  0.15643456027727642  1.0000
  C   C119      1.0  0.15526167455029663  0.7610125683683039  0.16763611521837193  1.0000
  C   C120      1.0  0.12635526581081793  0.7709251225167946  0.14988934033376874  1.0000
  H   H77       1.0  0.11116783235920549  0.7118626313732056  0.08689769536329066  1.0000
  H   H78       1.0  0.1618570505629337  0.693670743196354  0.11874212492560436  1.0000
  H   H79       1.0  0.16770391289488618  0.7751726115767317  0.18994378745476864  1.0000
  H   H80       1.0  0.11663860637283584  0.792672218196484  0.15848790961265868  1.0000
  C   C121      1.0  0.8152094791190101  0.5259675595944249  0.48735278228848317  1.0000
  C   C122      1.0  0.8385521431331885  0.5093637896596299  0.4833614345901781  1.0000
  C   C123      1.0  0.8571936482957728  0.48639110589915063  0.5071567194528741  1.0000
  C   C124      1.0  0.8529625314302401  0.48000198055253135  0.5353505816595675  1.0000
  C   C125      1.0  0.8299049305130298  0.4971310110632768  0.539572952339506  1.0000
  C   C126      1.0  0.8110270113196516  0.5197333023082775  0.5155837014354211  1.0000
  H   H81       1.0  0.841905074085114  0.5135537790755641  0.46167210460861874  1.0000
  H   H82       1.0  0.8748647118391891  0.47313957840779924  0.5035523024183576  1.0000
  H   H83       1.0  0.8262665326758406  0.4923383042699986  0.5610259472283659  1.0000
  H   H84       1.0  0.7930214574099019  0.5323571908104338  0.5189542962736003  1.0000
  C   C127      1.0  0.6809386346271326  0.6688626487736821  0.33626071845740807  1.0000
  C   C128      1.0  0.6686157783294777  0.6421138903913531  0.31219716680851245  1.0000
  C   C129      1.0  0.6382402608810657  0.6403876194599706  0.29468241958390456  1.0000
  C   C130      1.0  0.6197636964404494  0.6655847669694089  0.3006178196729183  1.0000
  C   C131      1.0  0.6321214917147101  0.6924278231166779  0.32459468675773046  1.0000
  C   C132      1.0  0.6624379499580421  0.6938921141193194  0.3423309448276413  1.0000
  H   H85       1.0  0.6824448595122793  0.6227917254436545  0.3069961250512778  1.0000
  H   H86       1.0  0.6290042632211116  0.6195575838306678  0.2761669628423122  1.0000
  H   H87       1.0  0.6182501774905123  0.7117359457528405  0.3297264619427356  1.0000
  H   H88       1.0  0.6716527826767326  0.7144605078697335  0.36106239712850074  1.0000
  C   C133      1.0  0.8210837464826608  0.5617749307874818  0.2832511108809692  1.0000
  C   C134      1.0  0.8376707253965416  0.5372386065984613  0.27362816351391905  1.0000
  C   C135      1.0  0.8433066252264857  0.5437257367380924  0.24623805528496612  1.0000
  C   C136      1.0  0.8320963082896117  0.574706322122294  0.22786142980926166  1.0000
  C   C137      1.0  0.8155971193070407  0.5993596352057113  0.23755366447556472  1.0000
  C   C138      1.0  0.8101728152116763  0.5930430714649928  0.2651267005324838  1.0000
  H   H89       1.0  0.8460919592138351  0.5128626911767292  0.2873384572398062  1.0000
  H   H90       1.0  0.8559383651985  0.5244553545516083  0.23904973537745627  1.0000
  H   H91       1.0  0.8067145477662976  0.6233210840364768  0.22342564962177533  1.0000
  H   H92       1.0  0.797097173680253  0.6119784653158594  0.2719504256311817  1.0000
  C   C139      1.0  0.8835326640225308  0.7114393299927095  0.41237800007803277  1.0000
  C   C140      1.0  0.8666957132647541  0.7273193409268355  0.38333505308868404  1.0000
  C   C141      1.0  0.8788693980475466  0.7545067903596653  0.3706062682491589  1.0000
  C   C142      1.0  0.9079629407014596  0.765783993074309  0.3866575824918293  1.0000
  C   C143      1.0  0.9248780573497202  0.7497245010059816  0.4156026924927435  1.0000
  C   C144      1.0  0.9126099214668736  0.7227839333363475  0.4285085343844068  1.0000
  H   H93       1.0  0.8441817952566417  0.719095203754834  0.370909303469881  1.0000
  H   H94       1.0  0.8656410319532881  0.7670295710856101  0.34827574999564714  1.0000
  H   H95       1.0  0.9473276060856549  0.7581982542873076  0.42812257596770015  1.0000
  H   H96       1.0  0.9257764183404866  0.710578750193078  0.45100215913673736  1.0000
  C   C145      1.0  0.5142503315833962  0.451853079644544  0.034970561081887314  1.0000
  C   C146      1.0  0.5356601651424774  0.477419561220888  0.05324843415919701  1.0000
  C   C147      1.0  0.5418728065509585  0.5089588257924503  0.03896162838332362  1.0000
  C   C148      1.0  0.5267915119686497  0.5158616862260808  0.006191772671060081  1.0000
  C   C149      1.0  0.5053893932447222  0.49030259176487356  0.9879189814634141  1.0000
  C   C150      1.0  0.4992851401070688  0.45866783683812207  0.002173862870699751  1.0000
  H   H97       1.0  0.5473809986530581  0.4730236142380574  0.07845888326123815  1.0000
  H   H98       1.0  0.5584275833415164  0.5283486157909166  0.05355342670799712  1.0000
  H   H99       1.0  0.49365544453750654  0.4946549607083678  0.9626938037840935  1.0000
  H   H100      1.0  0.48277092025847773  0.43921063573157165  0.9875843118305738  1.0000
  C   C151      1.0  0.5278507086910794  0.6117587652752249  0.753422328888726  1.0000
  C   C152      1.0  0.540312200286145  0.6249021804276298  0.7851422354202484  1.0000
  C   C153      1.0  0.5265305960664177  0.6188684261902166  0.8062478487507929  1.0000
  C   C154      1.0  0.5002362667181846  0.5991704759393727  0.7959601456691884  1.0000
  C   C155      1.0  0.4877997995070923  0.5859571141559149  0.7642371592459797  1.0000
  C   C156      1.0  0.5014514230653627  0.5922923220845414  0.7430323587343116  1.0000
  H   H101      1.0  0.5607801325706726  0.6398343277947819  0.7935421622110378  1.0000
  H   H102      1.0  0.5363631154205777  0.6291984529520632  0.8305706296753254  1.0000
  H   H103      1.0  0.4675497238086111  0.5705242412349214  0.7560953842227662  1.0000
  H   H104      1.0  0.4917716730850069  0.5815370197261486  0.718850416841675  1.0000
  C   C157      1.0  0.5190667898071889  0.3584578740019348  0.30257410380952937  1.0000
  C   C158      1.0  0.49349567038364117  0.3776595237313319  0.2867439185320113  1.0000
  C   C159      1.0  0.4851023746523876  0.3866035914998376  0.25438651691793374  1.0000
  C   C160      1.0  0.501807863901677  0.3758113760260046  0.23734334634092374  1.0000
  C   C161      1.0  0.5270116998500131  0.3558875859203469  0.2529911562128832  1.0000
  C   C162      1.0  0.5357226023978814  0.3476350872997305  0.28549341958354074  1.0000
  H   H105      1.0  0.4805541810072734  0.3863228115790799  0.299612717466693  1.0000
  H   H106      1.0  0.46552544586229183  0.40195365886771944  0.24248727328629383  1.0000
  H   H107      1.0  0.5400846341519387  0.3474185619774573  0.24021445821645768  1.0000
  H   H108      1.0  0.5556223860780014  0.33297286158535333  0.29750645274162973  1.0000
  C   C163      1.0  0.4978685211828314  0.5034272192035739  0.5463304650091998  1.0000
  C   C164      1.0  0.5219892118125556  0.511602788277707  0.539325991361379  1.0000
  C   C165      1.0  0.5282893398098683  0.48955592937756764  0.5171647033923317  1.0000
  C   C166      1.0  0.5105614758813938  0.4591136189916712  0.5013545856561222  1.0000
  C   C167      1.0  0.4863480731997186  0.45103219908401787  0.5082455865739965  1.0000
  C   C168      1.0  0.4801552859706293  0.4729353371809641  0.5305677230337229  1.0000
  H   H109      1.0  0.5359331971950279  0.53479494366542  0.5511090604719667  1.0000
  H   H110      1.0  0.5471122244411918  0.4962185649088041  0.5122115821292956  1.0000
  H   H111      1.0  0.472335488042034  0.4279318710453462  0.4963711881480785  1.0000
  H   H112      1.0  0.46144511954604267  0.46613103018967855  0.5356751937029114  1.0000
  C   C169      1.0  0.5527397822395659  0.21358919812301663  0.443854407711331  1.0000
  C   C170      1.0  0.5769701456010876  0.19080241288217434  0.45647934908258186  1.0000
  C   C171      1.0  0.578693162111361  0.15823239095961286  0.44025016944522405  1.0000
  C   C172      1.0  0.5558924332222274  0.14794009259174024  0.41156889349581705  1.0000
  C   C173      1.0  0.5313579896678217  0.1701959055213341  0.3995294542276197  1.0000
  C   C174      1.0  0.5298339025777691  0.20290810218057492  0.4154586337729648  1.0000
  H   H113      1.0  0.5947021233392197  0.19863880565922296  0.4786033641220592  1.0000
  H   H114      1.0  0.5975692679148313  0.1410726324983382  0.44992952363693195  1.0000
  H   H115      1.0  0.5135058491769086  0.1621943341867219  0.37756835842892406  1.0000
  H   H116      1.0  0.5108109976366751  0.2196835884813585  0.4058364546650647  1.0000
  C   C175      1.0  0.562120496022289  0.8432748819705712  0.3538481092410802  1.0000
  C   C176      1.0  0.5501155120608596  0.8550282848135234  0.32236051538438865  1.0000
  C   C177      1.0  0.5554096940289264  0.890926797332157  0.3150713170522431  1.0000
  C   C178      1.0  0.5728507385969918  0.9152908903992486  0.3392184697919241  1.0000
  C   C179      1.0  0.5845135571490184  0.9038439226514825  0.37086279021868207  1.0000
  C   C180      1.0  0.5790917912821745  0.867821486813423  0.3781699114098651  1.0000
  H   H117      1.0  0.5369903591711553  0.8363284202421004  0.3034975964909101  1.0000
  H   H118      1.0  0.5463398197778697  0.8995402380451062  0.2905485929459326  1.0000
  H   H119      1.0  0.5980261746220065  0.9225522940492128  0.38959648118177376  1.0000
  H   H120      1.0  0.5883935840378558  0.8588535669104661  0.4025930141788731  1.0000
  C   C181      1.0  0.5845028255482765  0.8202086198433886  0.912872664771715  1.0000
  C   C182      1.0  0.5606337427725699  0.802256261834254  0.9154924455965058  1.0000
  C   C183      1.0  0.560251519901994  0.763867456474362  0.9191121128546806  1.0000
  C   C184      1.0  0.584051825420437  0.7430452114402945  0.9207998297997654  1.0000
  C   C185      1.0  0.6079771549750053  0.7609765814333769  0.9182509687809719  1.0000
  C   C186      1.0  0.6081200299246142  0.7993263690616763  0.9140073673650781  1.0000
  H   H121      1.0  0.5423082906305715  0.818142570675311  0.9147650123446828  1.0000
  H   H122      1.0  0.5417607330682586  0.750510040419795  0.9212033956912833  1.0000
  H   H123      1.0  0.6265145994539747  0.7451660067447744  0.9195583313900214  1.0000
  H   H124      1.0  0.6266830612458264  0.8127729826779967  0.9121465806197252  1.0000
  C   C187      1.0  0.5672142980051245  0.044179707335716724  0.815723001542737  1.0000
  C   C188      1.0  0.5751806874913437  0.05920637540271345  0.8464560803972914  1.0000
  C   C189      1.0  0.5645297450934772  0.09367987619846571  0.8507604773589652  1.0000
  C   C190      1.0  0.5460713840135918  0.11325185472628414  0.8243655520579386  1.0000
  C   C191      1.0  0.538171914770992  0.09804728206769138  0.7938190401865403  1.0000
  C   C192      1.0  0.5487808980026466  0.06384166324734883  0.7895053815997143  1.0000
  H   H125      1.0  0.5894378220935302  0.04425852121467472  0.8668634888360719  1.0000
  H   H126      1.0  0.570724222270596  0.10520900457300417  0.8745240441122184  1.0000
  H   H127      1.0  0.5235758738519763  0.11243779380971468  0.7734015142694971  1.0000
  H   H128      1.0  0.5425667025814617  0.05263698278937978  0.7656843737142992  1.0000
  C   C193      1.0  0.4578465845460623  0.14293403499788473  0.14224110948618676  1.0000
  C   C194      1.0  0.4832291658703628  0.16497200147119628  0.15330475102843727  1.0000
  C   C195      1.0  0.4841293136626381  0.19900113603809605  0.13925583312787282  1.0000
  C   C196      1.0  0.459636276505747  0.2112500588697341  0.11378237350957078  1.0000
  C   C197      1.0  0.43427690322008955  0.18920078090398307  0.10268676118679834  1.0000
  C   C198      1.0  0.4332881626131767  0.15535399790424895  0.11695352515340353  1.0000
  H   H129      1.0  0.5023629803877226  0.15555554037856933  0.17277097815408615  1.0000
  H   H130      1.0  0.5038193249512526  0.21558165974447052  0.14794789750988072  1.0000
  H   H131      1.0  0.41525261221410764  0.19836578738126143  0.08292284802898305  1.0000
  H   H132      1.0  0.4136786625451397  0.13862168972767822  0.10807155214272654  1.0000
  C   C199      1.0  0.4476517088288824  0.9114872199637496  0.21322718077033753  1.0000
  C   C200      1.0  0.44778548596900886  0.9010591270711055  0.18372746854097885  1.0000
  C   C201      1.0  0.4626174497388567  0.8693272744353405  0.18114821462158592  1.0000
  C   C202      1.0  0.4774285208755507  0.8480545730270591  0.20801927874174544  1.0000
  C   C203      1.0  0.4778468225596088  0.859185772681354  0.23756674991960708  1.0000
  C   C204      1.0  0.4628921859688372  0.8905953420171236  0.24011811801228847  1.0000
  H   H133      1.0  0.4361526939034909  0.9170742234191218  0.16285066493725242  1.0000
  H   H134      1.0  0.46231285856500687  0.8610006819219005  0.15819765871393723  1.0000
  H   H135      1.0  0.48981196482094713  0.8437710088388097  0.25857057730907085  1.0000
  H   H136      1.0  0.46319503427167175  0.898760238127339  0.2631061694674835  1.0000
  C   C205      1.0  0.4347001596846259  0.8039256813856189  0.6302352884479437  1.0000
  C   C206      1.0  0.45971117596866495  0.7866820993160873  0.6305783922479594  1.0000
  C   C207      1.0  0.45932783386024756  0.7489917781114633  0.6231333276227313  1.0000
  C   C208      1.0  0.43385540328318023  0.728025026588675  0.6151822637724809  1.0000
  C   C209      1.0  0.4088095676054343  0.7451433723181793  0.6149728042071492  1.0000
  C   C210      1.0  0.40922346692233774  0.7829400532577215  0.6225648341389796  1.0000
  H   H137      1.0  0.47945347494620705  0.8027121108077651  0.6362715631222183  1.0000
  H   H138      1.0  0.4786374257992289  0.7364368602825917  0.6228941097087436  1.0000
  H   H139      1.0  0.3889803158316338  0.7291853154936477  0.6088329150027925  1.0000
  H   H140      1.0  0.3898051005738049  0.7959007967088421  0.6221844122103528  1.0000
  C   C211      1.0  0.4346235632794957  0.038416037152203715  0.7004066791938285  1.0000
  C   C212      1.0  0.4520519968276353  0.06373213624194993  0.7236011176016217  1.0000
  C   C213      1.0  0.4633987442203082  0.09505623943826562  0.7147952451646623  1.0000
  C   C214      1.0  0.4574466078409885  0.10140160131752429  0.6827393366149664  1.0000
  C   C215      1.0  0.44036759436575224  0.0757680019716545  0.6594872092298469  1.0000
  C   C216      1.0  0.42890889966774276  0.0443329801143262  0.6682838052905589  1.0000
  H   H141      1.0  0.45678023692865083  0.05921079455706972  0.7485090151206159  1.0000
  H   H142      1.0  0.47681033946401347  0.11426988542055797  0.7328812406160768  1.0000
  H   H143      1.0  0.4357490916814396  0.0804694752214494  0.6346538653011317  1.0000
  H   H144      1.0  0.41549937868824743  0.024944792239488017  0.6502292719114776  1.0000
  C   C217      1.0  0.06135176669548538  0.33743977540999115  0.3407560743337005  1.0000
  C   C218      1.0  0.05137651720083807  0.34814772499684166  0.30901319784332004  1.0000
  C   C219      1.0  0.06071778052368171  0.3816174346638705  0.30121771087823207  1.0000
  C   C220      1.0  0.07972783286637525  0.40497599161240894  0.3251655607352929  1.0000
  C   C221      1.0  0.08919459389232472  0.39485047923067845  0.35707976177382855  1.0000
  C   C222      1.0  0.08008199172418708  0.36099161207383396  0.3648444220584119  1.0000
  H   H145      1.0  0.03652672105348151  0.33058399719066156  0.29035397652616307  1.0000
  H   H146      1.0  0.05331669937502434  0.3892412156038681  0.2764690947675368  1.0000
  H   H147      1.0  0.1038704319254069  0.4128015821702989  0.3756729101333361  1.0000
  H   H148      1.0  0.08774774233614395  0.3528990409437899  0.38947095709899215  1.0000
  C   C223      1.0  0.967402117567315  0.3392336072338937  0.2001026137206364  1.0000
  C   C224      1.0  0.9510903503194941  0.3616298700919869  0.17464342752788167  1.0000
  C   C225      1.0  0.940738092715365  0.39564971712463537  0.1803955448438448  1.0000
  C   C226      1.0  0.9465636272872152  0.40720146439448407  0.21167269015735762  1.0000
  C   C227      1.0  0.9629537416496717  0.384853993816836  0.23704393797068635  1.0000
  C   C228      1.0  0.973477672940116  0.351163828948329  0.2313043041144481  1.0000
  H   H149      1.0  0.94630584786252  0.3525562058988287  0.1504183489722258  1.0000
  H   H150      1.0  0.9281120432325838  0.4127364424865078  0.16067181063179128  1.0000
  H   H151      1.0  0.9675922925427022  0.39361156476530307  0.261310744820589  1.0000
  H   H152      1.0  0.9863375314236992  0.3344787353064962  0.25109244523866747  1.0000
  C   C229      1.0  0.7085378727003208  0.02391312259382774  0.06687880426683016  1.0000
  C   C230      1.0  0.7105479072573209  0.9912632414246194  0.05107523105865913  1.0000
  C   C231      1.0  0.6987247344226578  0.9886077904947784  0.01748798846323499  1.0000
  C   C232      1.0  0.6848144793817763  0.018727975010797815  0.999329099376706  1.0000
  C   C233      1.0  0.6827757898023201  0.05130822482268682  0.015176062011829536  1.0000
  C   C234      1.0  0.6943756250571507  0.0538624712690827  0.04872993621514334  1.0000
  H   H153      1.0  0.7217485767669304  0.9680637727519705  0.06491533965092477  1.0000
  H   H154      1.0  0.7010791052091198  0.9636527411722136  0.005688423790195978  1.0000
  H   H155      1.0  0.6721495556325694  0.07481524226025504  0.0013630524243474663  1.0000
  H   H156      1.0  0.6926518506314278  0.07917013365228875  0.060507166549254476  1.0000
  C   C235      1.0  0.8446923951835532  0.16403872091210148  0.20845643689631632  1.0000
  C   C236      1.0  0.8550110150948388  0.14825209438071305  0.23860518536960487  1.0000
  C   C237      1.0  0.8850462176144666  0.14904088940839158  0.25803795116442063  1.0000
  C   C238      1.0  0.9052228733706127  0.16543096852848632  0.24764333210824893  1.0000
  C   C239      1.0  0.8949423000073997  0.18027418306664103  0.2171153777762637  1.0000
  C   C240      1.0  0.864913600565971  0.17996325505280902  0.1978716753341327  1.0000
  H   H157      1.0  0.8398528793791921  0.13583883398811247  0.24717087689426295  1.0000
  H   H158      1.0  0.8926570918337632  0.1370453708261335  0.28142485168385223  1.0000
  H   H159      1.0  0.9101844983257806  0.19137169495935485  0.2080963377216955  1.0000
  H   H160      1.0  0.8573056910314012  0.19186645447673892  0.17446659067923065  1.0000
  C   C241      1.0  0.7027069328036578  0.0749011679379291  0.2745116689486031  1.0000
  C   C242      1.0  0.7048625786616233  0.11089580113419428  0.28647317641109843  1.0000
  C   C243      1.0  0.6945434035116177  0.11927508325298104  0.3103316258313114  1.0000
  C   C244      1.0  0.6819225123603782  0.09187638671835946  0.3224763555311431  1.0000
  C   C245      1.0  0.6795706379198674  0.055977464086233095  0.3103145330474435  1.0000
  C   C246      1.0  0.6900551034552517  0.04756021622986082  0.2866264778228792  1.0000
  H   H161      1.0  0.7151567498612912  0.13203997366925696  0.2779820450595728  1.0000
  H   H162      1.0  0.6967422837936423  0.14704744234504424  0.3198230392592352  1.0000
  H   H163      1.0  0.6700501567045579  0.034593564403168964  0.31949993547633837  1.0000
  H   H164      1.0  0.6884531356118415  0.01958308272384139  0.277715139977363  1.0000
  C   C247      1.0  0.642916544780207  0.2150030057408526  0.13802233692416685  1.0000
  C   C248      1.0  0.6136113347967679  0.22356529800897007  0.12116581281647164  1.0000
  C   C249      1.0  0.6012163240231556  0.25350847887919864  0.1306468925116209  1.0000
  C   C250      1.0  0.6182283789678099  0.2755708196886024  0.15677225686546725  1.0000
  C   C251      1.0  0.647533763183524  0.2670032784682046  0.17368732142536472  1.0000
  C   C252      1.0  0.6598259358136193  0.23666520537267305  0.16451148717739994  1.0000
  H   H165      1.0  0.6003919765952034  0.20685967214787251  0.10067311258053631  1.0000
  H   H166      1.0  0.5785917260962224  0.25966334398142354  0.11753794773971878  1.0000
  H   H167      1.0  0.6608416514499567  0.28403416933710895  0.19389604467089486  1.0000
  H   H168      1.0  0.6824740718283984  0.23049340076417127  0.17753310667831965  1.0000
  C   C253      1.0  0.3138533305415381  0.009804411820559538  0.4742198703351676  1.0000
  C   C254      1.0  0.29522192238776523  0.02475748989668447  0.4870744646979368  1.0000
  C   C255      1.0  0.29595866466148607  0.012257196248981028  0.516485963387022  1.0000
  C   C256      1.0  0.31575844950967136  0.9854140357689894  0.5337325904214797  1.0000
  C   C257      1.0  0.3351360506398861  0.9715446367030887  0.521427094563869  1.0000
  C   C258      1.0  0.3339149356506814  0.9833571910527502  0.49166181296757955  1.0000
  H   H169      1.0  0.27951655171795853  0.04490183990286978  0.473857444021382  1.0000
  H   H170      1.0  0.28078093145533206  0.023052631214397934  0.5257142270031573  1.0000
  H   H171      1.0  0.35033146893758116  0.9507010822062201  0.5342730546489894  1.0000
  H   H172      1.0  0.34838551033730014  0.9715035244542585  0.48192569595116236  1.0000
  C   C259      1.0  0.17403705199289024  0.15900308052432732  0.3334968649861522  1.0000
  C   C260      1.0  0.15414302926068213  0.1789302769185798  0.3419555319239149  1.0000
  C   C261      1.0  0.12434863611444061  0.17948102931264062  0.32173236418695406  1.0000
  C   C262      1.0  0.11400007399685883  0.16027043842604788  0.2925381557813354  1.0000
  C   C263      1.0  0.13378140947446976  0.13993675793858187  0.28424727396302185  1.0000
  C   C264      1.0  0.16358378118230266  0.13929764228073363  0.304524485510199  1.0000
  H   H173      1.0  0.16188524780610664  0.19393917579630576  0.36443745721561555  1.0000
  H   H174      1.0  0.10938384389034315  0.1946682139842395  0.3287619215854355  1.0000
  H   H175      1.0  0.12607340227697622  0.12480728220495507  0.2618143070964506  1.0000
  H   H176      1.0  0.17848984810722368  0.12387646215292065  0.2975667910528959  1.0000
  C   C265      1.0  0.317554453011138  0.06935734986845929  0.2728295928522337  1.0000
  C   C266      1.0  0.33443602653037785  0.04464223732908322  0.26386081711730264  1.0000
  C   C267      1.0  0.33986896529127114  0.05023350009341366  0.23628021175870703  1.0000
  C   C268      1.0  0.3281264922392731  0.08042507481107204  0.21707783342604253  1.0000
  C   C269      1.0  0.3113284865788973  0.10528372675081772  0.22609944827317152  1.0000
  C   C270      1.0  0.30617096817222067  0.09992587942622252  0.2539484482020288  1.0000
  H   H177      1.0  0.34342257922147806  0.020949609851007463  0.27831554494182376  1.0000
  H   H178      1.0  0.35280955260758406  0.030881774850503196  0.22962502033918433  1.0000
  H   H179      1.0  0.3020965902707016  0.12869317500484442  0.21135200907351898  1.0000
  H   H180      1.0  0.2930340488288138  0.11908716356250024  0.26046685260859503  1.0000
  C   C271      1.0  0.3740007610641291  0.2147705898204635  0.41317142958632863  1.0000
  C   C272      1.0  0.35701055037278295  0.23215824219285897  0.38493177025608216  1.0000
  C   C273      1.0  0.36890142458615105  0.2611058690063227  0.3735926979729962  1.0000
  C   C274      1.0  0.39795883267532794  0.27240949496442446  0.3900349104979451  1.0000
  C   C275      1.0  0.41504803287831843  0.2546561279454975  0.41805154554202983  1.0000
  C   C276      1.0  0.4030179570395532  0.22614502582823137  0.4296954476105232  1.0000
  H   H181      1.0  0.3345901973628134  0.2237599105001127  0.37209778593086396  1.0000
  H   H182      1.0  0.35554677863389816  0.2748231266245918  0.35195330190992097  1.0000
  H   H183      1.0  0.43745870329388803  0.2630956926680503  0.4308604136038292  1.0000
  H   H184      1.0  0.41632214651169364  0.21278945967135432  0.45153981339317306  1.0000
  C   C277      1.0  0.06395319539436495  0.61903210154129  0.8410524818071974  1.0000
  C   C278      1.0  0.05757779666712669  0.6075660436818159  0.8096528025025449  1.0000
  C   C279      1.0  0.06673069037171843  0.5731006679574664  0.8033829391934073  1.0000
  C   C280      1.0  0.08227215896910856  0.5497273802595843  0.8283909097545465  1.0000
  C   C281      1.0  0.08874983078725321  0.5611525803545885  0.8598436082089579  1.0000
  C   C282      1.0  0.07959328257159268  0.5957435741840332  0.8661290766767507  1.0000
  H   H185      1.0  0.04541299937812298  0.6251166734931318  0.7901289160105438  1.0000
  H   H186      1.0  0.061601294967680964  0.5644683414751508  0.7789789255926666  1.0000
  H   H187      1.0  0.10065887705777907  0.5433082811020548  0.8792811693427249  1.0000
  H   H188      1.0  0.08459606887758453  0.6044572603892174  0.8904909114701044  1.0000
  C   C283      1.0  0.9665281591238768  0.617886808455349  0.6993379254589467  1.0000
  C   C284      1.0  0.9747774852484871  0.6063839061753066  0.7306942270174822  1.0000
  C   C285      1.0  0.964606106799717  0.5727239773915452  0.7370327959033061  1.0000
  C   C286      1.0  0.9469345956025055  0.5495469207810277  0.7120353955945258  1.0000
  C   C287      1.0  0.9392583689129891  0.5603469000122947  0.6804929447122023  1.0000
  C   C288      1.0  0.9488994596027404  0.5946742342140829  0.674172696833721  1.0000
  H   H189      1.0  0.9893875993585391  0.6231129502179978  0.7501803283507874  1.0000
  H   H190      1.0  0.9708074036580275  0.5644503973695203  0.7614863785886838  1.0000
  H   H191      1.0  0.9256707338738043  0.5424925821104486  0.6610849243986686  1.0000
  H   H192      1.0  0.9426245373896047  0.603311400911421  0.6498323136836819  1.0000
  C   C289      1.0  0.679403714541082  0.9120864820908489  0.5511795105474111  1.0000
  C   C290      1.0  0.7032348479753211  0.9360565019224594  0.5586948243282057  1.0000
  C   C291      1.0  0.70256672152941  0.9646764589878655  0.5378610367372489  1.0000
  C   C292      1.0  0.6782976286613306  0.9695396352169161  0.5091023888051757  1.0000
  C   C293      1.0  0.6545410197041123  0.9453906580722672  0.5015132540971328  1.0000
  C   C294      1.0  0.6550894066784961  0.9169548514951275  0.5224833024402975  1.0000
  H   H193      1.0  0.7222856463942054  0.9325110024804555  0.5803797207829399  1.0000
  H   H194      1.0  0.7211194483590678  0.9830751706757689  0.5438811727637722  1.0000
  H   H195      1.0  0.6357001572947725  0.948806079136608  0.4795562106371733  1.0000
  H   H196      1.0  0.6364603788435576  0.898718838655992  0.5163626861138103  1.0000
  C   C295      1.0  0.848928372630725  0.8113317511202932  0.7089018138789215  1.0000
  C   C296      1.0  0.851364283826935  0.7988475655710622  0.7386740653092576  1.0000
  C   C297      1.0  0.8781462026734254  0.7858187647462292  0.7606523803305943  1.0000
  C   C298      1.0  0.902635334894697  0.7842202491181778  0.7529154104859412  1.0000
  C   C299      1.0  0.8999428841992911  0.7957132078238001  0.7228077624390824  1.0000
  C   C300      1.0  0.8733632630886466  0.8095178289695043  0.701137079407203  1.0000
  H   H197      1.0  0.8327293476979695  0.7995597163038485  0.7448585526449585  1.0000
  H   H198      1.0  0.8799222308582978  0.776783010477239  0.7838032599121249  1.0000
  H   H199      1.0  0.9185166208369904  0.7948000106562239  0.7164633059649618  1.0000
  H   H200      1.0  0.8717913080942595  0.819161801868072  0.6782201228272702  1.0000
  C   C301      1.0  0.7074623840005823  0.9068475332502102  0.7606286896072725  1.0000
  C   C302      1.0  0.6952539269616559  0.9343040753810471  0.7731622113774776  1.0000
  C   C303      1.0  0.6890442315024355  0.9277760613686696  0.8002031952505163  1.0000
  C   C304      1.0  0.6956036624503265  0.8939259676544629  0.8154401494163014  1.0000
  C   C305      1.0  0.7078700403861743  0.8665229394556462  0.8028892090345938  1.0000
  C   C306      1.0  0.7134827068672134  0.8727500633634666  0.7754531295816212  1.0000
  H   H201      1.0  0.6906358175423549  0.9608413895126238  0.7620286778994638  1.0000
  H   H202      1.0  0.6797887249774368  0.9491873446741101  0.8097068918071094  1.0000
  H   H203      1.0  0.7130897169560229  0.8403135350087909  0.8145548592870174  1.0000
  H   H204      1.0  0.7228971193120967  0.8513462733518948  0.7661663439946307  1.0000
  C   C307      1.0  0.6600968957466072  0.7267187672684334  0.657621509974717  1.0000
  C   C308      1.0  0.6399671684195349  0.7546791254847403  0.652450035940058  1.0000
  C   C309      1.0  0.6101213559327601  0.7463344423196103  0.6385268299586359  1.0000
  C   C310      1.0  0.6002407871619071  0.7099843560901795  0.6300442256115674  1.0000
  C   C311      1.0  0.6203639481319805  0.6818601885287747  0.6360286866799176  1.0000
  C   C312      1.0  0.6502249439852744  0.6902300682982244  0.6499012326127893  1.0000
  H   H205      1.0  0.6473872768450976  0.782772687982759  0.6588815744148478  1.0000
  H   H206      1.0  0.5945977208298379  0.7682045898610349  0.6337958278499122  1.0000
  H   H207      1.0  0.6129299685098681  0.6538577492148046  0.6288551546797254  1.0000
  H   H208      1.0  0.6657450350717861  0.6684826120123075  0.6537998029121072  1.0000
  C   C313      1.0  0.3369390380642573  0.9102619216913678  0.9864303680634525  1.0000
  C   C314      1.0  0.3624227288999738  0.9205446555178197  0.012734877219173324  1.0000
  C   C315      1.0  0.3617282711213027  0.9454496661131901  0.036355894934928745  1.0000
  C   C316      1.0  0.33549318652404875  0.9607977669250383  0.03376842767820731  1.0000
  C   C317      1.0  0.3099756439349998  0.9505561055038164  0.007434441747180998  1.0000
  C   C318      1.0  0.3106128539846266  0.925234130404819  0.984035996760935  1.0000
  H   H209      1.0  0.3829218842751601  0.9091888930033077  0.014869186199794493  1.0000
  H   H210      1.0  0.3815523485859042  0.9530585613776942  0.056364068192275685  1.0000
  H   H211      1.0  0.28952791084164076  0.9621213637980531  0.005197332368596319  1.0000
  H   H212      1.0  0.29078266517269263  0.9174680881210191  0.9641111059382531  1.0000
  C   C319      1.0  0.16643251451941898  0.8073254553946051  0.8352846936212496  1.0000
  C   C320      1.0  0.15784332201395257  0.8192285862392733  0.8038939230376311  1.0000
  C   C321      1.0  0.12818244925790825  0.8182345859279174  0.783013268857715  1.0000
  C   C322      1.0  0.10685078477053817  0.8047484666565606  0.7930501502704393  1.0000
  C   C323      1.0  0.1154538848091519  0.7931191911216596  0.8244530008810818  1.0000
  C   C324      1.0  0.14497839713552726  0.7944760044328208  0.8453745058241414  1.0000
  H   H213      1.0  0.1740222562231692  0.8292733097282454  0.7957476264856269  1.0000
  H   H214      1.0  0.1218058289081659  0.8276094104965991  0.7588577173063288  1.0000
  H   H215      1.0  0.09925741424811133  0.7836477777521728  0.8328119265561843  1.0000
  H   H216      1.0  0.15125185680651002  0.7857525139054711  0.8697078165349873  1.0000
  C   C325      1.0  0.3056315283442189  0.8939146598722031  0.7740792707762879  1.0000
  C   C326      1.0  0.3204379870871585  0.9184509908603511  0.7620234597074396  1.0000
  C   C327      1.0  0.32641882420822177  0.9087361632619129  0.7353009443334266  1.0000
  C   C328      1.0  0.31720818667028544  0.8745490241485121  0.7200705148821054  1.0000
  C   C329      1.0  0.30210516199674775  0.8501979726281543  0.7318991668179232  1.0000
  C   C330      1.0  0.29652724385768603  0.8596754077910711  0.7589106792750911  1.0000
  H   H217      1.0  0.32753019594194605  0.9450340809675646  0.7735349643775172  1.0000
  H   H218      1.0  0.3380147362006277  0.9277974642093083  0.726419448970439  1.0000
  H   H219      1.0  0.2947118202117647  0.8237881849132362  0.7201467371915563  1.0000
  H   H220      1.0  0.2848895297608459  0.8406563629649475  0.7677674366897758  1.0000
  C   C331      1.0  0.35927147086886224  0.7247468795503184  0.8774609066551805  1.0000
  C   C332      1.0  0.37229145783514206  0.6969819760035852  0.8662597949834964  1.0000
  C   C333      1.0  0.40161774288843544  0.6882280087864737  0.8832477619512623  1.0000
  C   C334      1.0  0.41794003712116184  0.7068834067987406  0.9118112474407523  1.0000
  C   C335      1.0  0.40484318278064246  0.7344389160527325  0.9230811723192993  1.0000
  C   C336      1.0  0.3756844221881222  0.7435565546026611  0.9058829736724697  1.0000
  H   H221      1.0  0.3596618970533417  0.6822921467310886  0.8442812671784361  1.0000
  H   H222      1.0  0.4114544995561376  0.6668115224167164  0.87444596465896  1.0000
  H   H223      1.0  0.41732205819993423  0.748866215207421  0.9452551895360972  1.0000
  H   H224      1.0  0.3658483663640488  0.7649128643636153  0.9147666178951326  1.0000
  N   N1        1.0  0.015255737810773606  0.5039608086925521  0.2691335886215373  1.0000
  C   C337      1.0  0.009259702066613196  0.4640374962780119  0.2682901745694504  1.0000
  C   C338      1.0  0.027590219495946977  0.5174664303417561  0.3025918806699299  1.0000
  C   C339      1.0  0.9879419910534238  0.5231107464315405  0.2510994858127288  1.0000
  C   C340      1.0  0.03623567920419846  0.5110689318529302  0.2544851537490795  1.0000
  H   H225      1.0  0.9929134143953826  0.4577159781128835  0.27837901788074937  1.0000
  H   H226      1.0  0.029194982976731954  0.4487313543052041  0.28221643207104224  1.0000
  H   H227      1.0  0.0005525160500827742  0.4527271443942524  0.24345760456167426  1.0000
  H   H228      1.0  0.03253719093820795  0.5475269225523612  0.3042633127321782  1.0000
  H   H229      1.0  0.01239036725611653  0.5125071805271252  0.3144532578824724  1.0000
  H   H230      1.0  0.048210402099046146  0.5033824495453073  0.31676259250572264  1.0000
  H   H231      1.0  0.9914588604209246  0.5533581670556271  0.25111831230349546  1.0000
  H   H232      1.0  0.9714611216550731  0.5179286935059043  0.26126534773998006  1.0000
  H   H233      1.0  0.9780928615069835  0.5133298890607787  0.22578054216630494  1.0000
  H   H234      1.0  0.041383631349449335  0.5409333694825547  0.254916606549821  1.0000
  H   H235      1.0  0.027619561435517248  0.5012018245307458  0.22922564851090252  1.0000
  H   H236      1.0  0.05702250044359136  0.4967499203491015  0.2674154520193536  1.0000
  N   N2        1.0  0.4537085646959063  0.23968601107742177  0.8262211389249002  1.0000
  C   C341      1.0  0.47496627940588  0.2097387985662866  0.8340284376956147  1.0000
  C   C342      1.0  0.42948620245889607  0.23133195976604284  0.7953227262055776  1.0000
  C   C343      1.0  0.4680556292589877  0.27465019362497606  0.8241273609631796  1.0000
  C   C344      1.0  0.44231374790694233  0.24307664885741714  0.8513642613243371  1.0000
  H   H237      1.0  0.49360952796025054  0.2149377863389811  0.8571943362432223  1.0000
  H   H238      1.0  0.4841729788080293  0.20672741333406278  0.8156714746451911  1.0000
  H   H239      1.0  0.46498120720449126  0.18271102718327287  0.8353711428679983  1.0000
  H   H240      1.0  0.4181478631018576  0.20507958150948652  0.795828295646814  1.0000
  H   H241      1.0  0.41315030760017424  0.2535460187972564  0.7884226557849329  1.0000
  H   H242      1.0  0.4372880670580053  0.2287504758881072  0.7758019944314666  1.0000
  H   H243      1.0  0.4523890644560024  0.2976002785581407  0.8166256570175354  1.0000
  H   H244      1.0  0.4778003116707922  0.27258530910467227  0.806168344377542  1.0000
  H   H245      1.0  0.4858274566765316  0.2825739244641312  0.8472687202752052  1.0000
  H   H246      1.0  0.4262990574164474  0.26558125811820527  0.84616386696385  1.0000
  H   H247      1.0  0.4600175037413093  0.24926905267703797  0.8750466014098591  1.0000
  H   H248      1.0  0.4312446037877493  0.2171929173445765  0.8534698707088832  1.0000
  N   N3        1.0  0.8194393813967541  0.8961163527897268  0.7754008816509986  1.0000
  C   C345      1.0  0.8404772883852695  0.9255467400047445  0.7928302925875564  1.0000
  C   C346      1.0  0.7905731118638731  0.9049005711909612  0.7749027821826008  1.0000
  C   C347      1.0  0.8290726923445879  0.860740236270215  0.7914589959272825  1.0000
  C   C348      1.0  0.817662283589958  0.893213673909161  0.7423856421678391  1.0000
  H   H249      1.0  0.8338424575130815  0.9526263029235339  0.7813089383891266  1.0000
  H   H250      1.0  0.8624938946941473  0.9197831373222521  0.7936168961716766  1.0000
  H   H251      1.0  0.842425962205542  0.9285178320952286  0.8178852538783451  1.0000
  H   H252      1.0  0.7910488663997769  0.9076829166032236  0.7993958497982542  1.0000
  H   H253      1.0  0.7822722410682929  0.931115813466239  0.7624883565710622  1.0000
  H   H254      1.0  0.7741891707277174  0.8830910936299023  0.7622681154809026  1.0000
  H   H255      1.0  0.81352465494612  0.8380074323781909  0.7789760091701363  1.0000
  H   H256      1.0  0.8308746070468642  0.8619534502095824  0.8165293591186545  1.0000
  H   H257      1.0  0.8506645604971811  0.8530353395739426  0.7919431637395349  1.0000
  H   H258      1.0  0.8390076492066508  0.8863779411453664  0.7417326343363351  1.0000
  H   H259      1.0  0.8103406237612214  0.9192690507903806  0.729332225892834  1.0000
  H   H260      1.0  0.8021407567222641  0.8711538571965672  0.7286037446393263  1.0000
  N   N4        1.0  0.8830039557096873  0.2714255465131711  0.9808680806520653  1.0000
  C   C349      1.0  0.8536260024603881  0.26501755120894177  0.9559050811729018  1.0000
  C   C350      1.0  0.8974477323233725  0.3021207413230609  0.9716985834865758  1.0000
  C   C351      1.0  0.9001867810793396  0.23773025598428613  0.9846293891321721  1.0000
  C   C352      1.0  0.8806685014204473  0.2809896283957633  0.011284705490182666  1.0000
  H   H261      1.0  0.8421422155951155  0.24185274127150996  0.9618295115049212  1.0000
  H   H262      1.0  0.8542714757142504  0.25833308240341935  0.9324156306024542  1.0000
  H   H263      1.0  0.8400284116787577  0.2897494946783502  0.9527434723473496  1.0000
  H   H264      1.0  0.8998524870838638  0.29592829406795024  0.9490611922843838  1.0000
  H   H265      1.0  0.8848134842290079  0.32784454074882224  0.9681399380615434  1.0000
  H   H266      1.0  0.9194914582828049  0.3080559057862204  0.990234246220954  1.0000
  H   H267      1.0  0.9227303870046881  0.2417364595814075  0.0027414092334085943  1.0000
  H   H268      1.0  0.9017919703439307  0.2293604633238969  0.96186665062786  1.0000
  H   H269      1.0  0.8901833805101603  0.21414702955999612  0.9920440691313435  1.0000
  H   H270      1.0  0.8696169615036103  0.25868984233304254  0.01886168706625613  1.0000
  H   H271      1.0  0.8678496202994271  0.30644468181519036  0.009051219599481877  1.0000
  H   H272      1.0  0.9023970676801389  0.28605146169899004  0.030747289214269235  1.0000
  N   N5        1.0  0.4368197907910095  0.28436188486463915  0.17784600680464965  1.0000
  C   C353      1.0  0.4392127934731621  0.3034280570306439  0.15062265031062622  1.0000
  C   C354      1.0  0.4560181309071667  0.3029245598030596  0.2078595719749506  1.0000
  C   C355      1.0  0.44563443676681913  0.24574461345733167  0.17786326729500193  1.0000
  C   C356      1.0  0.4064957105921803  0.28546498299328965  0.174991552434836  1.0000
  H   H273      1.0  0.4338203718389146  0.33306220648103024  0.1504314225394274  1.0000
  H   H274      1.0  0.4247107000539594  0.29065757977567724  0.1273927827074371  1.0000
  H   H275      1.0  0.4616331348752652  0.3021624158194493  0.15160805704357053  1.0000
  H   H276      1.0  0.45530779303534025  0.2891414678115236  0.22911873347843015  1.0000
  H   H277      1.0  0.4789942579714993  0.30337103436433005  0.21030295840615992  1.0000
  H   H278      1.0  0.4497255715691892  0.33203874637958486  0.20870429547587388  1.0000
  H   H279      1.0  0.44417599025127785  0.2303737020186917  0.1980621573642766  1.0000
  H   H280      1.0  0.4684112450660668  0.24407436350137274  0.17985872676546397  1.0000
  H   H281      1.0  0.4316992655216427  0.2309629378190202  0.1554354224384735  1.0000
  H   H282      1.0  0.4039417856086317  0.27150458793079446  0.19527021054992713  1.0000
  H   H283      1.0  0.39151125706948964  0.2715506763472226  0.15256328087178292  1.0000
  H   H284      1.0  0.39919493082691715  0.3143046932280945  0.17471146435597823  1.0000
  N   N6        1.0  0.6718730007992789  0.9734486492357715  0.6322725889983294  1.0000
  C   C357      1.0  0.6564107673799044  0.9845982218607826  0.5988084486094419  1.0000
  C   C358      1.0  0.702502738341115  0.9663179931334088  0.6384175576440214  1.0000
  C   C359      1.0  0.6582143067096419  0.9396193967124227  0.6379532894621908  1.0000
  C   C360      1.0  0.6705186391994167  0.003094823044887951  0.65403398016633  1.0000
  H   H285      1.0  0.6567624959729446  0.9625389149918665  0.5818505538236644  1.0000
  H   H286      1.0  0.6665517797673198  0.009558419116937555  0.5934119423819577  1.0000
  H   H287      1.0  0.6332801253908783  0.9906801771392743  0.5933200545002929  1.0000
  H   H288      1.0  0.7149312119772016  0.9585917309712965  0.6636717744903087  1.0000
  H   H289      1.0  0.7042774035996671  0.9434417351136999  0.6229277529070683  1.0000
  H   H290      1.0  0.713408680256422  0.9908851101600473  0.6335787719400022  1.0000
  H   H291      1.0  0.6695930715340553  0.9302463457793384  0.6629380008875825  1.0000
  H   H292      1.0  0.6588383548462834  0.916705515946479  0.6218610930396757  1.0000
  H   H293      1.0  0.6351140035091369  0.9439566513038482  0.6337848841275512  1.0000
  H   H294      1.0  0.6808941186082845  0.028954818237409752  0.6506097131223207  1.0000
  H   H295      1.0  0.6819163948629491  0.9952497018757289  0.6794738892384448  1.0000
  H   H296      1.0  0.6477038668932148  0.00931959001983107  0.6500535303447632  1.0000
  N   N7        1.0  0.27992289372277007  0.5938274394130046  0.07455836453660383  1.0000
  C   C361      1.0  0.2706353624148028  0.631469410453219  0.07799457590835  1.0000
  C   C362      1.0  0.2756032161735602  0.5698987371197112  0.09822072795516142  1.0000
  C   C363      1.0  0.31098265969789696  0.5946003123805669  0.08015028859298699  1.0000
  C   C364      1.0  0.2624749911091525  0.5794095368730914  0.04206927737237288  1.0000
  H   H297      1.0  0.27356253492540017  0.6503863337431667  0.06055185810361779  1.0000
  H   H298      1.0  0.28324179845737063  0.6431010863109745  0.10234752618038513  1.0000
  H   H299      1.0  0.2472416213333413  0.6318311657230752  0.0739546455629923  1.0000
  H   H300      1.0  0.2816932951665826  0.5410343989172781  0.09594211684858094  1.0000
  H   H301      1.0  0.28878259758790076  0.5797047417824501  0.12302107482642992  1.0000
  H   H302      1.0  0.25256076630878466  0.5694085999594175  0.09523729239621473  1.0000
  H   H303      1.0  0.31869423896400406  0.5665965906433932  0.07778288600223458  1.0000
  H   H304      1.0  0.32454062428795416  0.6052858060772714  0.10462963544742672  1.0000
  H   H305      1.0  0.31515664790608666  0.6126200340873175  0.06289256961115865  1.0000
  H   H306      1.0  0.26793608119944634  0.5504615302666072  0.03890163991267931  1.0000
  H   H307      1.0  0.265770704319822  0.5961974576185645  0.02358184158497197  1.0000
  H   H308      1.0  0.23887483314831207  0.5797554674536411  0.03692615505385805  1.0000
  N   N8        1.0  0.04845450757946007  0.17372466839967185  0.820800412923272  1.0000
  C   C365      1.0  0.029510012505930397  0.2004019823366323  0.8274961799294276  1.0000
  C   C366      1.0  0.05112313280898707  0.14073288445486548  0.8401962176985384  1.0000
  C   C367      1.0  0.07750035733976772  0.19053239501969577  0.8290783413226851  1.0000
  C   C368      1.0  0.03563027562921622  0.16317148892584096  0.7866025916288785  1.0000
  H   H309      1.0  0.007279491407163533  0.188701516622021  0.8211383574140582  1.0000
  H   H310      1.0  0.02748564073988399  0.2260956516800053  0.8139067352108764  1.0000
  H   H311      1.0  0.03819124875862924  0.2080935545791857  0.8532499558064581  1.0000
  H   H312      1.0  0.063665277917455  0.11889671136567719  0.8343831441510318  1.0000
  H   H313      1.0  0.062241469917794945  0.14718614168902086  0.8660680405768469  1.0000
  H   H314      1.0  0.02950178930905594  0.12903064384161306  0.8364697924860073  1.0000
  H   H315      1.0  0.08767622194283205  0.19853331941241215  0.8548501057693227  1.0000
  H   H316      1.0  0.07636701342374012  0.21578367960920766  0.8151918465314874  1.0000
  H   H317      1.0  0.09232156624518723  0.17107879182642022  0.8243142550411313  1.0000
  H   H318      1.0  0.04875391646064406  0.14206679476966122  0.7807407460273584  1.0000
  H   H319      1.0  0.03382127927836179  0.18723035019468906  0.7711902880953119  1.0000
  H   H320      1.0  0.013426849424032803  0.15123993275577968  0.7796312929565641  1.0000
  N   N9        1.0  0.3930959305383379  0.14988877002493395  0.3428011565406288  1.0000
  C   C369      1.0  0.3845899188326638  0.14166357271074495  0.3695151413420286  1.0000
  C   C370      1.0  0.4227218767472129  0.1365152269806903  0.35020187430479616  1.0000
  C   C371      1.0  0.39249235278658345  0.1900326251100153  0.33807222312519286  1.0000
  C   C372      1.0  0.3725073136713672  0.13132106822812567  0.31348308405972525  1.0000
  H   H321      1.0  0.3997991515308836  0.15482245591298893  0.39220731789309526  1.0000
  H   H322      1.0  0.3842242796606319  0.11157364375638965  0.37341366152545225  1.0000
  H   H323      1.0  0.3625215212096963  0.1519944882948537  0.3649622345309861  1.0000
  H   H324      1.0  0.42977726610972367  0.14207827253743063  0.3304393242311086  1.0000
  H   H325      1.0  0.4388045269878064  0.15017466847456395  0.372156061715776  1.0000
  H   H326      1.0  0.42401912317877527  0.10633490910724847  0.3541334934664407  1.0000
  H   H327      1.0  0.3990577392586551  0.19741534161335997  0.31831056399463603  1.0000
  H   H328      1.0  0.40747239332402685  0.20497741617919588  0.359943633603564  1.0000
  H   H329      1.0  0.37039736453454564  0.20102327194581454  0.3322079264612821  1.0000
  H   H330      1.0  0.377911086789217  0.1369833509099892  0.29257206623779974  1.0000
  H   H331      1.0  0.3498844217214575  0.14047636733694222  0.3075133299160113  1.0000
  H   H332      1.0  0.3724677775651064  0.1009468856446868  0.3162057764099864  1.0000
  N   N10       1.0  0.6343047093021033  0.13762855166594298  0.2034646604062699  1.0000
  C   C373      1.0  0.66491159367684  0.14858863275072445  0.2120952538446008  1.0000
  C   C374      1.0  0.6321427579962208  0.11427286614776053  0.22869202499277796  1.0000
  C   C375      1.0  0.6235825867466671  0.11674451637921261  0.17291393389236348  1.0000
  C   C376      1.0  0.6167289582196356  0.17086608229563752  0.20013199040078794  1.0000
  H   H333      1.0  0.6674828590916982  0.1654425504056767  0.19324464567974653  1.0000
  H   H334      1.0  0.6788366730370345  0.12413203477809778  0.21532152917864275  1.0000
  H   H335      1.0  0.6737018268688245  0.1649729327626727  0.23473264177796913  1.0000
  H   H336      1.0  0.6407066729306407  0.1288250956082392  0.25228746275844655  1.0000
  H   H337      1.0  0.6093246862480604  0.10578967405413223  0.2232711113577498  1.0000
  H   H338      1.0  0.6449511030484697  0.0887607463048214  0.23147993090496832  1.0000
  H   H339      1.0  0.6251306705049627  0.13349936892098038  0.1533905851364239  1.0000
  H   H340      1.0  0.6005049858075844  0.10805937160761307  0.16549435104459959  1.0000
  H   H341      1.0  0.6365241107821611  0.09157249020499883  0.174644923335307  1.0000
  H   H342      1.0  0.6179876839771076  0.189033967450696  0.1812943525150446  1.0000
  H   H343      1.0  0.6243919943523127  0.18739245225789142  0.22271188645054374  1.0000
  H   H344      1.0  0.5934473779139191  0.163707504290059  0.19349552875928128  1.0000
  N   N11       1.0  0.4901448550406083  0.5876375147884338  0.2762661185191909  1.0000
  C   C377      1.0  0.4899912088102029  0.612790665302776  0.25107640326158936  1.0000
  C   C378      1.0  0.45997219723987703  0.5772624832711613  0.27082117163624336  1.0000
  C   C379      1.0  0.5041887977526065  0.6063209247520177  0.30770350831374127  1.0000
  C   C380      1.0  0.5064630548302871  0.5543165675201278  0.2754670269065452  1.0000
  H   H345      1.0  0.5124007560422233  0.6220289043224777  0.25489937641934945  1.0000
  H   H346      1.0  0.4772312923405226  0.6377645225028354  0.2505712159414767  1.0000
  H   H347      1.0  0.48010578077209176  0.5994389890844072  0.22704574079984366  1.0000
  H   H348      1.0  0.4471461375316772  0.6018474205925406  0.2715115367580788  1.0000
  H   H349      1.0  0.4485559638637016  0.5634685986950848  0.24715788698712746  1.0000
  H   H350      1.0  0.45923053887233445  0.5581949349649602  0.2893410747236804  1.0000
  H   H351      1.0  0.5049025895559696  0.5881145882262325  0.3273634464965412  1.0000
  H   H352      1.0  0.4922194315219952  0.6314092759679296  0.30919555789609005  1.0000
  H   H353      1.0  0.5268658503622481  0.6150803158514079  0.31239855882320333  1.0000
  H   H354      1.0  0.5292718226109135  0.5613339647162022  0.2792825012151733  1.0000
  H   H355      1.0  0.4963982747305772  0.5394258850091556  0.25210414183472807  1.0000
  H   H356      1.0  0.5071862324562862  0.5347414325160558  0.29428760376944274  1.0000
  N   N12       1.0  0.14076852685649036  0.6410867133639003  0.2029902470081975  1.0000
  C   C381      1.0  0.13857090883842063  0.6297018608207623  0.23288046563379056  1.0000
  C   C382      1.0  0.11971895388576727  0.6703494897104565  0.18798951111153703  1.0000
  C   C383      1.0  0.1345834856010021  0.6090796144686261  0.18088685428008236  1.0000
  C   C384      1.0  0.1703875381675952  0.6552117625760362  0.21013011576979984  1.0000
  H   H357      1.0  0.15400684363569328  0.6073461955213783  0.24440717073604182  1.0000
  H   H358      1.0  0.11642275952909048  0.6191507764825633  0.2284821223233716  1.0000
  H   H359      1.0  0.14374752453244843  0.6529511334037986  0.2503896640844634  1.0000
  H   H360      1.0  0.1208844847226474  0.6793887955063173  0.16529379025354282  1.0000
  H   H361      1.0  0.09704199259255131  0.6608799054642241  0.18225055577080143  1.0000
  H   H362      1.0  0.12408861760612637  0.6952112172830043  0.2037541732672775  1.0000
  H   H363      1.0  0.135444773370628  0.6168864532354567  0.15779876511265262  1.0000
  H   H364      1.0  0.11268560617818922  0.5970129426585338  0.17554656078664882  1.0000
  H   H365      1.0  0.15073734107709147  0.5869615552004834  0.1910542466959077  1.0000
  H   H366      1.0  0.17235450451685408  0.6649370536829251  0.18819919802348556  1.0000
  H   H367      1.0  0.18689068292266373  0.6336067642954533  0.22020503930640647  1.0000
  H   H368      1.0  0.1763139563480236  0.6789234785985123  0.22724040680433732  1.0000
  N   N13       1.0  0.05273101641243968  0.8499691662900295  0.024974664293567997  1.0000
  C   C385      1.0  0.06184657539985717  0.8634149811203048  0.0582045798892348  1.0000
  C   C386      1.0  0.028386773278396737  0.8233612323145763  0.017431846548237376  1.0000
  C   C387      1.0  0.07739230675341416  0.831688027414089  0.021295805879470536  1.0000
  C   C388      1.0  0.043267816085047074  0.8813320959751206  0.003159172720786597  1.0000
  H   H369      1.0  0.07973502309505985  0.8841954566558763  0.06459356726327074  1.0000
  H   H370      1.0  0.06968178682061427  0.8406316702819022  0.07535789605105403  1.0000
  H   H371      1.0  0.04355728478188055  0.8763929995109548  0.062113993053351746  1.0000
  H   H372      1.0  0.03464152058617113  0.799630250476745  0.03386774596252186  1.0000
  H   H373      1.0  0.009308020093983195  0.8364285756715956  0.01970168152353892  1.0000
  H   H374      1.0  0.021175927580276446  0.8121965498149012  0.9926742270089172  1.0000
  H   H375      1.0  0.07134964910745815  0.820977458420258  0.9965407092200589  1.0000
  H   H376      1.0  0.08490591094722867  0.807938731518762  0.0376360920801572  1.0000
  H   H377      1.0  0.09620102342463936  0.8509473404705883  0.026948264945735174  1.0000
  H   H378      1.0  0.03658501154205855  0.8723823999635493  0.9778497533383665  1.0000
  H   H379      1.0  0.06081816653486793  0.9025159771735675  0.008606823973845473  1.0000
  H   H380      1.0  0.024378368038874835  0.8952581622180402  0.005192179161447836  1.0000
  N   N14       1.0  0.27636051806612155  0.0657155558016639  0.08271376524074349  1.0000
  C   C389      1.0  0.2851194267154045  0.10079988346545515  0.10092090336217512  1.0000
  C   C390      1.0  0.2905623678699381  0.03504758693831971  0.10376060544133707  1.0000
  C   C391      1.0  0.2853782210756471  0.06614276008516136  0.05560116364848555  1.0000
  C   C392      1.0  0.24454680869072062  0.0607478780824114  0.07070274956019136  1.0000
  H   H381      1.0  0.2748333745419771  0.12469095497425182  0.08593136292556972  1.0000
  H   H382      1.0  0.309078217568974  0.10522023846962986  0.11046147797138173  1.0000
  H   H383      1.0  0.27907661231230535  0.10115968073648131  0.12189953333457915  1.0000
  H   H384      1.0  0.2848706483360566  0.008015103004666707  0.0908916778262026  1.0000
  H   H385      1.0  0.31446910578510506  0.038172012507897445  0.11296180071515363  1.0000
  H   H386      1.0  0.2847529693060445  0.03401206138895183  0.12485876361380382  1.0000
  H   H387      1.0  0.2795550787417544  0.039773084321213306  0.04167270750191487  1.0000
  H   H388      1.0  0.30934751475442074  0.06964067470412702  0.06393750881322208  1.0000
  H   H389      1.0  0.2750984756728683  0.08884356357507457  0.039059106869210616  1.0000
  H   H390      1.0  0.23308357590722273  0.0834196998682515  0.054689767972919086  1.0000
  H   H391      1.0  0.23711941895508856  0.060221421728668366  0.09064828588758891  1.0000
  H   H392      1.0  0.2373247462462976  0.03441762291180169  0.056955154427739976  1.0000
  N   N15       1.0  0.5995425014553749  0.37603930865639174  0.08452463649344509  1.0000
  C   C393      1.0  0.6304610413604128  0.36690780562500247  0.10150479759320151  1.0000
  C   C394      1.0  0.5824299586384417  0.34183509911315807  0.07213353594146588  1.0000
  C   C395      1.0  0.5958722899637446  0.40056816932562245  0.0577107689038765  1.0000
  C   C396      1.0  0.5892352354018894  0.3947495029993237  0.10684943638981864  1.0000
  H   H393      1.0  0.6440852789402602  0.3919985031688086  0.11143941023522273  1.0000
  H   H394      1.0  0.6390190488091126  0.35257850786259404  0.08546468141579103  1.0000
  H   H395      1.0  0.6336401786086396  0.3483323754036145  0.12185185094792064  1.0000
  H   H396      1.0  0.5589501248243168  0.3477081968704092  0.05907212800674492  1.0000
  H   H397      1.0  0.5897468295402268  0.32675007820612156  0.055399490658808184  1.0000
  H   H398      1.0  0.5845702395202671  0.32285279510327414  0.09185547414482532  1.0000
  H   H399      1.0  0.5726496078095126  0.4079744969375683  0.044736933049239924  1.0000
  H   H400      1.0  0.6031774813554693  0.38728506969232107  0.040165924955511814  1.0000
  H   H401      1.0  0.6084666577877019  0.4267041477309726  0.0661673281177255  1.0000
  H   H402      1.0  0.5921079897445142  0.3772406692728934  0.12763080381246553  1.0000
  H   H403      1.0  0.5657958666746972  0.4013187669582931  0.09504202126578706  1.0000
  H   H404      1.0  0.6013093920974116  0.42099143347462753  0.1163510197277924  1.0000
  N   N16       1.0  0.0195431094516898  0.07847130750234561  0.27310073564079257  1.0000
  C   C397      1.0  0.9938676518080678  0.09416192186651669  0.2765399379964157  1.0000
  C   C398      1.0  0.020471146635209214  0.09046676188916196  0.24273071140548078  1.0000
  C   C399      1.0  0.01772140437446179  0.03788869071246103  0.273182888143155  1.0000
  C   C400      1.0  0.04615465870516977  0.09144788372321598  0.2999413594987232  1.0000
  H   H405      1.0  0.9924399029452112  0.08599896141344447  0.2992650316381333  1.0000
  H   H406      1.0  0.9733088517307007  0.08516533255001876  0.2566919132704929  1.0000
  H   H407      1.0  0.9945118393789817  0.12473725435491875  0.27646210511170816  1.0000
  H   H408      1.0  0.02138573829258661  0.12096776914327423  0.24169605376198772  1.0000
  H   H409      1.0  0.04005705304456364  0.080129731236037  0.2397351574293921  1.0000
  H   H410      1.0  0.0010044794294925552  0.08069297608190086  0.22184948352342101  1.0000
  H   H411      1.0  0.036791296037634647  0.02518962946150026  0.2706295810279689  1.0000
  H   H412      1.0  0.997897004058465  0.027113351396296236  0.25323055411044426  1.0000
  H   H413      1.0  0.016973118909551443  0.027839617438901048  0.2957704339106597  1.0000
  H   H414      1.0  0.06604118401828307  0.08110333557582694  0.2976246232157629  1.0000
  H   H415      1.0  0.04650902922777522  0.08243080647912601  0.32325496474653403  1.0000
  H   H416      1.0  0.04797864573871102  0.12196979794071022  0.30086931551555596  1.0000
  N   N17       1.0  0.6170861185117279  0.9372127765358621  0.9928692785226949  1.0000
  C   C401      1.0  0.6302517586115702  0.9628216739945225  0.020411376219936012  1.0000
  C   C402      1.0  0.6060049847847138  0.9038419725409123  0.0026993532431823955  1.0000
  C   C403      1.0  0.6391779959797047  0.9266648670034081  0.9807110049130855  1.0000
  C   C404      1.0  0.5929226496589461  0.9554642023824669  0.9674190067242946  1.0000
  H   H417      1.0  0.6382615848805056  0.9885384467152178  0.013411241818622523  1.0000
  H   H418      1.0  0.6491636479186286  0.9504554970123372  0.03976338129906359  1.0000
  H   H419      1.0  0.6143779829011479  0.9708942376453235  0.030631355414525333  1.0000
  H   H420      1.0  0.6237421058481926  0.8892175879523039  0.021679053090166704  1.0000
  H   H421      1.0  0.5891949693328661  0.9105938525678793  0.011956211375141239  1.0000
  H   H422      1.0  0.5959508934268566  0.8841176222917878  0.9822034104679016  1.0000
  H   H423      1.0  0.6469763434793211  0.9508569857980435  0.9715584062010282  1.0000
  H   H424      1.0  0.6302642487492757  0.9062290735321469  0.9607558730576914  1.0000
  H   H425      1.0  0.6583747630867985  0.9142139533228761  0.999541081265107  1.0000
  H   H426      1.0  0.5827189545383851  0.9369927284695049  0.94610241284026  1.0000
  H   H427      1.0  0.6005912736162848  0.9807923645031059  0.959449200049312  1.0000
  H   H428      1.0  0.575681112626927  0.9635923618234261  0.9755901131662795  1.0000
  N   N18       1.0  0.8621205734510919  0.2823655731696001  0.7962749087116336  1.0000
  C   C405      1.0  0.8585529879150059  0.29939214873805914  0.7657811964696637  1.0000
  C   C406      1.0  0.8468358881365664  0.30436212830359904  0.8120102960439358  1.0000
  C   C407      1.0  0.8932907306854047  0.2811167365438996  0.8172358012030371  1.0000
  C   C408      1.0  0.8497493920369591  0.24461453490055576  0.7901211745006926  1.0000
  H   H429      1.0  0.8353622719511998  0.29949166699454455  0.7489700722342092  1.0000
  H   H430      1.0  0.8706534217912667  0.28442152144031985  0.7536820862563461  1.0000
  H   H431      1.0  0.8664369336057075  0.32852160545499004  0.7693787450687994  1.0000
  H   H432      1.0  0.848447699938056  0.2918053995760095  0.83465913369177  1.0000
  H   H433      1.0  0.8558923540128917  0.3328800224983231  0.8176926728473285  1.0000
  H   H434      1.0  0.823355123287084  0.3065685887589138  0.7966289461366014  1.0000
  H   H435      1.0  0.9055401995027426  0.2648275026733284  0.8060784733708123  1.0000
  H   H436      1.0  0.896746810077235  0.26814895824407764  0.8403542340956406  1.0000
  H   H437      1.0  0.9031902473757764  0.30922522561747273  0.8226068217722642  1.0000
  H   H438      1.0  0.8604772725778683  0.22726075486006653  0.7778998285345019  1.0000
  H   H439      1.0  0.8260856393554086  0.2446557747217329  0.774969399516141  1.0000
  H   H440      1.0  0.8523560468932369  0.23085498257687642  0.8127016696685869  1.0000
  N   N19       1.0  0.7978813320478908  0.08592122314881  0.10584206879748466  1.0000
  C   C409      1.0  0.7702789405489966  0.07820149947524496  0.07828730670059444  1.0000
  C   C410      1.0  0.8220072860601862  0.06896368915007815  0.10008730597304162  1.0000
  C   C411      1.0  0.7963203872473322  0.07037713108389602  0.13482247658919255  1.0000
  C   C412      1.0  0.8028498450283449  0.12609990197006696  0.1102836123865293  1.0000
  H   H441      1.0  0.7515863783294284  0.09030150707916425  0.08208214180891697  1.0000
  H   H442      1.0  0.7657620228378527  0.04809506967264481  0.07437670218342933  1.0000
  H   H443      1.0  0.7704229325979081  0.08959202648974608  0.055889286853342934  1.0000
  H   H444      1.0  0.8188368969043466  0.03861284071403902  0.09672779763404672  1.0000
  H   H445      1.0  0.8237801517898901  0.07998766221212845  0.07831817724685688  1.0000
  H   H446      1.0  0.8431238661325319  0.07424643577525017  0.12052388242056723  1.0000
  H   H447      1.0  0.8164782672379708  0.0762467879084555  0.15636813947645686  1.0000
  H   H448      1.0  0.7924104126486136  0.04008056393747658  0.1324356034137854  1.0000
  H   H449      1.0  0.7781276347476086  0.08234577739101115  0.1394426220856802  1.0000
  H   H450      1.0  0.8042399774410364  0.13890578238886783  0.08897270291743967  1.0000
  H   H451      1.0  0.8232523924557753  0.13294803268502464  0.13126730785155705  1.0000
  H   H452      1.0  0.7849787468475717  0.1396700929924047  0.11472091917913593  1.0000
  N   N20       1.0  0.8929207800539869  0.5878584832169808  0.04782775986195753  1.0000
  C   C413      1.0  0.9107966729721582  0.5643432748505696  0.07426197859081517  1.0000
  C   C414      1.0  0.8682529207489138  0.6020018731745786  0.054268405748420345  1.0000
  C   C415      1.0  0.8817873855249614  0.5659078446830585  0.017813220391590317  1.0000
  C   C416      1.0  0.9108494820164633  0.6190758585712296  0.045141410139767094  1.0000
  H   H453      1.0  0.9188492401429094  0.5796367524037055  0.09743388574131304  1.0000
  H   H454      1.0  0.9300353834291022  0.5538398584969764  0.07070614057342137  1.0000
  H   H455      1.0  0.8981500387309576  0.5400617657472173  0.07648276711765993  1.0000
  H   H456      1.0  0.8758481957101211  0.6187001677592918  0.07676000336783292  1.0000
  H   H457      1.0  0.8541347179017962  0.61963291182825  0.03468827262749875  1.0000
  H   H458      1.0  0.8544072018226301  0.5791088669426149  0.05673134058579426  1.0000
  H   H459      1.0  0.8997773082307521  0.5543780718390197  0.012361968564792533  1.0000
  H   H460      1.0  0.8681780434546824  0.5826696804682621  0.9972425904189697  1.0000
  H   H461      1.0  0.8680895843751064  0.5422125275146632  0.019278410602653673  1.0000
  H   H462      1.0  0.8980326873139282  0.6377249343972964  0.025656239990688657  1.0000
  H   H463      1.0  0.9296199851085576  0.6094344986248322  0.040160072080718395  1.0000
  H   H464      1.0  0.9197927343354958  0.6358100557936536  0.06768009061473854  1.0000
  N   N21       1.0  0.412283402762289  0.5876927646828645  0.527400551899455  1.0000
  C   C417      1.0  0.4103080630446987  0.628143349347929  0.5290929223783405  1.0000
  C   C418      1.0  0.3834711253010806  0.571758384208622  0.5074847295903475  1.0000
  C   C419      1.0  0.42214954080722633  0.5728234750926688  0.5598460868424614  1.0000
  C   C420      1.0  0.43324583574620407  0.5779487884240095  0.5133096679982798  1.0000
  H   H465      1.0  0.3950497957651842  0.6364878899178069  0.5401372723630494  1.0000
  H   H466      1.0  0.4028244608815771  0.64046768085096  0.5050722767312908  1.0000
  H   H467      1.0  0.43166860248679706  0.6410871917753856  0.5439883374347843  1.0000
  H   H468      1.0  0.3753337585643111  0.5823753814019978  0.48278687302973766  1.0000
  H   H469      1.0  0.3842702425512723  0.54125125382469  0.5057957341657608  1.0000
  H   H470      1.0  0.36717322791026386  0.5784880356578824  0.5175325316819744  1.0000
  H   H471      1.0  0.4072194541960482  0.5800266872846105  0.5715889377597806  1.0000
  H   H472      1.0  0.4439496539806421  0.5839910409064076  0.5751815288017688  1.0000
  H   H473      1.0  0.42406484468569344  0.542351337632982  0.5596578483850657  1.0000
  H   H474      1.0  0.45528112095400197  0.5894048101949413  0.5278144661201077  1.0000
  H   H475      1.0  0.42655633946051946  0.5884960691327638  0.488734074431614  1.0000
  H   H476      1.0  0.43564168279762666  0.5475921332239728  0.5122330855927826  1.0000
  N   N22       1.0  0.6305681125498003  0.7796771999157968  0.5598229033561893  1.0000
  C   C421      1.0  0.6284881735681422  0.7925192944180361  0.5284387908848917  1.0000
  C   C422      1.0  0.6139435496016722  0.7448473124460693  0.5557271629120126  1.0000
  C   C423      1.0  0.6185681019185363  0.807836806786814  0.5745753807839837  1.0000
  C   C424      1.0  0.6613224463935494  0.7736229430053642  0.5805763513433696  1.0000
  H   H477      1.0  0.64080698011907  0.8188721945977583  0.5308377538184047  1.0000
  H   H478      1.0  0.6055840320098352  0.7973992375568713  0.5120984137836707  1.0000
  H   H479      1.0  0.6375343147155901  0.7721429499290225  0.5166425442515432  1.0000
  H   H480      1.0  0.6156308914940357  0.7340950844078705  0.5790744779770167  1.0000
  H   H481      1.0  0.5904672513097229  0.7484797393464662  0.5408749501690521  1.0000
  H   H482      1.0  0.6220602117258821  0.7231189894928733  0.5441617481809696  1.0000
  H   H483      1.0  0.6201053906240843  0.7993841159330284  0.5984360244878478  1.0000
  H   H484      1.0  0.5953176501577014  0.812864441223101  0.5596762711202071  1.0000
  H   H485      1.0  0.6305067344128911  0.8345161593875203  0.5778526612426707  1.0000
  H   H486      1.0  0.6639239499299091  0.764774541968155  0.6047515890016921  1.0000
  H   H487      1.0  0.6745698773884812  0.7991593604485815  0.583661494771965  1.0000
  H   H488      1.0  0.6709951243051075  0.7520738648483686  0.5705351677938759  1.0000
  N   N23       1.0  0.37244863974810843  0.10381628604926951  0.5066836508964611  1.0000
  C   C425      1.0  0.342155396495252  0.11632424955614451  0.49258820640605505  1.0000
  C   C426      1.0  0.3757265889683145  0.07714499963107335  0.5319842978718397  1.0000
  C   C427      1.0  0.39206406270460786  0.1358102814613975  0.5203881438872754  1.0000
  C   C428      1.0  0.3797493280496201  0.08610386625167665  0.48158499645810343  1.0000
  H   H489      1.0  0.3268262364356511  0.09309571897049063  0.4808908824556166  1.0000
  H   H490      1.0  0.3392781814580288  0.13744207984399215  0.47418762575526296  1.0000
  H   H491      1.0  0.3354669733824412  0.12877595684446863  0.5109279895964229  1.0000
  H   H492      1.0  0.39826262840237886  0.06677926982467075  0.5429579792102617  1.0000
  H   H493      1.0  0.37054574482802904  0.08965715519814377  0.5514280805716129  1.0000
  H   H494      1.0  0.36094151455410406  0.0528900655205613  0.5224444447975004  1.0000
  H   H495      1.0  0.3901214496814723  0.15634744408748524  0.501748849078804  1.0000
  H   H496      1.0  0.41515098713108894  0.12743785608902924  0.5313683319285054  1.0000
  H   H497      1.0  0.38702024599939583  0.15006503103545987  0.5392370138844761  1.0000
  H   H498      1.0  0.3769366632599427  0.10537223354831049  0.461854188046933  1.0000
  H   H499      1.0  0.3655313757814429  0.061640646434886204  0.47091685311496917  1.0000
  H   H500      1.0  0.40257814499673866  0.07672901332273607  0.49117974687511917  1.0000
  N   N24       1.0  0.3731003060327375  0.8054135687547646  0.8156375794970965  1.0000
  C   C429      1.0  0.38925952497032257  0.7925137562740594  0.7966870041149564  1.0000
  C   C430      1.0  0.34415501037029855  0.7873307465933064  0.8035027290523441  1.0000
  C   C431      1.0  0.36976880002122464  0.8456827657475721  0.8128634232584049  1.0000
  C   C432      1.0  0.3892120769744707  0.7960635486210474  0.8494300930564821  1.0000
  H   H501      1.0  0.3919397943459763  0.7621518261887799  0.7981295778511744  1.0000
  H   H502      1.0  0.4112805168625522  0.8054459397361681  0.8053214581868056  1.0000
  H   H503      1.0  0.3777084357322353  0.7993272325013034  0.7710457852588  1.0000
  H   H504      1.0  0.33096664733440256  0.7971382891893408  0.8166276897691654  1.0000
  H   H505      1.0  0.3316672103252183  0.7928380229827718  0.7778232947154202  1.0000
  H   H506      1.0  0.3457932286176078  0.7569633173015988  0.8063118285564527  1.0000
  H   H507      1.0  0.3564122090770228  0.856165392220591  0.8255780295949794  1.0000
  H   H508      1.0  0.35888515017287803  0.8537415966333041  0.7875166905394376  1.0000
  H   H509      1.0  0.3911062936426988  0.8603688595847623  0.822950815151063  1.0000
  H   H510      1.0  0.37696835271775414  0.803825729490048  0.8641730479517093  1.0000
  H   H511      1.0  0.4107596062338273  0.8102240093449925  0.8598531419879922  1.0000
  H   H512      1.0  0.39312207933954696  0.7660217314912764  0.852215863721257  1.0000
  N   N25       1.0  0.3279138160659847  0.9744826969918101  0.89668722316008  1.0000
  C   C433      1.0  0.3482485071961959  0.006071455760754625  0.9028743265733441  1.0000
  C   C434      1.0  0.30377044648855595  0.9782800904246298  0.8651903077400406  1.0000
  C   C435      1.0  0.31631575185368405  0.9732590793062746  0.9217615981247359  1.0000
  C   C436      1.0  0.34337478353989265  0.9401057114593757  0.8969761330917643  1.0000
  H   H513      1.0  0.35744990925178893  0.007653070292770511  0.8844013371855965  1.0000
  H   H514      1.0  0.3667271224969957  0.0038823856808816734  0.9264782826898761  1.0000
  H   H515      1.0  0.337294523140229  0.03249602703090243  0.9029060287007046  1.0000
  H   H516      1.0  0.2914487240714437  0.0038220372430136837  0.8640034570772198  1.0000
  H   H517      1.0  0.3117385909175771  0.9788874460295838  0.8456539727870518  1.0000
  H   H518      1.0  0.2881668354297964  0.9546631708515013  0.8596722831458293  1.0000
  H   H519      1.0  0.30141772755690116  0.9491572373733881  0.9182064643504907  1.0000
  H   H520      1.0  0.3040907524755117  0.99843350547967  0.9221379431589694  1.0000
  H   H521      1.0  0.334046547363887  0.9706001951120619  0.945847832461414  1.0000
  H   H522      1.0  0.328647718068289  0.9159251429849614  0.8929675534984439  1.0000
  H   H523      1.0  0.3617547722748397  0.9361187077875283  0.9203871027554756  1.0000
  H   H524      1.0  0.35188975821411095  0.9394007748757162  0.8779059702656158  1.0000
  N   N26       1.0  0.1330122128917255  0.29519512989830965  0.31482120393881835  1.0000
  C   C437      1.0  0.16355194086689684  0.30729370324976224  0.3319830561267902  1.0000
  C   C438      1.0  0.11558682128287945  0.326629021118593  0.29777849563299913  1.0000
  C   C439      1.0  0.12162029571579591  0.28137947068735136  0.3379663768896149  1.0000
  C   C440      1.0  0.1313754970134451  0.2655998080967031  0.2916429557516081  1.0000
  H   H525      1.0  0.16555235066945673  0.32973992324157936  0.34957440680041857  1.0000
  H   H526      1.0  0.1728735973689044  0.31783353288858723  0.31524358866527263  1.0000
  H   H527      1.0  0.17733399911884185  0.28422587388431153  0.3452095956733805  1.0000
  H   H528      1.0  0.11640707665079031  0.34947788207976843  0.31458394010032525  1.0000
  H   H529      1.0  0.1234990655771353  0.33793974494822704  0.28012673239915037  1.0000
  H   H530      1.0  0.09238668619633783  0.3185467753102338  0.2846413914061994  1.0000
  H   H531      1.0  0.12201716593743805  0.3032170982820576  0.3554417224024318  1.0000
  H   H532      1.0  0.13441403079963554  0.2578917273164739  0.35153681207599463  1.0000
  H   H533      1.0  0.098674117324135  0.27173391605916264  0.3259352998249925  1.0000
  H   H534      1.0  0.14567888221372138  0.24237103132546  0.3034175768307886  1.0000
  H   H535      1.0  0.1382773861919615  0.27562279820760494  0.27279570189818564  1.0000
  H   H536      1.0  0.10892781178694322  0.25413084787192086  0.2795677369117123  1.0000
  N   N27       1.0  0.5125357582116441  0.0041415059228653295  0.2533304706297865  1.0000
  C   C441      1.0  0.5020791012508844  0.9924819052971863  0.27784785383413746  1.0000
  C   C442      1.0  0.488775428927148  0.021805046019844898  0.22693918496645646  1.0000
  C   C443      1.0  0.5223443033633853  0.971588490841291  0.24090050125206006  1.0000
  C   C444      1.0  0.5369790468551282  0.03060271440042639  0.26770163526087576  1.0000
  H   H537      1.0  0.5195417495730013  0.9789829019045823  0.298066360146958  1.0000
  H   H538      1.0  0.48365462505906315  0.9724445025919524  0.26786046281141634  1.0000
  H   H539      1.0  0.4945029967442113  0.016253413699274466  0.287855961951125  1.0000
  H   H540      1.0  0.4959424836036506  0.03150378827895395  0.20816850996018116  1.0000
  H   H541      1.0  0.4701874849516262  0.002405576158389877  0.2152060877046786  1.0000
  H   H542      1.0  0.4804220072305082  0.04608201729863537  0.2354968081026299  1.0000
  H   H543      1.0  0.5300326999240209  0.9791559041349485  0.2220369797936635  1.0000
  H   H544      1.0  0.5045026637833185  0.9507817692153443  0.23043043149529235  1.0000
  H   H545      1.0  0.5405514410171283  0.9579621155050964  0.2601841508226014  1.0000
  H   H546      1.0  0.5454050193870382  0.04009531335503835  0.24991662143837146  1.0000
  H   H547      1.0  0.5553668127645599  0.01808784363843574  0.28757204146125553  1.0000
  H   H548      1.0  0.5304296535386287  0.05525632181729434  0.2777489621747478  1.0000
  N   N28       1.0  0.8758751754920124  0.616890089734985  0.5155745944348376  1.0000
  C   C445      1.0  0.9073163432851934  0.6204767938590956  0.5351986435464734  1.0000
  C   C446      1.0  0.8615750992310695  0.5968750697916914  0.5334748990768249  1.0000
  C   C447      1.0  0.8712517521422081  0.5963466447638222  0.4858203250268482  1.0000
  C   C448      1.0  0.8632894701878203  0.653828769789299  0.5076473656083502  1.0000
  H   H549      1.0  0.9116555750290818  0.6361530862245623  0.5577607590667492  1.0000
  H   H550      1.0  0.9187574095827352  0.6351589276814972  0.522193067203764  1.0000
  H   H551      1.0  0.9174183022951483  0.5930516306335012  0.5417770051104811  1.0000
  H   H552      1.0  0.8376989388946657  0.5945822538057334  0.5195958408833546  1.0000
  H   H553      1.0  0.8698154918405627  0.5683587691766786  0.5388659714957348  1.0000
  H   H554      1.0  0.8652615153171783  0.6109606260345868  0.5565370597329937  1.0000
  H   H555      1.0  0.8477146110212525  0.5924630459629857  0.4708656276597448  1.0000
  H   H556      1.0  0.8809165609850879  0.5685563620031739  0.4907752030320324  1.0000
  H   H557      1.0  0.8810464915272955  0.6111454626094234  0.4712196075443041  1.0000
  H   H558      1.0  0.8738830085225422  0.6698426930373839  0.49446991996942236  1.0000
  H   H559      1.0  0.8658744780385392  0.6700130102781613  0.5294503340152362  1.0000
  H   H560      1.0  0.8397136378070508  0.6520539299045358  0.4921183186246745  1.0000
  N   N29       1.0  0.102474039791763  0.07767998884748913  0.5884373018215664  1.0000
  C   C449      1.0  0.11841723710648733  0.08340214599863227  0.5677414296515496  1.0000
  C   C450      1.0  0.07917390958158486  0.10485692472851404  0.5807891140601111  1.0000
  C   C451      1.0  0.12257346328967104  0.08242437803580145  0.6222200849926268  1.0000
  C   C452      1.0  0.08955323878162588  0.040199872492397676  0.5829739756988622  1.0000
  H   H561      1.0  0.1361946316207906  0.06333488969936613  0.5728543635869117  1.0000
  H   H562      1.0  0.1282615923504134  0.1115429544404521  0.571260462845647  1.0000
  H   H563      1.0  0.10374275645491021  0.0800949501424474  0.5420967518393957  1.0000
  H   H564      1.0  0.06343566657497146  0.10224748951463071  0.5554967462901228  1.0000
  H   H565      1.0  0.06657499110804355  0.10056502170484496  0.5956309064772657  1.0000
  H   H566      1.0  0.08792859478791641  0.13356167683069484  0.5853655566493067  1.0000
  H   H567      1.0  0.11113756057973644  0.07860262211219954  0.638475359075769  1.0000
  H   H568      1.0  0.1324062007881058  0.11061688365694154  0.6272673287927435  1.0000
  H   H569      1.0  0.14049618258592014  0.062405917787293215  0.6290442529732437  1.0000
  H   H570      1.0  0.07686976976448617  0.03527472134771373  0.5978342677089631  1.0000
  H   H571      1.0  0.10636758896993194  0.018739691703693117  0.5887041964472909  1.0000
  H   H572      1.0  0.07417001316173386  0.035809904344210886  0.5577005332183207  1.0000
  N   N30       1.0  0.9268004568636036  0.8869987996548043  0.44609719037016454  1.0000
  C   C453      1.0  0.9418876304358922  0.9228610428583077  0.44915484085211194  1.0000
  C   C454      1.0  0.9484954748909775  0.858008920725293  0.45915021607701556  1.0000
  C   C455      1.0  0.9089431414964384  0.8786240239571543  0.4121139289257393  1.0000
  C   C456      1.0  0.9079962619449385  0.8884007533932649  0.4640522157319386  1.0000
  H   H573      1.0  0.9553996945510176  0.9300481236078775  0.47456397697707714  1.0000
  H   H574      1.0  0.9263341324105262  0.9454824967046732  0.4391422923286306  1.0000
  H   H575      1.0  0.9568567302425056  0.9224741411559553  0.43653968290317025  1.0000
  H   H576      1.0  0.963185616410655  0.8568598994161694  0.446376656517705  1.0000
  H   H577      1.0  0.9625140125482587  0.8633392933299749  0.48476064143220743  1.0000
  H   H578      1.0  0.9381225909689715  0.830318420601704  0.4567405901311405  1.0000
  H   H579      1.0  0.8977639072024755  0.8513313042364792  0.40886254020458  1.0000
  H   H580      1.0  0.9224305177714794  0.8774999832598132  0.3978178363429289  1.0000
  H   H581      1.0  0.8921290164253575  0.8997047288973591  0.4013986022486474  1.0000
  H   H582      1.0  0.8963507661769773  0.8617100031847904  0.46224293517311926  1.0000
  H   H583      1.0  0.8914072662910161  0.9101138572275851  0.45488518602556505  1.0000
  H   H584      1.0  0.9208821794762199  0.8945599162065374  0.48980949079677316  1.0000
  N   N31       1.0  0.3241207092661728  0.3433330311165297  0.6152496103290731  1.0000
  C   C457      1.0  0.31916543119447444  0.3649281167566448  0.6401559735573076  1.0000
  C   C458      1.0  0.3007355373960053  0.3153336936068271  0.6015810516595771  1.0000
  C   C459      1.0  0.3524137726093946  0.3249599603970454  0.6294121925113765  1.0000
  C   C460      1.0  0.3239924690362266  0.3681892388801944  0.589875652940645  1.0000
  H   H585      1.0  0.33698505238238396  0.38531167952186063  0.6520945287659816  1.0000
  H   H586      1.0  0.3176936040884462  0.3468270584467362  0.6588942060011561  1.0000
  H   H587      1.0  0.2985432757215854  0.38032774467300146  0.6299564382996998  1.0000
  H   H588      1.0  0.3037868459136826  0.2982898879695152  0.582819254621987  1.0000
  H   H589      1.0  0.29999498755685694  0.2963635095153072  0.6202177965898312  1.0000
  H   H590      1.0  0.279105402070501  0.32834752421898233  0.5906560103050995  1.0000
  H   H591      1.0  0.3571566993671952  0.30891097341048057  0.6112135260882802  1.0000
  H   H592      1.0  0.35286259714878065  0.30544086806620785  0.6481374709085442  1.0000
  H   H593      1.0  0.3705429254462595  0.3451184009025512  0.6408744235398124  1.0000
  H   H594      1.0  0.3275708688739589  0.35289491701774417  0.5705477607875047  1.0000
  H   H595      1.0  0.34124916914820014  0.38982488496580875  0.5994524043000985  1.0000
  H   H596      1.0  0.30281694847267027  0.38240962942894396  0.5788093999057149  1.0000
  N   N32       1.0  0.28002362115843327  0.9648837194643868  0.3296696472817032  1.0000
  C   C461      1.0  0.300102884748652  0.9564713959380625  0.31411199586347033  1.0000
  C   C462      1.0  0.2957787140695573  0.9857496157562129  0.35967691678739644  1.0000
  C   C463      1.0  0.2683340052512723  0.9302739932718648  0.33681482233404436  1.0000
  C   C464      1.0  0.2558538963886863  0.9870692241613016  0.3081490312730769  1.0000
  H   H597      1.0  0.2889561490753684  0.9407900647858297  0.2913409731641252  1.0000
  H   H598      1.0  0.318736996250183  0.940031048200613  0.3297801535314762  1.0000
  H   H599      1.0  0.30922400834756725  0.9820892313333841  0.30835854629128656  1.0000
  H   H600      1.0  0.2812359798092413  0.9928180124071709  0.3719486526083068  1.0000
  H   H601      1.0  0.31403900209238733  0.9699066069048005  0.376766953637175  1.0000
  H   H602      1.0  0.3051100652252589  0.011966313262882  0.3553363744178567  1.0000
  H   H603      1.0  0.2531891570706584  0.9357848748423951  0.34869702169595845  1.0000
  H   H604      1.0  0.2859991030594156  0.9129107194135305  0.3530787290712361  1.0000
  H   H605      1.0  0.2562086217147066  0.9138014190876269  0.31471271337781453  1.0000
  H   H606      1.0  0.2403576786627448  0.994151871618369  0.31919917434463185  1.0000
  H   H607      1.0  0.24347993714166297  0.9722492434732389  0.285211491602666  1.0000
  H   H608      1.0  0.2638987448332206  0.013434042877101815  0.302281134069072  1.0000
  N   N33       1.0  0.8890866944077136  0.6344324067041925  0.33963548032460583  1.0000
  C   C465      1.0  0.8883146344441859  0.6332599011841473  0.30696162121046694  1.0000
  C   C466      1.0  0.9123228403266636  0.6601330648737898  0.3597837529531605  1.0000
  C   C467      1.0  0.8946276712702993  0.5972323255765022  0.3531770444743226  1.0000
  C   C468      1.0  0.8609212518853201  0.6470769846251698  0.33866952185420046  1.0000
  H   H609      1.0  0.871239553100148  0.6137517154509726  0.29128168991645664  1.0000
  H   H610      1.0  0.9093147872791655  0.6241171888071981  0.3067730150825563  1.0000
  H   H611      1.0  0.8835748441557771  0.6607139081828736  0.29574037993894237  1.0000
  H   H612      1.0  0.9136256026451185  0.6613421048611325  0.38467861684692417  1.0000
  H   H613      1.0  0.9339418182885406  0.6518139748179879  0.3608507789095523  1.0000
  H   H614      1.0  0.9084574767311727  0.6886633494981947  0.3505922323371925  1.0000
  H   H615      1.0  0.8949435743096438  0.5970533809296936  0.37767242138265306  1.0000
  H   H616      1.0  0.9157506274067473  0.586703242474192  0.3544046197967107  1.0000
  H   H617      1.0  0.8773974041395668  0.5772256316562054  0.33846168886418404  1.0000
  H   H618      1.0  0.860897762814509  0.64848152602268  0.3629940021088705  1.0000
  H   H619      1.0  0.8429399473594688  0.6280581643865106  0.32410476135253696  1.0000
  H   H620      1.0  0.8557167428671989  0.6748979495267626  0.3282662820540612  1.0000
  N   N34       1.0  0.6382940839947799  0.8198126549030836  0.333297086068425  1.0000
  C   C469      1.0  0.6272691045255301  0.8009958452779996  0.35482716025225225  1.0000
  C   C470      1.0  0.6412797444678117  0.792785516348639  0.3103867434697942  1.0000
  C   C471      1.0  0.6668508616335418  0.8370819440323578  0.3522789552254329  1.0000
  C   C472      1.0  0.6177648674533845  0.8484987344350859  0.31575716677147914  1.0000
  H   H621      1.0  0.6056435229410418  0.7878735618981898  0.34137575536805587  1.0000
  H   H622      1.0  0.6245560413580655  0.8206000602932463  0.37233036173244316  1.0000
  H   H623      1.0  0.6421154101444632  0.779065007409042  0.36842728681899356  1.0000
  H   H624      1.0  0.6569906515621802  0.7710434829682243  0.3227569501219204  1.0000
  H   H625      1.0  0.6201952855272507  0.7787657812730768  0.29606311692044  1.0000
  H   H626      1.0  0.6490727418714025  0.8061259108018054  0.29339697391383573  1.0000
  H   H627      1.0  0.6652666279560376  0.8576760727237318  0.36977203413683757  1.0000
  H   H628      1.0  0.6757695209974963  0.8516961633082537  0.33680043473574056  1.0000
  H   H629      1.0  0.6829451051788432  0.8162759474594289  0.36588622774510665  1.0000
  H   H630      1.0  0.6251661751712065  0.8631801306085212  0.2990547784289781  1.0000
  H   H631      1.0  0.6153259677695353  0.8695663010758179  0.3323694082857665  1.0000
  H   H632      1.0  0.5958086525576359  0.8366315714787256  0.3015414757370751  1.0000
  N   N35       1.0  0.7006838973748581  0.5750475514286979  0.40808192727706105  1.0000
  C   C473      1.0  0.6839085659216245  0.5810009518458178  0.3737401566764939  1.0000
  C   C474      1.0  0.7219658244276629  0.6054936314279671  0.4214338970668959  1.0000
  C   C475      1.0  0.7160998517470212  0.5398269955511876  0.41242697861994476  1.0000
  C   C476      1.0  0.6807946527548605  0.5739919673172416  0.42474809820619364  1.0000
  H   H633      1.0  0.6715897702992958  0.607027941377726  0.3697253099155859  1.0000
  H   H634      1.0  0.6680509743351956  0.5582089795048536  0.3624939767452871  1.0000
  H   H635      1.0  0.6984007774212446  0.5831305358012492  0.3606193749837722  1.0000
  H   H636      1.0  0.7370569428630751  0.607157388890704  0.4091431045334644  1.0000
  H   H637      1.0  0.7112002084111102  0.6326121630886705  0.4184284739364385  1.0000
  H   H638      1.0  0.7354702238181298  0.6017706892588855  0.44722020569840853  1.0000
  H   H639      1.0  0.7289763977169589  0.5344594815380982  0.4381176307743612  1.0000
  H   H640      1.0  0.7316852184147471  0.5398723477250319  0.4006209593202977  1.0000
  H   H641      1.0  0.7008109053885915  0.5161981433065673  0.4023376257698665  1.0000
  H   H642      1.0  0.6928468613444325  0.5695751055205885  0.4507426230875537  1.0000
  H   H643      1.0  0.6643977254823069  0.5513456892586557  0.41521147638596567  1.0000
  H   H644      1.0  0.6688760481699543  0.600223461598967  0.4219842216944929  1.0000
  N   N36       1.0  0.04665150295268017  0.9165149714991436  0.7559341350246571  1.0000
  C   C477      1.0  0.056035262047655854  0.9047667834702252  0.7304721579254263  1.0000
  C   C478      1.0  0.03875184808137444  0.9557678450902072  0.7521064775472782  1.0000
  C   C479      1.0  0.07061501550454063  0.9113167068862809  0.7873340969193628  1.0000
  C   C480      1.0  0.02125034915005486  0.8940139227738294  0.7538321211188097  1.0000
  H   H645      1.0  0.062192348779905204  0.8752469583305958  0.7327446881086996  1.0000
  H   H646      1.0  0.07519737984076968  0.9211104558888823  0.7313530228961269  1.0000
  H   H647      1.0  0.03845757003991279  0.9081325166964095  0.7064268149039898  1.0000
  H   H648      1.0  0.031417278869774634  0.9656523871597062  0.7708033539593998  1.0000
  H   H649      1.0  0.05738325208136508  0.973670136925618  0.7535655928384852  1.0000
  H   H650      1.0  0.020849406197422482  0.9608725562248283  0.7285810418415732  1.0000
  H   H651      1.0  0.07706891886504774  0.8819335870819989  0.7909214863545068  1.0000
  H   H652      1.0  0.0643087557807227  0.9197631020728847  0.8071630298235796  1.0000
  H   H653      1.0  0.09022724682678218  0.9277080786112597  0.7897437225996474  1.0000
  H   H654      1.0  0.013633351768423063  0.901954988075815  0.7727869684757815  1.0000
  H   H655      1.0  0.026528834949994362  0.8642176375865765  0.7565830561793797  1.0000
  H   H656      1.0  0.002741881738071994  0.8971455545041337  0.7304241660281607  1.0000
  N   N37       1.0  0.403152415642629  0.7863690869349348  0.2144248331526496  1.0000
  C   C481      1.0  0.39540442172712403  0.8169080498367195  0.19165574531115687  1.0000
  C   C482      1.0  0.42535675091618436  0.7636260577665158  0.209668330290009  1.0000
  C   C483      1.0  0.377120351782457  0.7634067938894343  0.20911135963514585  1.0000
  C   C484      1.0  0.4148786808142972  0.801507299372405  0.24736151244411775  1.0000
  H   H657      1.0  0.3788262779835405  0.8348966311642331  0.19462478580693313  1.0000
  H   H658      1.0  0.3866342135569793  0.8065547758193626  0.16653465934127548  1.0000
  H   H659      1.0  0.414653907813521  0.8346838304290118  0.195102832498105  1.0000
  H   H660      1.0  0.4450492317227378  0.7802600652669966  0.21292978737503573  1.0000
  H   H661      1.0  0.43229788570290434  0.7408963826176511  0.2270053526758879  1.0000
  H   H662      1.0  0.4172301929394233  0.7512313580496522  0.1852521754601147  1.0000
  H   H663      1.0  0.3596708569638694  0.7797651035290649  0.21195192129439586  1.0000
  H   H664      1.0  0.38220329272436404  0.7405351779593891  0.22636024802669358  1.0000
  H   H665      1.0  0.36806952590074743  0.7507456139073807  0.18475012402753643  1.0000
  H   H666      1.0  0.42133183088795323  0.7791751463972405  0.26520130363144856  1.0000
  H   H667      1.0  0.3986813232912797  0.8187038995254945  0.25190552475431216  1.0000
  H   H668      1.0  0.4344400302507074  0.8191731385809277  0.25208498100403937  1.0000
  N   N38       1.0  0.14123005027590596  0.6900957959051095  0.3686364027648735  1.0000
  C   C485      1.0  0.1537764733667212  0.6628417685980353  0.35365942185328947  1.0000
  C   C486      1.0  0.10988430853267  0.693438027388782  0.3490037430993316  1.0000
  C   C487      1.0  0.15580018357314931  0.7261925946487204  0.371182897423502  1.0000
  C   C488      1.0  0.1454164406949878  0.6778127282263994  0.40081767097915727  1.0000
  H   H669      1.0  0.1773732079170847  0.6591644173953024  0.3679788003428354  1.0000
  H   H670      1.0  0.15115723586445443  0.670986799335917  0.3293314318619764  1.0000
  H   H671      1.0  0.1432316999428603  0.6352406621280038  0.3514657248029728  1.0000
  H   H672      1.0  0.09926446151134392  0.7119537732904369  0.3606336996216503  1.0000
  H   H673      1.0  0.10585087967375001  0.7044717019012389  0.32507507795966206  1.0000
  H   H674      1.0  0.09854948588360217  0.6662530924450293  0.3452010499859954  1.0000
  H   H675      1.0  0.14661026162942603  0.7472804193928877  0.38229548828146837  1.0000
  H   H676      1.0  0.15320758876342325  0.7362841491942399  0.3473353340827189  1.0000
  H   H677      1.0  0.17946103087193113  0.7246575828822113  0.38605886163299624  1.0000
  H   H678      1.0  0.16876870931272062  0.6743314793635156  0.41622754246982846  1.0000
  H   H679      1.0  0.13437514900733033  0.6508919255822682  0.39959820778592425  1.0000
  H   H680      1.0  0.1362956142796119  0.6976935274461633  0.41299613267508944  1.0000
  N   N39       1.0  0.2568635515155993  0.9064664925506489  0.6062165403145313  1.0000
  C   C489      1.0  0.2734930063769753  0.9362031726020964  0.6284757908633032  1.0000
  C   C490      1.0  0.2424935336009275  0.8830066769579459  0.6219992017768329  1.0000
  C   C491      1.0  0.276757481664878  0.8839807987820727  0.5970764049123529  1.0000
  C   C492      1.0  0.23493576750839323  0.9227122945085745  0.5773580312206551  1.0000
  H   H681      1.0  0.2847516381655385  0.9543561095880186  0.6173491555577256  1.0000
  H   H682      1.0  0.2902765072022492  0.9248652682278325  0.6505379143805663  1.0000
  H   H683      1.0  0.25924607432145413  0.9537983141882278  0.635944243177958  1.0000
  H   H684      1.0  0.22735460974154756  0.8990336304666275  0.6293480153983853  1.0000
  H   H685      1.0  0.2299066734142591  0.860047230394564  0.606014376655713  1.0000
  H   H686      1.0  0.25873205780052344  0.8705274008644462  0.6439228904092692  1.0000
  H   H687      1.0  0.288528387056678  0.9010006617029127  0.5857759496397019  1.0000
  H   H688      1.0  0.264961535529657  0.8616312199150606  0.5798377706572108  1.0000
  H   H689      1.0  0.2932689927072252  0.8707648051515916  0.6182256410973933  1.0000
  H   H690      1.0  0.22195995103554383  0.9010659100978383  0.5599751222674051  1.0000
  H   H691      1.0  0.24543769869685994  0.940374973730041  0.565029363196323  1.0000
  H   H692      1.0  0.21963706111407771  0.9401325475129487  0.5833057933626625  1.0000
  N   N40       1.0  0.13874629578287787  0.31995683084694637  0.7025712262869906  1.0000
  C   C493      1.0  0.13846621529345748  0.344988074055779  0.7281970203859937  1.0000
  C   C494      1.0  0.1255621419200694  0.2840897575032776  0.7046481735476792  1.0000
  C   C495      1.0  0.1689621056735007  0.31458274503232464  0.706148760390676  1.0000
  C   C496      1.0  0.12216280135074707  0.33620091575241273  0.6711993757987381  1.0000
  H   H693      1.0  0.1482443808063811  0.3723277416313133  0.7272380363646576  1.0000
  H   H694      1.0  0.1511843403793487  0.33383838490615125  0.7522596780167823  1.0000
  H   H695      1.0  0.11604539075725015  0.34964872742788805  0.7264622178765218  1.0000
  H   H696      1.0  0.12531393918713685  0.26463953840476856  0.6855246786711576  1.0000
  H   H697      1.0  0.137833057756403  0.2708696986387946  0.7278892356932123  1.0000
  H   H698      1.0  0.10274828947453427  0.2870657186747143  0.7021949293013339  1.0000
  H   H699      1.0  0.17946953042357763  0.34111363434065645  0.7044549020555501  1.0000
  H   H700      1.0  0.16998775709250505  0.2959360467043333  0.6871915606765959  1.0000
  H   H701      1.0  0.18234231947195928  0.30254070780756787  0.7295886387852166  1.0000
  H   H702      1.0  0.09918360596744973  0.3406635956100101  0.6675218595416151  1.0000
  H   H703      1.0  0.12222148553689494  0.31803146755418943  0.6513903580437507  1.0000
  H   H704      1.0  0.13174311231106714  0.36323602594743387  0.668924260261479  1.0000
  N   N41       1.0  0.4711193839560209  0.7022123353553066  0.7182340491739171  1.0000
  C   C497      1.0  0.46414202148267275  0.6738721729794759  0.6927392156947437  1.0000
  C   C498      1.0  0.5019081500422667  0.7136002716233975  0.7288172001952983  1.0000
  C   C499      1.0  0.4660403733341464  0.6869619720302351  0.7454363901455132  1.0000
  C   C500      1.0  0.45245369049289863  0.7343530299293494  0.7058140244376889  1.0000
  H   H705      1.0  0.44110237166392724  0.6644201503775631  0.6840013956442991  1.0000
  H   H706      1.0  0.4780395765677262  0.6493878422371377  0.7009991505501285  1.0000
  H   H707      1.0  0.46762259814048257  0.6846643894288289  0.671911995019706  1.0000
  H   H708      1.0  0.5064512985373674  0.7252309682546615  0.7088127997600189  1.0000
  H   H709      1.0  0.508075833568349  0.7348063664950516  0.748232688783545  1.0000
  H   H710      1.0  0.5165410521345081  0.6898496473663911  0.7380458246739756  1.0000
  H   H711      1.0  0.47084715340716754  0.7076333934702219  0.7650919715163206  1.0000
  H   H712      1.0  0.480148845705233  0.663064619665782  0.7556172443356196  1.0000
  H   H713      1.0  0.4431978597227562  0.6772361911176761  0.7382071652425807  1.0000
  H   H714      1.0  0.42903324332171844  0.7265615948639027  0.6967881712413269  1.0000
  H   H715      1.0  0.45612928087474597  0.7468278421354545  0.6855818487220612  1.0000
  H   H716      1.0  0.4567880573605141  0.75620595355667  0.7244543395615209  1.0000
  N   N42       1.0  0.8955815612578121  0.6660688168807547  0.7238749435272487  1.0000
  C   C501      1.0  0.9125648311474647  0.6563012162120425  0.7573934097186071  1.0000
  C   C502      1.0  0.8872574635964148  0.6321529351529059  0.7039323427023346  1.0000
  C   C503      1.0  0.9133261228550295  0.690061931871784  0.7125829724715887  1.0000
  C   C504      1.0  0.8693083846149174  0.6858227192090818  0.7216711057961371  1.0000
  H   H717      1.0  0.9201418178988516  0.6813453402395041  0.7730091440090314  1.0000
  H   H718      1.0  0.9320895889769025  0.6403101683001283  0.75975244951414  1.0000
  H   H719      1.0  0.8995732189568637  0.6390990904936212  0.7670169627631345  1.0000
  H   H720      1.0  0.8744417403413427  0.6383772593697628  0.678462124670807  1.0000
  H   H721      1.0  0.9067545887445849  0.616819258484312  0.7051090606523859  1.0000
  H   H722      1.0  0.8740852217482818  0.613142355949098  0.7119394597436617  1.0000
  H   H723      1.0  0.9204234445340936  0.7156904065593931  0.7273635049923403  1.0000
  H   H724      1.0  0.9012414367160851  0.6982646177187457  0.6874602905483689  1.0000
  H   H725      1.0  0.9331960387452368  0.6759638174925446  0.7137174914743669  1.0000
  H   H726      1.0  0.85513861237552  0.6684651253561277  0.7295987842127891  1.0000
  H   H727      1.0  0.8562678722840693  0.6944066599108119  0.6968388217933961  1.0000
  H   H728      1.0  0.8751008128365799  0.711203452285965  0.7369330291304534  1.0000
  N   N43       1.0  0.8936252276827495  0.2985556405322094  0.223286392324307  1.0000
  C   C505      1.0  0.911463682121016  0.31236927841278556  0.25586274106776785  1.0000
  C   C506      1.0  0.8684560217274274  0.27732979686425724  0.2235733246208872  1.0000
  C   C507      1.0  0.9112957311520776  0.27444705720376833  0.21214332623412968  1.0000
  C   C508      1.0  0.8834778325754551  0.3299579449381988  0.20162934948826142  1.0000
  H   H729      1.0  0.9308586589391469  0.328054496443453  0.25652746187480135  1.0000
  H   H730      1.0  0.9194263885119015  0.2893866202988511  0.2728827388717029  1.0000
  H   H731      1.0  0.898958276655952  0.3310508184700946  0.26496321184779653  1.0000
  H   H732      1.0  0.875495817116317  0.25321791164649404  0.2395132753011152  1.0000
  H   H733      1.0  0.8546324866078241  0.29450643156642653  0.23203904894868022  1.0000
  H   H734      1.0  0.8545147868802956  0.2663969798628103  0.19937439416478445  1.0000
  H   H735      1.0  0.9202682554533201  0.25134875198844464  0.22867774928391402  1.0000
  H   H736      1.0  0.9300170073016848  0.2896824544812052  0.2107662737567518  1.0000
  H   H737      1.0  0.898454601740873  0.26255729744097656  0.18801152044362873  1.0000
  H   H738      1.0  0.8701330353249004  0.3205813312433984  0.17676502660596144  1.0000
  H   H739      1.0  0.9020671102885714  0.34643442996144996  0.20097289803620225  1.0000
  H   H740      1.0  0.8701262213391758  0.3489170280848736  0.20931449132927618  1.0000
  N   N44       1.0  0.9693817423661654  0.7818113789790331  0.213267797857301  1.0000
  C   C509      1.0  0.9404609545366291  0.7924714903242155  0.19008208795595455  1.0000
  C   C510      1.0  0.991575236098732  0.7926868781294004  0.20126839169775992  1.0000
  C   C511      1.0  0.9699125839904734  0.7415495344644109  0.21733313677088226  1.0000
  C   C512      1.0  0.9755986322232505  0.8005636573141672  0.2442335747329802  1.0000
  H   H741      1.0  0.9231461999195293  0.7852350905937097  0.19850332965702885  1.0000
  H   H742      1.0  0.9349486508063353  0.7783899325084136  0.16656788447872822  1.0000
  H   H743      1.0  0.9395551000394343  0.8225771703693854  0.18579753413852265  1.0000
  H   H744      1.0  0.013802429522072002  0.7854702455579269  0.21816557094678762  1.0000
  H   H745      1.0  0.9875906088236379  0.7788715221574626  0.17804637863466788  1.0000
  H   H746      1.0  0.991658045003431  0.8228423037110708  0.19755398543830602  1.0000
  H   H747      1.0  0.9914875074763794  0.732568741474908  0.2345525247611901  1.0000
  H   H748      1.0  0.9653233141530297  0.7266607795377188  0.19433112611139078  1.0000
  H   H749      1.0  0.953345300340791  0.7322599769263104  0.22622759471421117  1.0000
  H   H750      1.0  0.9976159510634607  0.7940145340351367  0.26206523423696654  1.0000
  H   H751      1.0  0.9596524817120948  0.7925500385912934  0.25442519923675994  1.0000
  H   H752      1.0  0.9747960009534566  0.8309675821330632  0.24179789060683324  1.0000
  N   N45       1.0  0.5882141955978372  0.25862394278700923  0.37920295142444227  1.0000
  C   C513      1.0  0.5962186614163667  0.2409491373950621  0.35459709064343853  1.0000
  C   C514      1.0  0.5966729913230927  0.29797556050155805  0.3825263308539414  1.0000
  C   C515      1.0  0.603338965315834  0.24039461732615244  0.40997341310192964  1.0000
  C   C516      1.0  0.5565439045983565  0.25510496600274146  0.3697500578233618  1.0000
  H   H753      1.0  0.6199938467668253  0.243148469451983  0.36093739941725905  1.0000
  H   H754      1.0  0.5849776091771371  0.2538581360089659  0.3309858253470614  1.0000
  H   H755      1.0  0.5902539553094219  0.21111796867203966  0.35174159902231855  1.0000
  H   H756      1.0  0.5896611584943692  0.3124145896451862  0.39986872104253457  1.0000
  H   H757      1.0  0.6205487339138335  0.30181521348081125  0.3907962318247345  1.0000
  H   H758      1.0  0.5863388546620932  0.312297595206628  0.3594419463123081  1.0000
  H   H759      1.0  0.5975915121333516  0.2105755828160439  0.4081105404792638  1.0000
  H   H760      1.0  0.5974409286744858  0.2526682989507562  0.4290231328233517  1.0000
  H   H761      1.0  0.6273112554733988  0.2426469598879451  0.4180829854894849  1.0000
  H   H762      1.0  0.5498941971987306  0.26750304757138876  0.3881755851617753  1.0000
  H   H763      1.0  0.5492864163031075  0.22578867943913455  0.3664748527748033  1.0000
  H   H764      1.0  0.5443714323845541  0.2693859183789504  0.3470253860745939  1.0000
  N   N46       1.0  0.44654372321176145  0.5992875019655582  0.9814861537937075  1.0000
  C   C517      1.0  0.45358197821765056  0.5613529763256405  0.9753687853973747  1.0000
  C   C518      1.0  0.47298284791576917  0.6226630122118559  0.9914354419834428  1.0000
  C   C519      1.0  0.43562866036921055  0.5992242915082617  0.007116987390614726  1.0000
  C   C520      1.0  0.42410737131536197  0.6140011234067437  0.9521381567166486  1.0000
  H   H765      1.0  0.4341254550489307  0.5428707087664618  0.9672821922206004  1.0000
  H   H766      1.0  0.4702504357759015  0.5494039855602447  0.9971819132223433  1.0000
  H   H767      1.0  0.46259412923982907  0.5604907917921347  0.9567019605073057  1.0000
  H   H768      1.0  0.4906469788751972  0.6121884179764449  0.013210944210416908  1.0000
  H   H769      1.0  0.4814952760968774  0.6234259981575943  0.9724765940187505  1.0000
  H   H770      1.0  0.468625090656934  0.6516357416215852  0.9961328307145432  1.0000
  H   H771      1.0  0.4521157268209281  0.5884330807244493  0.029631720737947953  1.0000
  H   H772      1.0  0.41570787169576406  0.5817332438498423  0.00042475741437519865  1.0000
  H   H773      1.0  0.43017202800362137  0.627507666202793  0.012285284151178688  1.0000
  H   H774      1.0  0.4038254809047026  0.5970383032777218  0.9437055487732733  1.0000
  H   H775      1.0  0.43172577408492907  0.61494080474355  0.9323750573551072  1.0000
  H   H776      1.0  0.4184569847515541  0.6427155098131179  0.9559308299278172  1.0000
  N   N47       1.0  0.6219474084951474  0.6724428722510986  0.7306914325011822  1.0000
  C   C521      1.0  0.6291347386039247  0.6354774303498151  0.7444488248421951  1.0000
  C   C522      1.0  0.6479303573175911  0.6897629028579815  0.7286957157384839  1.0000
  C   C523      1.0  0.611834841761636  0.6953630795201932  0.7510730971174814  1.0000
  C   C524      1.0  0.5987036035295662  0.6690768215152656  0.6984289940438715  1.0000
  H   H777      1.0  0.6098815476161807  0.6216665810327221  0.7461611718193013  1.0000
  H   H778      1.0  0.646581765470035  0.6368653255693347  0.7688654953235191  1.0000
  H   H779      1.0  0.636632237300823  0.6173069450541915  0.7295478880791111  1.0000
  H   H780      1.0  0.6430766378318972  0.717360707073968  0.7176878030381509  1.0000
  H   H781      1.0  0.6658284743610886  0.6933929903780919  0.7526607964430675  1.0000
  H   H782      1.0  0.6563407331760571  0.6728473276420568  0.7138413935413975  1.0000
  H   H783      1.0  0.6060684094240189  0.72339589754831  0.7412951366761195  1.0000
  H   H784      1.0  0.6288081981025138  0.6985030530722114  0.7756816817169462  1.0000
  H   H785      1.0  0.5922258464309644  0.6828739570003456  0.7529907042228356  1.0000
  H   H786      1.0  0.5927152487158185  0.6963410737475241  0.6870958599483894  1.0000
  H   H787      1.0  0.5787587883507809  0.6564509451772954  0.6990908895360503  1.0000
  H   H788      1.0  0.6052984904082318  0.6513716329926192  0.682534118708678  1.0000
  N   N48       1.0  0.14197692348796023  0.35251441839910924  0.5247930327828048  1.0000
  C   C525      1.0  0.1350744337329541  0.32165667715345575  0.5014854600890413  1.0000
  C   C526      1.0  0.12189746300963397  0.3514523481468311  0.5412447681597401  1.0000
  C   C527      1.0  0.13895924297690046  0.3877388488574262  0.5080685067565358  1.0000
  C   C528      1.0  0.1720593535868355  0.34915352931649896  0.5485202268889187  1.0000
  H   H789      1.0  0.14975367766280007  0.3218886045802732  0.4885349708931079  1.0000
  H   H790      1.0  0.11240689312090114  0.3230688538375153  0.48334642301636055  1.0000
  H   H791      1.0  0.13745816106206116  0.29468275468062394  0.5134617385168763  1.0000
  H   H792      1.0  0.12709555993211552  0.3738130215179436  0.5596411589300323  1.0000
  H   H793      1.0  0.09899252661678902  0.3546302143466393  0.5242207716040449  1.0000
  H   H794      1.0  0.12333971732994865  0.32496560640067806  0.5537206267627623  1.0000
  H   H795      1.0  0.14267920392375424  0.4116153252256755  0.5247578201895069  1.0000
  H   H796      1.0  0.11691805091442249  0.39058977574217274  0.48893368804022  1.0000
  H   H797      1.0  0.15493390048406674  0.3904571704696746  0.49685658327222587  1.0000
  H   H798      1.0  0.17828975337573894  0.37264182084178366  0.5658608441677215  1.0000
  H   H799      1.0  0.18790280707818616  0.34894459923571547  0.5370424780325158  1.0000
  H   H800      1.0  0.17492501635168378  0.323477959914978  0.562395419164079  1.0000
  N   N49       1.0  0.1238846725668704  0.37504425096402394  0.9859322292296193  1.0000
  C   C529      1.0  0.10118450901163677  0.3480427734336471  0.9845265112202032  1.0000
  C   C530      1.0  0.11007464574013588  0.40825348416968393  0.9684514359253195  1.0000
  C   C531      1.0  0.1424231989186432  0.3586598888442569  0.97112865554678  1.0000
  C   C532      1.0  0.14192082603126935  0.3853304572868608  0.019436940978464504  1.0000
  H   H801      1.0  0.11076828965772258  0.32236926042337255  0.9971063151587907  1.0000
  H   H802      1.0  0.08724893370305416  0.34004831333883573  0.9593768391190018  1.0000
  H   H803      1.0  0.08672146085210948  0.35936629758598315  0.9954769501917545  1.0000
  H   H804      1.0  0.12661684996510636  0.4289948728807213  0.9686059529154128  1.0000
  H   H805      1.0  0.09608966210057594  0.4014481769233735  0.94311472770442  1.0000
  H   H806      1.0  0.09615689999288636  0.4216537354794611  0.9791323300081697  1.0000
  H   H807      1.0  0.16005712138112793  0.3781078703977296  0.9721363882500961  1.0000
  H   H808      1.0  0.12958378388112343  0.35130649018130194  0.9456433690779081  1.0000
  H   H809      1.0  0.15279283880442668  0.3331140944449304  0.9832396408720749  1.0000
  H   H810      1.0  0.15912273832142296  0.4058493237375867  0.020921569300556532  1.0000
  H   H811      1.0  0.15290126873915758  0.3610106184973607  0.03333428479529329  1.0000
  H   H812      1.0  0.12868223287454292  0.39787805424223915  0.031405643188544365  1.0000
  N   N50       1.0  0.913929439565733  0.3355904240213397  0.5606296120817859  1.0000
  C   C533      1.0  0.8883155411831091  0.3589511184041082  0.5457182126707201  1.0000
  C   C534      1.0  0.9279331013026132  0.32934971714271327  0.5380578953167056  1.0000
  C   C535      1.0  0.9047347106375695  0.29990168362332353  0.5689531895678428  1.0000
  C   C536      1.0  0.9347835493386306  0.35415382240092097  0.5897951074439417  1.0000
  H   H813      1.0  0.8776423689962666  0.36504377606596455  0.5624120279298612  1.0000
  H   H814      1.0  0.871769854241376  0.3456202705031848  0.5239972037687238  1.0000
  H   H815      1.0  0.8943913167742306  0.3859149163900963  0.5386593861270826  1.0000
  H   H816      1.0  0.947277973577512  0.31163812891574  0.5486153021265769  1.0000
  H   H817      1.0  0.9127705939037076  0.31546450237235923  0.5157272439504543  1.0000
  H   H818      1.0  0.935263728320938  0.35574751675032845  0.5314111320233318  1.0000
  H   H819      1.0  0.8887974352914523  0.285193869339742  0.5476030368210446  1.0000
  H   H820      1.0  0.8943708005423204  0.3035491292332848  0.5862732465203588  1.0000
  H   H821      1.0  0.9235410367990858  0.28145424596638746  0.5799864436399685  1.0000
  H   H822      1.0  0.9546340462881272  0.3376254430960356  0.6015404377513031  1.0000
  H   H823      1.0  0.925222628159066  0.35845880243515127  0.6076946614012225  1.0000
  H   H824      1.0  0.9415552520747075  0.3817163516691665  0.5846682149151166  1.0000
  N   N51       1.0  0.13930799038259084  0.677353137539232  0.8340351371493067  1.0000
  C   C537      1.0  0.14559984889597288  0.6539058195005513  0.8620957531971553  1.0000
  C   C538      1.0  0.16456133426256941  0.701710969351431  0.8390241173404944  1.0000
  C   C539      1.0  0.11380188651574552  0.6999460221780611  0.8295697627298164  1.0000
  C   C540      1.0  0.13298983146409601  0.6538385918442272  0.805360197382338  1.0000
  H   H825      1.0  0.16472269585566682  0.6363524728892052  0.866247573993305  1.0000
  H   H826      1.0  0.12686684921622884  0.6352842144944669  0.8589560939081848  1.0000
  H   H827      1.0  0.15006289176469031  0.6707224328086445  0.8841081063330883  1.0000
  H   H828      1.0  0.16025756076694087  0.7203389647651681  0.8185313738778812  1.0000
  H   H829      1.0  0.17002819618409043  0.7196470354024902  0.8606351812854832  1.0000
  H   H830      1.0  0.18421146297007532  0.6857142210381229  0.8420610963628827  1.0000
  H   H831      1.0  0.10846967033822962  0.7182067804301766  0.8087236435096065  1.0000
  H   H832      1.0  0.11734875481517577  0.7175239904751196  0.8509398081153156  1.0000
  H   H833      1.0  0.09434889241154598  0.6824239381495775  0.8252968001914833  1.0000
  H   H834      1.0  0.12781210668003842  0.6706483783798072  0.7836578435980458  1.0000
  H   H835      1.0  0.11400129203182685  0.6351530067067414  0.8010534222154482  1.0000
  H   H836      1.0  0.15174500810462346  0.6362992922931366  0.8077828750973379  1.0000
  N   N52       1.0  0.6280966592630732  0.6112101851231349  0.9854734765349802  1.0000
  C   C541      1.0  0.6468714120901362  0.6445645892408899  0.9938114476408377  1.0000
  C   C542      1.0  0.6209412952442029  0.6006661714791492  0.9518142337301092  1.0000
  C   C543      1.0  0.6011071188604504  0.6188273663182001  0.9899734941437748  1.0000
  C   C544      1.0  0.6433960999153334  0.580791703311447  0.006260409724497093  1.0000
  H   H837      1.0  0.6524925781191314  0.6535733721939144  0.01894577218033145  1.0000
  H   H838      1.0  0.6358921079295571  0.6679817325261789  0.9783985991203701  1.0000
  H   H839      1.0  0.6674558447929274  0.6399067003609458  0.9906905665345037  1.0000
  H   H840      1.0  0.6066436037941133  0.5757154583810977  0.9445912481975379  1.0000
  H   H841      1.0  0.6093353046118845  0.6230284198234295  0.9354456923892039  1.0000
  H   H842      1.0  0.6407810298314667  0.5948294468008268  0.9474740488973823  1.0000
  H   H843      1.0  0.5860682917629959  0.5945409215159906  0.9832918261739126  1.0000
  H   H844      1.0  0.5893466630405099  0.6421023957190679  0.9750711292636126  1.0000
  H   H845      1.0  0.6055354076518242  0.6263468486118002  0.015160546799653393  1.0000
  H   H846      1.0  0.6492385734946582  0.5879024524793672  0.03185182872417365  1.0000
  H   H847      1.0  0.6637926039112974  0.5740795132920964  0.0033383972712354537  1.0000
  H   H848      1.0  0.6295994279548615  0.5553625441533778  0.0006619248115828575  1.0000
  N   N53       1.0  0.5519600174026024  0.35406028792733574  0.5455339890906283  1.0000
  C   C545      1.0  0.5652764309314944  0.3904844847485197  0.5579422259847705  1.0000
  C   C546      1.0  0.5627487209744525  0.32680679000898255  0.5711393720484037  1.0000
  C   C547      1.0  0.5596790467017628  0.3426033753111159  0.518778078024087  1.0000
  C   C548      1.0  0.520082627553499  0.3563604871699633  0.5341939765365058  1.0000
  H   H849      1.0  0.5578014231375358  0.411560602337987  0.5390533353870399  1.0000
  H   H850      1.0  0.589341659035939  0.3897796574471539  0.5669119190108274  1.0000
  H   H851      1.0  0.5595103455386237  0.40036480674599745  0.5778050280972311  1.0000
  H   H852      1.0  0.5867641674552583  0.32447372620317194  0.5803555770071004  1.0000
  H   H853      1.0  0.5571291280650414  0.33445226779565845  0.5916499282156533  1.0000
  H   H854      1.0  0.5532630227826  0.2989577360229329  0.5624195756158122  1.0000
  H   H855      1.0  0.5496463761725631  0.31545984643752173  0.5084208229527356  1.0000
  H   H856      1.0  0.5835360330601551  0.3401054647105818  0.5264238977893408  1.0000
  H   H857      1.0  0.5521720420527396  0.3628872889822617  0.49925713267461375  1.0000
  H   H858      1.0  0.5093108241155054  0.32924786745196344  0.5250748780690248  1.0000
  H   H859      1.0  0.511208758300164  0.3761141988740285  0.5143863992264965  1.0000
  H   H860      1.0  0.5134311206078362  0.36584064875641326  0.5535118065978976  1.0000
  N   N54       1.0  0.6239317778239065  0.1729974574893835  0.8221038274087696  1.0000
  C   C549      1.0  0.6021728266020554  0.20013764712595628  0.8218258755465673  1.0000
  C   C550      1.0  0.6348536772419114  0.15389950246296083  0.852888287180957  1.0000
  C   C551      1.0  0.648198165261871  0.19212237052682082  0.8177584057503755  1.0000
  C   C552      1.0  0.6103317195515701  0.14587148538896239  0.7958626488282405  1.0000
  H   H861      1.0  0.5928906396450189  0.21433339385954997  0.7986250736285279  1.0000
  H   H862      1.0  0.6117662127794523  0.22161277640600396  0.8407943554971018  1.0000
  H   H863      1.0  0.5838258842605029  0.1868266971007793  0.825618217264509  1.0000
  H   H864      1.0  0.6169242527487494  0.13933797245661345  0.8567943770319557  1.0000
  H   H865      1.0  0.6511869241430268  0.13295645387483931  0.8539166470783712  1.0000
  H   H866      1.0  0.6452614511714918  0.17357076377488445  0.873218866639517  1.0000
  H   H867      1.0  0.6654686741707383  0.1727281059330412  0.8186767704634349  1.0000
  H   H868      1.0  0.6583308190112869  0.21384286050516743  0.8364402519750884  1.0000
  H   H869      1.0  0.6406540771333645  0.2059482297815504  0.7943167912172546  1.0000
  H   H870      1.0  0.5917161082068128  0.13126625181608004  0.7982367823665626  1.0000
  H   H871      1.0  0.6260072551342937  0.12467859170718533  0.7954971212701566  1.0000
  H   H872      1.0  0.601918192610875  0.159397704673331  0.7722497839914295  1.0000
  N   N55       1.0  0.01153032225045825  0.45279024449434396  0.770838322761707  1.0000
  C   C553      1.0  0.03868575221306797  0.4337741603996631  0.7896868012384043  1.0000
  C   C554      1.0  0.9902949760153464  0.4470044711733708  0.7853778282638222  1.0000
  C   C555      1.0  0.9994171155964473  0.43796629836260065  0.7377787403031641  1.0000
  C   C556      1.0  0.017730176103146335  0.49255164645349037  0.7705705616996803  1.0000
  H   H873      1.0  0.04838039771785701  0.4445173199539207  0.8147234697736637  1.0000
  H   H874      1.0  0.05534910987046459  0.4380103044266394  0.7796176868961483  1.0000
  H   H875      1.0  0.03501051924926381  0.40366123617528604  0.7904867179070467  1.0000
  H   H876      1.0  0.9695976248758194  0.4612073200234255  0.7718281549571331  1.0000
  H   H877      1.0  0.9849788253233512  0.4173039929615334  0.7857891466840411  1.0000
  H   H878      1.0  0.9987191210657748  0.4579094337782093  0.8103223804454722  1.0000
  H   H879      1.0  0.9789240321172549  0.45191118825403476  0.723000959888707  1.0000
  H   H880      1.0  0.9943075923925111  0.4079981740365529  0.736928267945012  1.0000
  H   H881      1.0  0.014823234521159549  0.4419227807538501  0.7260308873190677  1.0000
  H   H882      1.0  0.034299046485942467  0.49794105483062817  0.7605896316042106  1.0000
  H   H883      1.0  0.026282383907442777  0.504871579434553  0.7950575069710595  1.0000
  H   H884      1.0  0.9979229361850331  0.5076979560419245  0.7559778555046807  1.0000
  N   N56       1.0  0.5041196258861182  0.9577368586907075  0.7301448903540743  1.0000
  C   C557      1.0  0.47938560322778745  0.9332359040286976  0.7113306868693157  1.0000
  C   C558      1.0  0.5057820304965455  0.9886828596854886  0.7102701421456872  1.0000
  C   C559      1.0  0.5313236570859013  0.9368717801734124  0.740590486606511  1.0000
  C   C560      1.0  0.5000491515951323  0.972248864988086  0.7584334890457436  1.0000
  H   H885      1.0  0.48192450525921465  0.9211467291394624  0.6900910000341466  1.0000
  H   H886      1.0  0.458647804294798  0.9483827719094045  0.7024117876300368  1.0000
  H   H887      1.0  0.47689061284204426  0.9101439056002528  0.725794468946519  1.0000
  H   H888      1.0  0.5082875397102835  0.9788272455940771  0.6883895573309586  1.0000
  H   H889      1.0  0.48583947022847773  0.00547941561677856  0.702590564885287  1.0000
  H   H890      1.0  0.524466555940145  0.007397786942957785  0.7235987734554563  1.0000
  H   H891      1.0  0.5504649878255522  0.9547513512958272  0.7543909209504452  1.0000
  H   H892      1.0  0.5349488966946314  0.9250409594709144  0.719941147093926  1.0000
  H   H893      1.0  0.5311351799092413  0.9139225381774546  0.7563676489030743  1.0000
  H   H894      1.0  0.5183539413539412  0.9907438457200256  0.7731696445560848  1.0000
  H   H895      1.0  0.4985766782099218  0.949796571758857  0.7740118707245898  1.0000
  H   H896      1.0  0.4799481412418486  0.9885351921397573  0.7515623419385781  1.0000
