data_image0
_chemical_formula_structural       FeS2FeS2FeSFeS3FeS2FeS2FeSFeS3FeS2FeS2FeSFeS3FeS2FeS2FeSFeS3FeS2FeS2FeSFeS3FeS2FeS2FeSFeS3FeS2FeS2FeSFeS3FeS2FeS2FeSFeS3C6H4C6H4C6H4C6H4C6H4C6H4C6H4C6H4C6H4C6H4C6H4C6H4C6H4C6H4C6H4C6H4NC4H12NC4H12NC4H12NC4H12NC4H12NC4H12NC4H12NC4H12NC4H12NC4H12NC4H12NC4H12NC4H12NC4H12NC4H12NC4H12
_chemical_formula_sum              "Fe32 S64 C160 H256 N16"
_cell_length_a       23.49646056596582
_cell_length_b       36.62659140040678
_cell_length_c       22.005148312880856
_cell_angle_alpha    90.48744214508572
_cell_angle_beta     90.63651521055219
_cell_angle_gamma    89.7642335457893

_space_group_name_H-M_alt    "P 1"
_space_group_IT_number       1

loop_
  _space_group_symop_operation_xyz
  'x, y, z'

loop_
  _atom_site_type_symbol
  _atom_site_label
  _atom_site_symmetry_multiplicity
  _atom_site_fract_x
  _atom_site_fract_y
  _atom_site_fract_z
  _atom_site_occupancy
  Fe  Fe1       1.0  0.5211460063223406  0.6123021704535095  0.5794586270923244  1.0000
  S   S1        1.0  0.5918597371198966  0.6448248083692292  0.5387577648720514  1.0000
  S   S2        1.0  0.4272262775389314  0.6210914821139727  0.5681384136742588  1.0000
  Fe  Fe2       1.0  0.6012422059955422  0.5599130322968661  0.6431533766543372  1.0000
  S   S3        1.0  0.67878956592447  0.5871162407217531  0.6072742327228084  1.0000
  S   S4        1.0  0.6030376791302724  0.5129650148790925  0.7078853377955864  1.0000
  Fe  Fe3       1.0  0.6331305862990845  0.6390832423598082  0.6307639295562687  1.0000
  S   S5        1.0  0.6846511438471445  0.6823725293530142  0.6785882665550989  1.0000
  Fe  Fe4       1.0  0.6307870472685124  0.589990811212559  0.518572695301171  1.0000
  S   S6        1.0  0.6730102767174833  0.5723433519873927  0.4310616749157021  1.0000
  S   S7        1.0  0.5588895545704227  0.6115094586184256  0.6732211131254677  1.0000
  S   S8        1.0  0.5568871938169303  0.5577237576690893  0.5527038841382463  1.0000
  Fe  Fe5       1.0  0.26407627617694035  0.7945965711623222  0.5840966098749724  1.0000
  S   S9        1.0  0.19636327776391643  0.7534595697019298  0.6041775571059609  1.0000
  S   S10       1.0  0.34390292134297185  0.7833040102030017  0.5319081849318511  1.0000
  Fe  Fe6       1.0  0.20548975556041543  0.8543164756675999  0.6566077125172639  1.0000
  S   S11       1.0  0.13254326285048856  0.8185693988868222  0.6808073722667258  1.0000
  S   S12       1.0  0.20794661813369072  0.9104841199166358  0.6972044700280128  1.0000
  Fe  Fe7       1.0  0.1998428186633348  0.776805505858486  0.698852754277376  1.0000
  S   S13       1.0  0.19523879171053293  0.7456917854923915  0.7861927952858723  1.0000
  Fe  Fe8       1.0  0.1364976520039176  0.7996842357993889  0.5839078865045074  1.0000
  S   S14       1.0  0.05790540441798986  0.791774483921018  0.5267880144626219  1.0000
  S   S15       1.0  0.27318738263515635  0.8137047650966542  0.68032218927828  1.0000
  S   S16       1.0  0.20379662900830325  0.839510899517145  0.5574187045827412  1.0000
  Fe  Fe9       1.0  0.17685450159108163  0.8470209519608517  0.08629908543490283  1.0000
  S   S17       1.0  0.12200842020321323  0.8970302446298043  0.0900737984849953  1.0000
  S   S18       1.0  0.24128322519979406  0.8495976152801591  0.012149971720204489  1.0000
  Fe  Fe10      1.0  0.11724942692149853  0.812201092562549  0.19294425945880977  1.0000
  S   S19       1.0  0.05726565362951841  0.8594160224560489  0.205079213793341  1.0000
  S   S20       1.0  0.11137599331453774  0.7618753264514931  0.25016704765128805  1.0000
  Fe  Fe11      1.0  0.05059105573425415  0.8580741498830513  0.1032320767239703  1.0000
  S   S21       1.0  0.967874541145286  0.8649107448764655  0.05246508449536403  1.0000
  Fe  Fe12      1.0  0.13518650293091516  0.8933280902176655  0.19066862727175318  1.0000
  S   S22       1.0  0.15792909230575303  0.9439362977970316  0.24342632227903788  1.0000
  S   S23       1.0  0.10437225122131788  0.8078774717413403  0.09203762333799248  1.0000
  S   S24       1.0  0.19609176033974784  0.8461064806695412  0.186485415991633  1.0000
  Fe  Fe13      1.0  0.6915073064805889  0.6763328314879117  0.01730231681950789  1.0000
  S   S25       1.0  0.7654639670914178  0.6453286018405799  0.9793814153410181  1.0000
  S   S26       1.0  0.6170278491156143  0.6888475517928468  0.9555061857570215  1.0000
  Fe  Fe14      1.0  0.7418324846688662  0.677398441527597  0.1453557110709917  1.0000
  S   S27       1.0  0.8199817680722833  0.6466301215590955  0.11750218446364727  1.0000
  S   S28       1.0  0.7300168442326441  0.6961840036276493  0.24219428374155522  1.0000
  Fe  Fe15      1.0  0.8184802752497579  0.6832147313874702  0.036326846868294904  1.0000
  S   S29       1.0  0.9013877522793468  0.702415030915019  0.9987461601802328  1.0000
  Fe  Fe16      1.0  0.7595383409880807  0.6119080662415154  0.06327719005117083  1.0000
  S   S30       1.0  0.7721280208632294  0.5513581182268709  0.05666945600714035  1.0000
  S   S31       1.0  0.7449474294583297  0.7173150030654377  0.06825202819539977  1.0000
  S   S32       1.0  0.6809200531980183  0.6395844435734223  0.09776873864688551  1.0000
  Fe  Fe17      1.0  0.04673493597850187  0.05633449724039671  0.5526595928757307  1.0000
  S   S33       1.0  0.13985382185843043  0.067691745802313  0.5629445924354531  1.0000
  S   S34       1.0  0.010377479837133441  0.0021580406312493978  0.5774145274332627  1.0000
  Fe  Fe18      1.0  0.021812484677399047  0.12869929315577616  0.4933976248593043  1.0000
  S   S35       1.0  0.11296733339199272  0.14651542670491352  0.4973108974900975  1.0000
  S   S36       1.0  0.9554243295856326  0.16680979132530502  0.45598154231560595  1.0000
  Fe  Fe19      1.0  0.13226214685730708  0.08904571399485359  0.4685455323593498  1.0000
  S   S37       1.0  0.19922845960872015  0.0710579124857507  0.40343301267241743  1.0000
  Fe  Fe20      1.0  0.11218246742637805  0.12370208031332383  0.5911602651973298  1.0000
  S   S38       1.0  0.15416437805836902  0.1552200974738465  0.6664616537228201  1.0000
  S   S39       1.0  0.041104568260569296  0.07319825811083198  0.4551229652186592  1.0000
  S   S40       1.0  0.019281354486794466  0.11048034380526767  0.590383813420226  1.0000
  Fe  Fe21      1.0  0.7081620803791738  0.3324929811575729  0.6088080301923438  1.0000
  S   S41       1.0  0.6148389905473736  0.32329313175491  0.5938962812651623  1.0000
  S   S42       1.0  0.7486366078574063  0.38667839280816996  0.5924380563680681  1.0000
  Fe  Fe22      1.0  0.7313626641841053  0.25417305577659677  0.6425638783819941  1.0000
  S   S43       1.0  0.6403470907974528  0.23746427516435212  0.6297879337313784  1.0000
  S   S44       1.0  0.7940811699653162  0.21124992609050855  0.6710995025731669  1.0000
  Fe  Fe23      1.0  0.6426417679419194  0.27211067267337213  0.5467193171159554  1.0000
  S   S45       1.0  0.6013581993786774  0.255867827465469  0.4587064105237577  1.0000
  Fe  Fe24      1.0  0.6209783062791896  0.2897544552326331  0.6785603849827202  1.0000
  S   S46       1.0  0.550930574456872  0.2908607714926014  0.746980150418454  1.0000
  S   S47       1.0  0.7357416879679156  0.28382808150031313  0.5542494861419338  1.0000
  S   S48       1.0  0.7121610554006927  0.30409093987879193  0.6984595933233747  1.0000
  Fe  Fe25      1.0  0.31575240467232724  0.06906784302622175  0.06550691581885237  1.0000
  S   S49       1.0  0.221237192929296  0.07476970359912789  0.07177457637464711  1.0000
  S   S50       1.0  0.3553824641583095  0.01691009198752873  0.097365650819804  1.0000
  Fe  Fe26      1.0  0.3279051498490597  0.13994992919326552  0.9978274439820078  1.0000
  S   S51       1.0  0.23414268546531747  0.15159759500027467  0.9967383023310368  1.0000
  S   S52       1.0  0.39358117442558854  0.17720182435238555  0.960053584234989  1.0000
  Fe  Fe27      1.0  0.23907095062363962  0.1334623136708655  0.09341604923631477  1.0000
  S   S53       1.0  0.19092576016195917  0.16396360341423916  0.16495689166442917  1.0000
  Fe  Fe28      1.0  0.2255713205875436  0.09189015022714839  0.974815381138817  1.0000
  S   S54       1.0  0.16530081826608423  0.06501686538999595  0.9089170061378617  1.0000
  S   S55       1.0  0.3338000829923589  0.12627972790320557  0.09675961528480684  1.0000
  S   S56       1.0  0.3191047831332621  0.08190158570643839  0.9664851204024725  1.0000
  Fe  Fe29      1.0  0.5481793016679716  0.41019036587284274  0.06914837862169326  1.0000
  S   S57       1.0  0.6290469156791564  0.38472602470581563  0.1030563166194364  1.0000
  S   S58       1.0  0.5453544393611129  0.4631619607483909  0.018425364906127006  1.0000
  Fe  Fe30      1.0  0.47621895583076385  0.34759392663560557  0.11478047704010223  1.0000
  S   S59       1.0  0.5514271994553227  0.3173312063582687  0.1532086120242952  1.0000
  S   S60       1.0  0.3892486576911012  0.32252319917599664  0.11577210363627681  1.0000
  Fe  Fe31      1.0  0.5791340274889941  0.3727316349637511  0.18647328063239355  1.0000
  S   S61       1.0  0.6193008402234322  0.3873264510882418  0.2766068186086989  1.0000
  Fe  Fe32      1.0  0.5931263138073071  0.3323920537481977  0.06609381898044608  1.0000
  S   S62       1.0  0.6477987830071366  0.29337903385989306  0.012836784161492254  1.0000
  S   S63       1.0  0.5001539783252045  0.4019307885906116  0.15540791591040623  1.0000
  S   S64       1.0  0.5159885059505164  0.3591622684815905  0.025156377956498277  1.0000
  C   C1        1.0  0.3895417571947016  0.2841557708155303  0.06741846815816332  1.0000
  C   C2        1.0  0.44109334258241684  0.2700840676705682  0.04613535069561481  1.0000
  C   C3        1.0  0.4420165459137115  0.23787408561256332  0.011339988797971046  1.0000
  C   C4        1.0  0.3914724719923134  0.21901350354609259  0.9992839627205907  1.0000
  C   C5        1.0  0.3397949124017632  0.2330810844913345  0.020362634096745325  1.0000
  C   C6        1.0  0.3387387496730455  0.26596335900628043  0.053507758622651114  1.0000
  H   H1        1.0  0.4805643303552005  0.28350142043883675  0.05764614751996411  1.0000
  H   H2        1.0  0.4822034920428058  0.2270086096481195  0.9957245664968873  1.0000
  H   H3        1.0  0.3005059210148529  0.21892404312349947  0.010447565487936572  1.0000
  H   H4        1.0  0.2986104605055938  0.27708778154352215  0.06878739257905471  1.0000
  C   C7        1.0  0.6056332604608201  0.2926167658940487  0.40860411901026217  1.0000
  C   C8        1.0  0.644961957757307  0.3205896461918815  0.41938607177117937  1.0000
  C   C9        1.0  0.6497206251931824  0.3492583194125811  0.37806598322125134  1.0000
  C   C10       1.0  0.613890675870682  0.350711757765336  0.32698431983239196  1.0000
  C   C11       1.0  0.5734484865096717  0.32331775753551456  0.3171888161524707  1.0000
  C   C12       1.0  0.5699661060367633  0.2939429763094444  0.35740399162924896  1.0000
  H   H5        1.0  0.6725274096159097  0.3198825774949047  0.4589051862677051  1.0000
  H   H6        1.0  0.6817229899422687  0.3699733098513971  0.3852542775194737  1.0000
  H   H7        1.0  0.5442366269753713  0.32495648909780017  0.2791827528966787  1.0000
  H   H8        1.0  0.5390123138869142  0.27260400452740297  0.3493663428825  1.0000
  C   C13       1.0  0.576102355855344  0.28394715065726955  0.8211357630459067  1.0000
  C   C14       1.0  0.53953909930721  0.2901781309239553  0.8697766821178848  1.0000
  C   C15       1.0  0.5608433180247012  0.2899676568452434  0.9293409858147694  1.0000
  C   C16       1.0  0.6188819264850071  0.2846352600315131  0.9404549156568108  1.0000
  C   C17       1.0  0.6547050405816112  0.27567275478363573  0.8921744504986312  1.0000
  C   C18       1.0  0.6331283326448327  0.2749323924189937  0.8324734603511704  1.0000
  H   H9        1.0  0.4950740897832676  0.29645839315310135  0.8615447370051663  1.0000
  H   H10       1.0  0.5324108218629452  0.29450586444046717  0.9665972298119107  1.0000
  H   H11       1.0  0.6995594822614989  0.2708103250269718  0.9006545042008334  1.0000
  H   H12       1.0  0.6611322114943519  0.26854478978757473  0.7953589365002934  1.0000
  C   C19       1.0  0.19916287074283523  0.09893613198905798  0.3395962133608862  1.0000
  C   C20       1.0  0.2386282546556242  0.09229354804810688  0.29377491916396503  1.0000
  C   C21       1.0  0.2359371100102448  0.11226825524736649  0.23991443257342188  1.0000
  C   C22       1.0  0.19508874926419284  0.1397735952837509  0.2328248056649182  1.0000
  C   C23       1.0  0.15651488471615482  0.1471312370554149  0.27928324150869926  1.0000
  C   C24       1.0  0.1580872955243351  0.12636446706727247  0.3324602529466414  1.0000
  H   H13       1.0  0.2704512472207754  0.07111662732172074  0.29947111841503155  1.0000
  H   H14       1.0  0.2656298245948432  0.106417138031299  0.20400155653595026  1.0000
  H   H15       1.0  0.12469571123025958  0.16833490382814278  0.2736999244679944  1.0000
  H   H16       1.0  0.12710087444823492  0.13134013826180263  0.3675030178675044  1.0000
  C   C25       1.0  0.15916810402535875  0.12901074763166762  0.7323928640502871  1.0000
  C   C26       1.0  0.19173963098671631  0.14171553387501282  0.7816243244654022  1.0000
  C   C27       1.0  0.19462524391237013  0.12159107249398711  0.8353821621632527  1.0000
  C   C28       1.0  0.16388153937231142  0.08917758155639406  0.8405331095349995  1.0000
  C   C29       1.0  0.1314601425274049  0.07632329837534536  0.7911167963480169  1.0000
  C   C30       1.0  0.12940985216019896  0.09614326928409243  0.7368524484290517  1.0000
  H   H17       1.0  0.21499347117739803  0.16704014621000535  0.7781282806410299  1.0000
  H   H18       1.0  0.2205031586782032  0.1313392078845712  0.8728218050371453  1.0000
  H   H19       1.0  0.10789661112515603  0.05112712830449657  0.7947653203084527  1.0000
  H   H20       1.0  0.1041202183691321  0.08628603723063043  0.6988650895685267  1.0000
  C   C31       1.0  0.9099164589690567  0.17910807290361697  0.5150719721804654  1.0000
  C   C32       1.0  0.8911235905932188  0.15274155487398375  0.5557084678284083  1.0000
  C   C33       1.0  0.8559384985634855  0.16283608559002308  0.604037672668094  1.0000
  C   C34       1.0  0.8387313586517963  0.19919801444734989  0.6111220713913118  1.0000
  C   C35       1.0  0.8576086146872405  0.22561354491077656  0.5705522195327458  1.0000
  C   C36       1.0  0.8928950849428217  0.21552249849563  0.5222446684798042  1.0000
  H   H21       1.0  0.9031357709003286  0.12442642624346265  0.5494615270121304  1.0000
  H   H22       1.0  0.8413320997892874  0.14235138464519517  0.6353576386487471  1.0000
  H   H23       1.0  0.8461749679846395  0.25394862988969585  0.5772237870297093  1.0000
  H   H24       1.0  0.9080830328016032  0.23603002442145155  0.49129204783711083  1.0000
  C   C37       1.0  0.7097536795160888  0.5273705874062651  0.03982910668226136  1.0000
  C   C38       1.0  0.657874314382986  0.5456234463869551  0.03205086690266601  1.0000
  C   C39       1.0  0.6075941415861221  0.5257398729365373  0.023295617766952548  1.0000
  C   C40       1.0  0.6091258845395994  0.4875723954546755  0.023319518888073487  1.0000
  C   C41       1.0  0.6613377364297  0.46941773586720226  0.029121749055464937  1.0000
  C   C42       1.0  0.7115811528010638  0.4892845535440453  0.03725438174244866  1.0000
  H   H25       1.0  0.656156943585675  0.5750023015899635  0.03413129049075958  1.0000
  H   H26       1.0  0.5672838805017345  0.5399408725988334  0.01861552297833402  1.0000
  H   H27       1.0  0.6634598682516804  0.4401053143286426  0.027868227241319096  1.0000
  H   H28       1.0  0.751780068323254  0.4750866057825958  0.04300563085715514  1.0000
  C   C43       1.0  0.30639221492182855  0.9951167216826334  0.14402805384411058  1.0000
  C   C44       1.0  0.29123720906781614  0.9589510999207393  0.13185523767435456  1.0000
  C   C45       1.0  0.24618923588640085  0.9430337817492611  0.16305741214451544  1.0000
  C   C46       1.0  0.21805511144087797  0.9625713812426525  0.20873750701553648  1.0000
  C   C47       1.0  0.23621681712773235  0.9977960997326756  0.22413828624371912  1.0000
  C   C48       1.0  0.2792083451688616  0.014473404531468503  0.19049018008899243  1.0000
  H   H29       1.0  0.3129384910419473  0.9436360569218812  0.09685308053726091  1.0000
  H   H30       1.0  0.23328120413192432  0.9157014678389828  0.15117511141393813  1.0000
  H   H31       1.0  0.21639434193601015  0.01241796458191291  0.26110314656267475  1.0000
  H   H32       1.0  0.29188375230773067  0.04218569995578558  0.20058386662547734  1.0000
  C   C49       1.0  0.9457703024687848  0.8220933706231607  0.025535479347357667  1.0000
  C   C50       1.0  0.9858967604400635  0.7974730856321914  0.0026455003897245533  1.0000
  C   C51       1.0  0.9708903460296264  0.7611140112700846  0.9913885747856073  1.0000
  C   C52       1.0  0.9155619502892133  0.749277538850963  0.0027722848589255555  1.0000
  C   C53       1.0  0.8742187519242227  0.7745044971330644  0.021352981372170676  1.0000
  C   C54       1.0  0.8893205758245734  0.8110155818114901  0.03264956566924715  1.0000
  H   H33       1.0  0.028930110324152603  0.8061906552921098  0.994865590508714  1.0000
  H   H34       1.0  0.00278274686662483  0.7417829962777264  0.9761494611628153  1.0000
  H   H35       1.0  0.831074907688308  0.765777631237829  0.02863843665581478  1.0000
  H   H36       1.0  0.8579541725417638  0.8301277522859689  0.04970518063005436  1.0000
  C   C55       1.0  0.15000709755546104  0.9354988236496193  0.6689716102363223  1.0000
  C   C56       1.0  0.10806592426534523  0.9181610887221223  0.6336803253008414  1.0000
  C   C57       1.0  0.06342891182424948  0.9385552173591418  0.6081029249815608  1.0000
  C   C58       1.0  0.06133606686713944  0.9763858319876383  0.6168222866403896  1.0000
  C   C59       1.0  0.10225178455292427  0.9935533294229676  0.6536861845435721  1.0000
  C   C60       1.0  0.14649224927420357  0.9730893076864224  0.6800047479047816  1.0000
  H   H37       1.0  0.11044518402786353  0.8891601448149533  0.6248918276691039  1.0000
  H   H38       1.0  0.0316769149556313  0.925211710261957  0.5797594097209627  1.0000
  H   H39       1.0  0.09990515515105303  0.022637767008394816  0.6617956028063912  1.0000
  H   H40       1.0  0.17861120535036856  0.9865830010139717  0.7076576536683016  1.0000
  C   C61       1.0  0.07437037749998332  0.7839731847969232  0.45026657911466045  1.0000
  C   C62       1.0  0.07274569703148526  0.7484093152283461  0.4266879103585943  1.0000
  C   C63       1.0  0.08427752763220653  0.7419235113870967  0.36519197481111454  1.0000
  C   C64       1.0  0.09664035611165289  0.7710297364886985  0.32679729825897674  1.0000
  C   C65       1.0  0.09836415784750208  0.8066784000989268  0.3502386227051332  1.0000
  C   C66       1.0  0.08748118952711059  0.8131241364907159  0.41210961622727804  1.0000
  H   H41       1.0  0.06255687364874275  0.725870691129421  0.4560954094435893  1.0000
  H   H42       1.0  0.0832474965958634  0.7143063952431487  0.347326874138381  1.0000
  H   H43       1.0  0.10834169742126276  0.8292571614210621  0.3209344850503334  1.0000
  H   H44       1.0  0.08833187351608562  0.840675361077724  0.43022678929787406  1.0000
  C   C67       1.0  0.20731625224275985  0.7743345306831246  0.849573765178482  1.0000
  C   C68       1.0  0.19239503378650835  0.7630094526541066  0.9079251590209212  1.0000
  C   C69       1.0  0.20176279481095793  0.786154515775047  0.9583832790155566  1.0000
  C   C70       1.0  0.2278999563521471  0.8200535657594803  0.9506314029778519  1.0000
  C   C71       1.0  0.2436720202591045  0.8309599361920155  0.8925594812694522  1.0000
  C   C72       1.0  0.2320485578068961  0.808617420643077  0.8421402538304801  1.0000
  H   H45       1.0  0.1731249601438687  0.7365223759501447  0.9140859445467796  1.0000
  H   H46       1.0  0.19019344979468245  0.7773387992651495  0.003341004013424298  1.0000
  H   H47       1.0  0.26430395868817735  0.856975318065258  0.8863490201428116  1.0000
  H   H48       1.0  0.24297909211703006  0.8180065699808455  0.7977518002223924  1.0000
  C   C73       1.0  0.7116778990321186  0.4214733096921165  0.6299561631451106  1.0000
  C   C74       1.0  0.6630740760122433  0.4134331508481059  0.6632670359495314  1.0000
  C   C75       1.0  0.6305235070158407  0.44177627914859563  0.6883318909393887  1.0000
  C   C76       1.0  0.6468554180994407  0.47805187633742346  0.6806880293277021  1.0000
  C   C77       1.0  0.6961120168190921  0.48609880136398825  0.6484874918368452  1.0000
  C   C78       1.0  0.7286760402158762  0.4577650554907348  0.6233120883322637  1.0000
  H   H49       1.0  0.649779042679879  0.3854491162188413  0.6683895950782507  1.0000
  H   H50       1.0  0.5910966457028214  0.43576901840814264  0.7107982848396  1.0000
  H   H51       1.0  0.7091143230897046  0.5140589262714821  0.6427003265395468  1.0000
  H   H52       1.0  0.7664364463461496  0.46397039363272624  0.5976749721563152  1.0000
  C   C79       1.0  0.6866872409492869  0.6066199849884718  0.37745710136950666  1.0000
  C   C80       1.0  0.7220718794761285  0.5987884168292319  0.32811023445076715  1.0000
  C   C81       1.0  0.7339433852406065  0.6257748568361097  0.28502777970285925  1.0000
  C   C82       1.0  0.7116160684592031  0.6610171688324157  0.29213060559075554  1.0000
  C   C83       1.0  0.6761904577423418  0.6688139661348319  0.34140033999292746  1.0000
  C   C84       1.0  0.6631489326496488  0.6415545059090558  0.3834527413103355  1.0000
  H   H53       1.0  0.7411273770355784  0.5719901311111062  0.3237799499831627  1.0000
  H   H54       1.0  0.7617047477074099  0.6196680923925701  0.24732667091041166  1.0000
  H   H55       1.0  0.6582230590418598  0.6959087135209231  0.34653242022308123  1.0000
  H   H56       1.0  0.6344938683333112  0.6475641628546973  0.4200857102066801  1.0000
  C   C85       1.0  0.6647020978451631  0.6880502357289393  0.7549845420615744  1.0000
  C   C86       1.0  0.6082062053316621  0.6829375115497823  0.772316768882323  1.0000
  C   C87       1.0  0.5933470780600603  0.6851163093990322  0.8338350293798616  1.0000
  C   C88       1.0  0.6349958350357016  0.6921323060533516  0.8783955177781773  1.0000
  C   C89       1.0  0.6911890482923254  0.6985197264849653  0.8609292463021561  1.0000
  C   C90       1.0  0.7059433775971349  0.6966312437194241  0.7992582255059125  1.0000
  H   H57       1.0  0.5757820092008485  0.6777003721361706  0.7382890238338716  1.0000
  H   H58       1.0  0.5498446610789404  0.6803650584928141  0.8471550310952359  1.0000
  H   H59       1.0  0.7234349378914838  0.7044589695036246  0.8950251355089849  1.0000
  H   H60       1.0  0.7496166578704377  0.701016692502304  0.7861335623315654  1.0000
  C   C91       1.0  0.4051971396063858  0.665977835558917  0.5543530867860665  1.0000
  C   C92       1.0  0.3469897916706429  0.6740198317640707  0.554707357472328  1.0000
  C   C93       1.0  0.32807208140780453  0.7100082800980618  0.5475424763399116  1.0000
  C   C94       1.0  0.36721610076330524  0.7380481115095526  0.5390302928438113  1.0000
  C   C95       1.0  0.4253991597041016  0.7298953808887187  0.5363974030414422  1.0000
  C   C96       1.0  0.44447700007767604  0.6938916457047577  0.5447699141092367  1.0000
  H   H61       1.0  0.31648603458470437  0.6523757225778061  0.5613408449024335  1.0000
  H   H62       1.0  0.2831390703708468  0.7157581225934371  0.5476757550178756  1.0000
  H   H63       1.0  0.45582332935321  0.7515242709323128  0.5293933771236972  1.0000
  H   H64       1.0  0.4894334113974999  0.6878669839870178  0.5442584706171569  1.0000
  N   N1        1.0  0.34133415185165433  0.22456199012081535  0.22812216971991361  1.0000
  C   C97       1.0  0.2932433405084451  0.24054922392953992  0.19343742465371783  1.0000
  C   C98       1.0  0.32544317364625536  0.1878220375107822  0.24913144767907291  1.0000
  C   C99       1.0  0.35476547960234395  0.24820854736556153  0.28108600165115827  1.0000
  C   C100      1.0  0.3917858950642935  0.22172381206254288  0.18874606304402408  1.0000
  H   H65       1.0  0.3031459219668318  0.26875946411034746  0.17835595232235235  1.0000
  H   H66       1.0  0.25383478278331123  0.24189017966504456  0.2210046188091368  1.0000
  H   H67       1.0  0.28285763221908927  0.22389941588028917  0.15216746027340644  1.0000
  H   H68       1.0  0.36043118081522935  0.17475526638970806  0.27569083018683416  1.0000
  H   H69       1.0  0.28704826331107913  0.18882906505003394  0.27836635021706035  1.0000
  H   H70       1.0  0.31512770895865905  0.16953569486296916  0.2099909794877708  1.0000
  H   H71       1.0  0.31762211179812105  0.2508786853904197  0.31181145412035516  1.0000
  H   H72       1.0  0.3666231680633854  0.2762317260727094  0.26645182022319314  1.0000
  H   H73       1.0  0.39111904937481734  0.2370997403686832  0.3081295664967518  1.0000
  H   H74       1.0  0.40679686180198393  0.24917764776825213  0.1749544244446095  1.0000
  H   H75       1.0  0.38226359738042914  0.20596631474901272  0.1463021820807009  1.0000
  H   H76       1.0  0.42801143860273044  0.2080018834956734  0.21228808733877402  1.0000
  N   N2        1.0  0.9996041661882972  0.19848903785113772  0.7208007863775416  1.0000
  C   C101      1.0  0.007315558159245672  0.2051894996850285  0.6552355304452059  1.0000
  C   C102      1.0  0.04753402156792297  0.21475718429984098  0.7555344322482561  1.0000
  C   C103      1.0  0.9980289282102697  0.15873189661878515  0.7315795524555314  1.0000
  C   C104      1.0  0.945487516706518  0.21516254868982787  0.7407983602970752  1.0000
  H   H77       1.0  0.9723508535397445  0.19284938006617822  0.6276650810667556  1.0000
  H   H78       1.0  0.047973575906202326  0.19315829604669976  0.6386639492896581  1.0000
  H   H79       1.0  0.008025888799463976  0.2348749560159927  0.6450677201895058  1.0000
  H   H80       1.0  0.043547546439169915  0.20985750018225033  0.805143340184287  1.0000
  H   H81       1.0  0.08902137926064158  0.2027830495969937  0.7413411397063464  1.0000
  H   H82       1.0  0.049994676365131996  0.2447463955110157  0.7484621519953946  1.0000
  H   H83       1.0  0.9622245829187023  0.14557730904226115  0.7061481917583856  1.0000
  H   H84       1.0  0.9929903260552357  0.15252197650588853  0.7806246364059803  1.0000
  H   H85       1.0  0.038016438684231435  0.1452988144458679  0.7164610209241132  1.0000
  H   H86       1.0  0.9084389337244  0.2025765534734241  0.7168514211362847  1.0000
  H   H87       1.0  0.9439904699307089  0.24495101500941363  0.7313015248249423  1.0000
  H   H88       1.0  0.9388756048656247  0.21144311836450153  0.790343553885526  1.0000
  N   N3        1.0  0.07411775060807724  0.048872331508220984  0.18907109120254856  1.0000
  C   C105      1.0  0.10225049553014665  0.022092025082033003  0.1485459761501935  1.0000
  C   C106      1.0  0.09966952317776889  0.04669962391793049  0.2505920287940365  1.0000
  C   C107      1.0  0.012731647354219833  0.040599226933326286  0.19221669234397493  1.0000
  C   C108      1.0  0.08200240379824031  0.08607398771132434  0.16504492429641515  1.0000
  H   H89       1.0  0.08569337831391954  0.02389263933230733  0.10108776404888757  1.0000
  H   H90       1.0  0.09576088222508106  0.9935984680319839  0.164255921637619  1.0000
  H   H91       1.0  0.14902822119534953  0.026596461524462146  0.1472901900396377  1.0000
  H   H92       1.0  0.0784040183731034  0.06559439630929433  0.28320520404531535  1.0000
  H   H93       1.0  0.09743852148564303  0.01851939808547008  0.26907167403678917  1.0000
  H   H94       1.0  0.1452132047703052  0.054475772956772764  0.2499412437112874  1.0000
  H   H95       1.0  0.9902237397182038  0.060475659803603865  0.22216866556501436  1.0000
  H   H96       1.0  0.00557613864992379  0.012792498132212388  0.21076310363597706  1.0000
  H   H97       1.0  0.9921641482425158  0.04163697988248601  0.14643951435518132  1.0000
  H   H98       1.0  0.06225641040485863  0.08916301280054466  0.11917161351546984  1.0000
  H   H99       1.0  0.12794132497252075  0.09266310248706928  0.16062920237369993  1.0000
  H   H100      1.0  0.06333450264720497  0.10723856364996065  0.19560605681201967  1.0000
  N   N4        1.0  0.2585211926359331  0.9624113135305042  0.9375526564386902  1.0000
  C   C109      1.0  0.216656008040954  0.9374246396109853  0.9090164513582091  1.0000
  C   C110      1.0  0.30795145865576673  0.941215116198346  0.9601898588916774  1.0000
  C   C111      1.0  0.23175418047144325  0.9819480364839226  0.9889471945136755  1.0000
  C   C112      1.0  0.27767830900082224  0.9890859095958685  0.8921497488961547  1.0000
  H   H101      1.0  0.1785831963487188  0.9526757975981849  0.8922450059811436  1.0000
  H   H102      1.0  0.20215785122419003  0.9165531677338693  0.9419438097484373  1.0000
  H   H103      1.0  0.23521435788039535  0.9226796914349844  0.8693710527570117  1.0000
  H   H104      1.0  0.32977235777535363  0.9264433699688  0.9226506671104929  1.0000
  H   H105      1.0  0.33976561250518855  0.9592386956536282  0.9833785304428505  1.0000
  H   H106      1.0  0.294788654935166  0.9203674973665513  0.9937593090805705  1.0000
  H   H107      1.0  0.26220018244105564  0.001158298844205466  0.011281408204588894  1.0000
  H   H108      1.0  0.2171483203212208  0.9626287005486684  0.024269965120657266  1.0000
  H   H109      1.0  0.19432229211181662  0.9983235662340104  0.9736678744234103  1.0000
  H   H110      1.0  0.24158365667944293  0.006091943416407424  0.8750016315554564  1.0000
  H   H111      1.0  0.29709809175928625  0.9752758625411362  0.8521332164273444  1.0000
  H   H112      1.0  0.3099516563730402  0.00800166179873794  0.9119739805462613  1.0000
  N   N5        1.0  0.7489127742264048  0.2020964279914884  0.4058120372148621  1.0000
  C   C113      1.0  0.7330388471808722  0.1902043275501508  0.46739423946847625  1.0000
  C   C114      1.0  0.7618980378500392  0.24155301498738305  0.40714931270173654  1.0000
  C   C115      1.0  0.7010667764155424  0.19520815333218075  0.36308392844430665  1.0000
  C   C116      1.0  0.7996233994625949  0.18148493068580926  0.3855973024198977  1.0000
  H   H113      1.0  0.6951446169960197  0.20542972907744222  0.48424268081492167  1.0000
  H   H114      1.0  0.7682011834967444  0.1948786239470353  0.5007606859661405  1.0000
  H   H115      1.0  0.7226924404603484  0.16060929461829512  0.4682474268385143  1.0000
  H   H116      1.0  0.7744575366665607  0.2515116429213898  0.3616067363176035  1.0000
  H   H117      1.0  0.724233703814986  0.2578749696382244  0.4215199006498428  1.0000
  H   H118      1.0  0.797317046108151  0.2478170388704139  0.4396102434918871  1.0000
  H   H119      1.0  0.6620578536831293  0.21031153234796987  0.37710063228214874  1.0000
  H   H120      1.0  0.6900564869007397  0.16570758696195353  0.36091890914040275  1.0000
  H   H121      1.0  0.7113098936877291  0.20421096586574244  0.31628554848079043  1.0000
  H   H122      1.0  0.8369072819889511  0.18677877943448828  0.41589693319821197  1.0000
  H   H123      1.0  0.8122767816809686  0.18928610112053107  0.338904101191813  1.0000
  H   H124      1.0  0.7920802478173015  0.15151212192140204  0.3857363540681242  1.0000
  N   N6        1.0  0.9376766510373873  0.7390745929630566  0.19538116558384916  1.0000
  C   C117      1.0  0.8768266145621884  0.735337403338547  0.17862420463449477  1.0000
  C   C118      1.0  0.9705664318181842  0.7089841284297577  0.1672405215666396  1.0000
  C   C119      1.0  0.9442499456580911  0.7376685584257187  0.26217756987380597  1.0000
  C   C120      1.0  0.9593493172588888  0.7743372189120667  0.1734061319965714  1.0000
  H   H125      1.0  0.8509601788816401  0.758556416472727  0.19626492148246322  1.0000
  H   H126      1.0  0.8583240829730492  0.709857793706085  0.19712330221776364  1.0000
  H   H127      1.0  0.8707203045119908  0.7343314025008206  0.12843336796077368  1.0000
  H   H128      1.0  0.016731536050252238  0.7110216483097158  0.17900129210543006  1.0000
  H   H129      1.0  0.9551678407428772  0.6818501066483407  0.18217846788640746  1.0000
  H   H130      1.0  0.9667741697878173  0.7094689324165555  0.11667049644572873  1.0000
  H   H131      1.0  0.9897433667781687  0.7403104737881359  0.27616008941831877  1.0000
  H   H132      1.0  0.9283607585974184  0.7114069146159301  0.28039100138169637  1.0000
  H   H133      1.0  0.9203696536889024  0.760250630123454  0.2846483686127731  1.0000
  H   H134      1.0  0.9344849494593501  0.7978553897842336  0.19156868162712326  1.0000
  H   H135      1.0  0.9571312792547992  0.7756184593721019  0.12315090658658776  1.0000
  H   H136      1.0  0.004704767658965769  0.7784236614516669  0.18671590697021415  1.0000
  N   N7        1.0  0.596003833623732  0.40137328445565107  0.865292913213433  1.0000
  C   C121      1.0  0.6034999907554142  0.4409129464919712  0.8552776057863918  1.0000
  C   C122      1.0  0.6179706593984754  0.3805434141340309  0.8126325563576609  1.0000
  C   C123      1.0  0.5348344837244893  0.39357993925045764  0.8730311879609949  1.0000
  C   C124      1.0  0.6276682979503737  0.390455281905183  0.9206704243794529  1.0000
  H   H137      1.0  0.5788939068621666  0.4503381031324944  0.814822810600329  1.0000
  H   H138      1.0  0.6489815156674752  0.44776252633972147  0.8481143591840743  1.0000
  H   H139      1.0  0.588366080979256  0.4571998081934147  0.894934143975923  1.0000
  H   H140      1.0  0.6621470660121773  0.3886718650640052  0.8012016501920353  1.0000
  H   H141      1.0  0.6191250236883893  0.350863302074101  0.8218883297038834  1.0000
  H   H142      1.0  0.5906142135972955  0.3840480584180197  0.7715786743633828  1.0000
  H   H143      1.0  0.5168962590814291  0.4092918742482638  0.912047801279141  1.0000
  H   H144      1.0  0.527606011817972  0.36415705524974473  0.8818821566227527  1.0000
  H   H145      1.0  0.5095697385611297  0.40086046570656814  0.8317887772985197  1.0000
  H   H146      1.0  0.673759887949689  0.39689227713536845  0.9175265942699455  1.0000
  H   H147      1.0  0.6240844390685457  0.3606280062125246  0.9289565776913037  1.0000
  H   H148      1.0  0.6105769154725643  0.40445733746391044  0.9615177851495963  1.0000
  N   N8        1.0  0.6876158543680239  0.5711639270154485  0.8474222055067347  1.0000
  C   C125      1.0  0.7459541360433438  0.5659831571801974  0.8718421200210306  1.0000
  C   C126      1.0  0.6556699591191532  0.5366698345117108  0.8520977860138098  1.0000
  C   C127      1.0  0.6902495234387779  0.5822615296026983  0.7830639326762976  1.0000
  C   C128      1.0  0.6584550907681375  0.5999579378490081  0.8827316371597247  1.0000
  H   H149      1.0  0.771465343231939  0.5914291596989494  0.8682373423109294  1.0000
  H   H150      1.0  0.7689757365795515  0.5439730852914823  0.8469695156288608  1.0000
  H   H151      1.0  0.7455428629630712  0.558525171029541  0.920847358219196  1.0000
  H   H152      1.0  0.6109160710334414  0.5400453143181443  0.8357486479225927  1.0000
  H   H153      1.0  0.675348401275403  0.5147415830379295  0.8239310795120073  1.0000
  H   H154      1.0  0.6542951382927799  0.5270441984327229  0.8998974543291266  1.0000
  H   H155      1.0  0.7119636890936053  0.561224899051137  0.7547020028260236  1.0000
  H   H156      1.0  0.7133089525320062  0.60858101076608  0.7779754672887385  1.0000
  H   H157      1.0  0.6468328820847512  0.5861626873752446  0.7634360953414928  1.0000
  H   H158      1.0  0.6539213577069771  0.5924357268483903  0.9311483575913556  1.0000
  H   H159      1.0  0.6151013745132546  0.6058590112763171  0.8642962040064419  1.0000
  H   H160      1.0  0.6828520124093725  0.6257596146259308  0.8819873459911722  1.0000
  N   N9        1.0  0.49032681936898753  0.18403347157089137  0.8083423065052056  1.0000
  C   C129      1.0  0.5260506446557152  0.1863829618752519  0.7536167286091693  1.0000
  C   C130      1.0  0.448091830664812  0.2140775295789009  0.808035097576826  1.0000
  C   C131      1.0  0.526853941619497  0.18698504291801404  0.8633228871570591  1.0000
  C   C132      1.0  0.46024098352929116  0.1486556284631294  0.8083756281946463  1.0000
  H   H161      1.0  0.49980137286832144  0.1853075085351164  0.7112269177042864  1.0000
  H   H162      1.0  0.5577586872352295  0.16377155241732463  0.7516924971205249  1.0000
  H   H163      1.0  0.5502421289697219  0.21245979189154768  0.7529578486901968  1.0000
  H   H164      1.0  0.4221320877987797  0.21424097393021638  0.8500879664223763  1.0000
  H   H165      1.0  0.4690575833972554  0.24110727765862303  0.8051449732800707  1.0000
  H   H166      1.0  0.41828570351242933  0.21183123831566966  0.76856764159616  1.0000
  H   H167      1.0  0.5013552184817768  0.18544079678597722  0.9055110613387806  1.0000
  H   H168      1.0  0.5500588378335647  0.2133522115675147  0.86503463891183  1.0000
  H   H169      1.0  0.5591542000798955  0.16473896313777273  0.8651270094204014  1.0000
  H   H170      1.0  0.43251798100816313  0.14625665286362713  0.8488909509878533  1.0000
  H   H171      1.0  0.4906377772784543  0.12530279900182972  0.8093752290158831  1.0000
  H   H172      1.0  0.4323977393788154  0.14542708394982393  0.7674471921256535  1.0000
  N   N10       1.0  0.1768951755579209  0.9633020180629983  0.45558239288250824  1.0000
  C   C133      1.0  0.21640381159605004  0.9655840856788386  0.40393502482900323  1.0000
  C   C134      1.0  0.12176994372079086  0.9801984765742724  0.43867670006372944  1.0000
  C   C135      1.0  0.201511398670992  0.9828267157317568  0.5086673703692554  1.0000
  C   C136      1.0  0.1678686105328624  0.92458826532177  0.4710656006898875  1.0000
  H   H173      1.0  0.2588900243557828  0.9539451463335396  0.415562880146516  1.0000
  H   H174      1.0  0.2229889928523887  0.9943867903477582  0.3898844535374441  1.0000
  H   H175      1.0  0.19977210159461323  0.9505034771189184  0.3634928482413153  1.0000
  H   H176      1.0  0.09086443271745548  0.9789370423882121  0.47669666948534256  1.0000
  H   H177      1.0  0.12702126959503213  0.009489175968707686  0.4271453804065298  1.0000
  H   H178      1.0  0.10221093081045063  0.9663355459514278  0.3984209959403051  1.0000
  H   H179      1.0  0.1719505806651871  0.9827349279763732  0.5478325113720284  1.0000
  H   H180      1.0  0.2105961988190801  0.01185834453863932  0.49773411748379914  1.0000
  H   H181      1.0  0.24214811954069448  0.9701027505635134  0.5241953213676454  1.0000
  H   H182      1.0  0.13801602765842946  0.9219336026446396  0.5096397475607344  1.0000
  H   H183      1.0  0.20850122832143692  0.9110883882971232  0.4846548337298027  1.0000
  H   H184      1.0  0.14945924233238284  0.9090236217467961  0.43191313763006395  1.0000
  N   N11       1.0  0.6529696041462456  0.5041862699895501  0.22855159760748525  1.0000
  C   C137      1.0  0.6221734227496077  0.47957355484341985  0.18604744609993146  1.0000
  C   C138      1.0  0.688060087600409  0.4821739715690356  0.2708262943793523  1.0000
  C   C139      1.0  0.6115463155007087  0.5262432973193889  0.2633519333754943  1.0000
  C   C140      1.0  0.690159990090264  0.5287063192346991  0.19387936988604262  1.0000
  H   H185      1.0  0.6522445936145489  0.46274308754662763  0.15878468506002372  1.0000
  H   H186      1.0  0.5948542819397304  0.49511356479166585  0.15356017457954735  1.0000
  H   H187      1.0  0.5942409987610654  0.4602606483894213  0.21058795984369458  1.0000
  H   H188      1.0  0.7199052879182499  0.4653409089109155  0.24584328441030354  1.0000
  H   H189      1.0  0.71160795075458  0.49980950387226686  0.3039594793301489  1.0000
  H   H190      1.0  0.6614338512433745  0.4628677022867824  0.2968869550204982  1.0000
  H   H191      1.0  0.581959410283353  0.5085972922418112  0.2889676581533728  1.0000
  H   H192      1.0  0.5852796540382511  0.5437565450528262  0.23272693043356102  1.0000
  H   H193      1.0  0.6332925576962095  0.5446813979491852  0.2967310020031418  1.0000
  H   H194      1.0  0.7139181079326486  0.547849106478813  0.22415845926616437  1.0000
  H   H195      1.0  0.6652088256124339  0.5456223852070556  0.1612386159162043  1.0000
  H   H196      1.0  0.7222620594100905  0.5130533082329175  0.1673009354472107  1.0000
  N   N12       1.0  0.6010920266452167  0.44483361581473  0.4741197059791614  1.0000
  C   C141      1.0  0.5790129329094482  0.4459220234334707  0.5366953326189144  1.0000
  C   C142      1.0  0.6602097728675524  0.43086980203091907  0.4749779133219585  1.0000
  C   C143      1.0  0.6001959412608819  0.48209399571631323  0.4487848901157401  1.0000
  C   C144      1.0  0.5650870829436303  0.4204916471294703  0.43619748705999584  1.0000
  H   H197      1.0  0.6039422090724021  0.4651549847691451  0.5657025664767298  1.0000
  H   H198      1.0  0.5813561717676183  0.4185434027504578  0.5582991124873687  1.0000
  H   H199      1.0  0.5339050320899856  0.45527614431480573  0.5377901709836681  1.0000
  H   H200      1.0  0.6783789213643158  0.4298587785050673  0.4285556367485424  1.0000
  H   H201      1.0  0.6885698448893979  0.44842447168340194  0.5034610474717942  1.0000
  H   H202      1.0  0.6627278438601238  0.4027718084246379  0.4939795650959551  1.0000
  H   H203      1.0  0.5564040703923252  0.49381544207366446  0.4482257186395256  1.0000
  H   H204      1.0  0.6163755765510367  0.48239257757750537  0.40153564182026236  1.0000
  H   H205      1.0  0.6275831670356652  0.500975321359761  0.4761662093706195  1.0000
  H   H206      1.0  0.5799616128747728  0.41948253991813755  0.38840850060868115  1.0000
  H   H207      1.0  0.5199412608750335  0.4297761397510776  0.4352572825889194  1.0000
  H   H208      1.0  0.5659159710647548  0.3919481897483659  0.45342717787501163  1.0000
  N   N13       1.0  0.05674565140305199  0.8544353069994465  0.84913967639112  1.0000
  C   C145      1.0  0.018769141562329672  0.8589818559061627  0.7956934439248047  1.0000
  C   C146      1.0  0.06627550528317738  0.8151013415255263  0.8602573206610311  1.0000
  C   C147      1.0  0.03005386467551907  0.8713740932198091  0.9030769957232976  1.0000
  C   C148      1.0  0.11187012962653742  0.8722979537475014  0.837692970150178  1.0000
  H   H209      1.0  0.011110135800172838  0.888358947478122  0.7856024453908271  1.0000
  H   H210      1.0  0.976644639599244  0.8459949676064921  0.8030010784437818  1.0000
  H   H211      1.0  0.03735032902543933  0.8462970198190412  0.7542578922289808  1.0000
  H   H212      1.0  0.09440296026320416  0.8107404008818189  0.9005985584268726  1.0000
  H   H213      1.0  0.025575100711761056  0.8006339403305149  0.8688470964731231  1.0000
  H   H214      1.0  0.08698885285785685  0.8013775297750816  0.8208017146731462  1.0000
  H   H215      1.0  0.057037415140874126  0.8680175174114826  0.9446457818395704  1.0000
  H   H216      1.0  0.9880686289393372  0.8587938537589114  0.9128446394325356  1.0000
  H   H217      1.0  0.022636029388857892  0.9011295203660239  0.8967632698934433  1.0000
  H   H218      1.0  0.14090276927104362  0.8699701435819162  0.8777398982239936  1.0000
  H   H219      1.0  0.10628789270393435  0.9017956895232484  0.8272310251770936  1.0000
  H   H220      1.0  0.13403407277144908  0.8596145656290374  0.7982895825176026  1.0000
  N   N14       1.0  0.3636486379805122  0.7128823494767066  0.7463774307554059  1.0000
  C   C149      1.0  0.3962216534269083  0.6822102862382188  0.7730518896743538  1.0000
  C   C150      1.0  0.39926088493279616  0.731685716467028  0.7014759991991647  1.0000
  C   C151      1.0  0.34729199432341257  0.738899358271836  0.7949429051645622  1.0000
  C   C152      1.0  0.31182346929738675  0.6986608852525664  0.7158725369113311  1.0000
  H   H221      1.0  0.4357711417649619  0.6919261755675099  0.7963119937271261  1.0000
  H   H222      1.0  0.4091309561086676  0.6620495719754089  0.7374470755513712  1.0000
  H   H223      1.0  0.37056647766448425  0.6673807433095948  0.8071197584588214  1.0000
  H   H224      1.0  0.3755442396959233  0.7542859015739488  0.6787737088680421  1.0000
  H   H225      1.0  0.4381327939391801  0.7435569104028653  0.7230501072052576  1.0000
  H   H226      1.0  0.4134695962622792  0.7124902509158615  0.6652233488006989  1.0000
  H   H227      1.0  0.32305283059820905  0.7624897895615909  0.7761860105156939  1.0000
  H   H228      1.0  0.38518935962778095  0.7499010549577708  0.819612559893756  1.0000
  H   H229      1.0  0.31930215699415604  0.7258148627102982  0.828968279596302  1.0000
  H   H230      1.0  0.28701846421099647  0.7209542823542684  0.6938176936709193  1.0000
  H   H231      1.0  0.2828856318007663  0.6854033933766989  0.7487596116465571  1.0000
  H   H232      1.0  0.32242882662373834  0.6781420344629986  0.6801230559637637  1.0000
  N   N15       1.0  0.2714109169942852  0.7619134395110914  0.3623370712401899  1.0000
  C   C153      1.0  0.24093300655486397  0.7705545749531896  0.419103670417785  1.0000
  C   C154      1.0  0.25042963495076564  0.7268793715220172  0.3370770296762258  1.0000
  C   C155      1.0  0.33309615354990035  0.7589243108191043  0.3754854649436767  1.0000
  C   C156      1.0  0.2611788399813597  0.7912818852973252  0.31778585621489924  1.0000
  H   H233      1.0  0.2485274281296523  0.7493200505646098  0.4541587534878752  1.0000
  H   H234      1.0  0.19426747111886922  0.7723599594601291  0.4113031844720106  1.0000
  H   H235      1.0  0.25507062031424227  0.797090362615213  0.43900516594390127  1.0000
  H   H236      1.0  0.2040521895199813  0.7282730318327041  0.32631614490321964  1.0000
  H   H237      1.0  0.27250496881082964  0.7194696682151953  0.29418528846965925  1.0000
  H   H238      1.0  0.2571111349374696  0.7041766717554772  0.36976258027340203  1.0000
  H   H239      1.0  0.3576759939215841  0.7528392490967613  0.333651237956437  1.0000
  H   H240      1.0  0.3423386982858429  0.7368410839544929  0.40871530419058744  1.0000
  H   H241      1.0  0.3501090277937327  0.7846918743370559  0.3957852061869597  1.0000
  H   H242      1.0  0.2150267359595688  0.7943340504635622  0.30704391011400206  1.0000
  H   H243      1.0  0.28307941760556365  0.7855384173316486  0.27410620510848593  1.0000
  H   H244      1.0  0.2765999311453117  0.8181127923674861  0.33529874663675924  1.0000
  N   N16       1.0  0.7635573394535338  0.6985547482189124  0.5126624324125121  1.0000
  C   C157      1.0  0.7914215616216355  0.703722613448735  0.45344252653065764  1.0000
  C   C158      1.0  0.7969905530290249  0.7170895906960116  0.561110510417294  1.0000
  C   C159      1.0  0.7602511028722884  0.6591207259774059  0.5259049448495119  1.0000
  C   C160      1.0  0.7055077901066811  0.7142681131257841  0.5103910202865583  1.0000
  H   H245      1.0  0.7678276026082748  0.6894667403201016  0.41609152146255535  1.0000
  H   H246      1.0  0.835633016676461  0.6926892066722663  0.4538982360089083  1.0000
  H   H247      1.0  0.7936085146321872  0.7331342787420693  0.44135056723434474  1.0000
  H   H248      1.0  0.7767757492959356  0.7138623570274584  0.6063763186641975  1.0000
  H   H249      1.0  0.8409069212919746  0.7057315736184177  0.5647126217651748  1.0000
  H   H250      1.0  0.8005659667257001  0.7469072575444229  0.5526251074096251  1.0000
  H   H251      1.0  0.8031702503993485  0.6461852772194504  0.5270517390725874  1.0000
  H   H252      1.0  0.7342747283113492  0.6442549605786635  0.49112362537106397  1.0000
  H   H253      1.0  0.7404856622383268  0.6543998430533665  0.570841875724185  1.0000
  H   H254      1.0  0.683152696242041  0.7105793182500907  0.5543160819726044  1.0000
  H   H255      1.0  0.6790784233443408  0.7010993011692614  0.4742045744190549  1.0000
  H   H256      1.0  0.7063505436371501  0.7440713157150878  0.5010543599717997  1.0000
