data_image0
_chemical_formula_structural       FeS2FeSCFeSFeS4HSHFeSCFeS2FeS2FeSFeS3C3SHCH3C6H4C6H4C9H4C6H2FeH3CH2NC4H16NC4H16SH3CH4CHC2HC2HCH3NC3H2FeNCH4C2H3NH2C2H6S2CSHSHCHCH2CH2NH3FeS2H2FeSH2SCH3FeHFeNSH2CS2FeS2FeS2FeCFeS3C6H4C5H4C6H4C2HC3H4CH2C3H4CHCHNCH3NCH7SH2SCHCHC4H2Fe2HCNHC3H3CHCSH2NH2CFeCH2CSHSH4CH5C2HCH6CSFeS2FeS2FeSFeS3H2SHFeS2FeS2FeHFeNS2H4SC2H2C6H4C3H5C6H4C6H2CHC6H3NC4H13CH3CSH3CFeC2NC3H4C2H7SHSH6CSHNCH2NHC2FeCH2CH9CH3C2H4CH2SC3H2Fe2SFeHSC2H2CS2FeS2FeS2FeSFeS3C3HNHCS2HNHC6H4C6H4C6H3C6H5CH4FeHCH3CH2FeH4CNH3CH3SCH3NCH3CFeC3HFeHSHSH9SFeSFeNSCSFeCHCHCHC2HSH2C2HCNH2CHCHSHCHCH3CH8CHCH2CHCH5CH6CH2CHNCNS2HSHFeS2FeS2FeHFeS3FeSHFeS2FeSFeS3H4SHC5H3FeC6H4C6H4C6H4C6H10CNC3HCH6CHFeC2NC4H13SH2C3HSHSH3CHC2HCHFeH7CHSNCH4FeH2CSHS2CHC2HC2HCH4NH4CHC2H2C2HCHNCSHCFeNH3SCH4FeHCH3SHCNSFeS2FeSHFeSFeS3FeS2FeSHFeSFeS4H2C3H2CH2CHC6H2CSC6H4C7H3C6H14CH2SH9CHNC4H12CNCHC2FeC2HCH3N2HCH4CH2CSH3SCH3FeH3CH4CHCFeHC4SFeH3CH2NHSHCH2CH3CH5FeHSH4FeSHFeS2FeS2FeSFeS3FeS2FeS2FeSFeS4CH3C7H4C6H4NCH4CH3C5H3SC6H4FeHCHSHNC2H3CH2SHC3H3NC4H13CHCH2CH10NC4H12C2SHC2HCH2CHNH2CH2C2H5C2SCHCH2C2HCHC2SHNC2SFeSHFe2CSCSHNCH2C2S2H5CHCH3SH2FeHCH3FeHSHCFeS2FeS2FeSFeS3FeS2FeS2FeSFeS3H2NHC8H4C6H9C3HCHC4H3C6H6NSC2HC2HC3H17CH5CH4SNC5SCHCHNHCHSH3SH4CNC5H7C3FeS2FeS2FeSFeHS2FeS2FeS2FeCFeS4FeCSHCS3CHC3HCH3FeCFeHC6H4C6H7C7H5C2H2NH2NC4H10NC4H12NC2HC2H3CH5C2HFeH4C2H4CH2CNHSCH2S2H5SCH2CHCHSCHNHNHSHCSNFeHCH6CFeH2CHFeH2NSCH3CHC2SCSH3CSH4FeS2FeS2FeSFeS3FeS2FeS2FeSFeHS2FeH2FeS2HCSH2C5H4C6H4C6H4C6HCH6CH3NC3H4CH4SH2NC4FeSH7SH2NC2H2NHCFeH2CSCHCH2C2HSH3CH11CH5CHCNHCH2CFeSH2C2H3CSCH3C2H4SFeCSFeSFeH2SH3C3H3CHCH6C2NHCH2C2H2NH2C2FeH4SFeS2FeS2FeSFeS3FeS2FeS2FeSFeS3HC3HC2HNCHC7H3C6H4C6H4C6H6C3HNC4H12NC4H11CSH6CH2C2H2CSCNH2C2H3FeHCH11CH4SHCSFeSH4N2CS3HSHCFe2HCH3CH4SH2CFeH2CFeS2FeS2FeSFeS3FeSNFeS2FeSFeS4HCH3SC2H3CHCHC6H4C6H4C6H4C6H5CH3C2H4CHCHC2H7CH5C2H3NHCHCHCH4FeNCHNC2H2CSHCH4FeCH3CHNH2S2H2SCH2CH2CHCHCH4CH4C3HNFeH3NH2C3FeSCSCSH5SHCFeH3C2H3CHCH6CH3CHCH8SCHSH3SHSCHCFeSFeH2FeS2FeS2FeSFeS3C6H4CHC3H3C6H4CHC3HC2H2CNCH3CHSH6SC2HC2HCNCHSHNC3H9NH2C3HCSH4CHCH2CH2Fe2C2H3CH3CHFeCH2SH2NSH2SFeHSFeS2FeS2FeSFeS5CFeCSFeS2H2C2S3C6H5NCHC6H4C6H4C6H4C2H2C4H6C2H3NC4H12NC4FeH12C2FeH6C2HSFeH4CH5NH2CH3C3H5CHSCH2CSHCSCFeSH2FeSHFeS2FeSFeS4HCHC2HFeHNH2C5H4C2H3CH2C7H4CH2CHCNSH2C6H4C2SHCH3CHC2H3SHNHCH2SFeH5S2C2H2CHCHFeHSNH3SH3C2H3SH2CSH3FeS2FeS2FeSFeS3FeS2CFeS2FeCSFeCFeHS2HCHC7SH2C6H4C6H4C6H4CH4C5H3NC4H12NH4CHCH2CHCH3CH4CH2SNH3CH2NHCSH5C3HSCHFeHSFeCH4CHCH5CHNH3CSH3C3H4CNH2
_chemical_formula_sum              "Fe192 S384 C960 H1536 N96"
_cell_length_a       52.8008
_cell_length_b       35.9711
_cell_length_c       102.289
_cell_angle_alpha    88.7145
_cell_angle_beta     97.0296
_cell_angle_gamma    88.0371

_space_group_name_H-M_alt    "P 1"
_space_group_IT_number       1

loop_
  _space_group_symop_operation_xyz
  'x, y, z'

loop_
  _atom_site_type_symbol
  _atom_site_label
  _atom_site_symmetry_multiplicity
  _atom_site_fract_x
  _atom_site_fract_y
  _atom_site_fract_z
  _atom_site_occupancy
  Fe  Fe1       1.0  0.29941  0.42833  0.17056  1.0000
  S   S1        1.0  0.25651  0.43483  0.16728  1.0000
  S   S2        1.0  0.02596  0.41240  0.23507  1.0000
  Fe  Fe2       1.0  0.29764  0.34158  0.17193  1.0000
  S   S3        1.0  0.25472  0.34221  0.16911  1.0000
  C   C1        1.0  0.02759  0.46418  0.20494  1.0000
  Fe  Fe3       1.0  0.25760  0.38645  0.15348  1.0000
  S   S4        1.0  0.23703  0.38877  0.13248  1.0000
  Fe  Fe4       1.0  0.25722  0.39003  0.18310  1.0000
  S   S5        1.0  0.24030  0.39332  0.20240  1.0000
  S   S6        1.0  0.30051  0.38357  0.15557  1.0000
  S   S7        1.0  0.30011  0.38573  0.18703  1.0000
  S   S8        1.0  0.12922  0.45477  0.21084  1.0000
  H   H1        1.0  0.01643  0.48916  0.20057  1.0000
  S   S9        1.0  0.17930  0.48554  0.00800  1.0000
  H   H2        1.0  0.25434  0.46910  0.21768  1.0000
  Fe  Fe5       1.0  0.23514  0.04231  0.00176  1.0000
  S   S10       1.0  0.23530  0.07994  0.01946  1.0000
  C   C2        1.0  0.32409  0.25332  0.18461  1.0000
  Fe  Fe6       1.0  0.16781  0.26560  0.07661  1.0000
  S   S11       1.0  0.15136  0.31952  0.06724  1.0000
  S   S12       1.0  0.18556  0.25922  0.09809  1.0000
  Fe  Fe7       1.0  0.14910  0.22102  0.05192  1.0000
  S   S13       1.0  0.13104  0.27202  0.04100  1.0000
  S   S14       1.0  0.14259  0.16721  0.04101  1.0000
  Fe  Fe8       1.0  0.16713  0.29963  0.04900  1.0000
  S   S15       1.0  0.19436  0.32647  0.03646  1.0000
  Fe  Fe9       1.0  0.11676  0.28664  0.06015  1.0000
  S   S16       1.0  0.07721  0.30433  0.06500  1.0000
  S   S17       1.0  0.18596  0.24742  0.05888  1.0000
  S   S18       1.0  0.13240  0.23381  0.07057  1.0000
  C   C3        1.0  0.04810  0.28899  0.05672  1.0000
  C   C4        1.0  0.04618  0.27728  0.04370  1.0000
  C   C5        1.0  0.02265  0.26561  0.03740  1.0000
  S   S19       1.0  0.32726  0.16040  0.21657  1.0000
  H   H3        1.0  0.24270  0.22719  0.02613  1.0000
  C   C6        1.0  0.02622  0.28910  0.06331  1.0000
  H   H4        1.0  0.06273  0.27777  0.03843  1.0000
  H   H5        1.0  0.30460  0.20777  0.14039  1.0000
  H   H6        1.0  0.02745  0.29832  0.07336  1.0000
  C   C7        1.0  0.20887  0.10208  0.02557  1.0000
  C   C8        1.0  0.18377  0.09876  0.01963  1.0000
  C   C9        1.0  0.16353  0.11836  0.02457  1.0000
  C   C10       1.0  0.16827  0.14176  0.03536  1.0000
  C   C11       1.0  0.19332  0.14487  0.04134  1.0000
  C   C12       1.0  0.21348  0.12502  0.03650  1.0000
  H   H7        1.0  0.17998  0.08119  0.01121  1.0000
  H   H8        1.0  0.14419  0.11564  0.01991  1.0000
  H   H9        1.0  0.19717  0.16229  0.04978  1.0000
  H   H10       1.0  0.23283  0.12754  0.04120  1.0000
  C   C13       1.0  0.18293  0.44047  0.01528  1.0000
  C   C14       1.0  0.16406  0.42743  0.02261  1.0000
  C   C15       1.0  0.16718  0.39242  0.02916  1.0000
  C   C16       1.0  0.18923  0.37035  0.02838  1.0000
  C   C17       1.0  0.20800  0.38334  0.02099  1.0000
  C   C18       1.0  0.20488  0.41825  0.01444  1.0000
  H   H11       1.0  0.14704  0.44454  0.02328  1.0000
  H   H12       1.0  0.15260  0.38259  0.03480  1.0000
  H   H13       1.0  0.22511  0.36639  0.02036  1.0000
  H   H14       1.0  0.21948  0.42802  0.00880  1.0000
  C   C19       1.0  0.20842  0.19755  0.00808  1.0000
  C   C20       1.0  0.02617  0.35043  0.21934  1.0000
  C   C21       1.0  0.30170  0.45300  0.21197  1.0000
  C   C22       1.0  0.22281  0.35217  0.12320  1.0000
  C   C23       1.0  0.21758  0.31816  0.12903  1.0000
  C   C24       1.0  0.20604  0.29005  0.12121  1.0000
  C   C25       1.0  0.19985  0.29550  0.10752  1.0000
  C   C26       1.0  0.20493  0.32955  0.10172  1.0000
  C   C27       1.0  0.21622  0.35775  0.10954  1.0000
  H   H15       1.0  0.22221  0.31371  0.13956  1.0000
  H   H16       1.0  0.20196  0.26390  0.12581  1.0000
  H   H17       1.0  0.20030  0.33415  0.09119  1.0000
  H   H18       1.0  0.22011  0.38401  0.10495  1.0000
  C   C28       1.0  0.20912  0.41006  0.20428  1.0000
  C   C29       1.0  0.19295  0.42731  0.19388  1.0000
  C   C30       1.0  0.16847  0.44102  0.19597  1.0000
  C   C31       1.0  0.15999  0.43734  0.20843  1.0000
  C   C32       1.0  0.17617  0.41997  0.21878  1.0000
  C   C33       1.0  0.20065  0.40660  0.21672  1.0000
  H   H19       1.0  0.19931  0.43021  0.18426  1.0000
  H   H20       1.0  0.15606  0.45447  0.18793  1.0000
  Fe  Fe10      1.0  0.21141  0.50853  0.99785  1.0000
  H   H21       1.0  0.07129  0.21071  0.06424  1.0000
  H   H22       1.0  0.08009  0.41338  0.19869  1.0000
  H   H23       1.0  0.08264  0.47816  0.19166  1.0000
  C   C34       1.0  0.32673  0.19561  0.20410  1.0000
  H   H24       1.0  0.30135  0.28701  0.11580  1.0000
  H   H25       1.0  0.02491  0.42233  0.18352  1.0000
  N   N1        1.0  0.06806  0.16551  0.05074  1.0000
  C   C35       1.0  0.04838  0.13993  0.04527  1.0000
  C   C36       1.0  0.07602  0.18862  0.03994  1.0000
  C   C37       1.0  0.09044  0.14373  0.05737  1.0000
  C   C38       1.0  0.05740  0.18977  0.06037  1.0000
  H   H26       1.0  0.03120  0.15556  0.04021  1.0000
  H   H27       1.0  0.04192  0.12203  0.05315  1.0000
  H   H28       1.0  0.05578  0.12130  0.03794  1.0000
  H   H29       1.0  0.09039  0.20894  0.04375  1.0000
  H   H30       1.0  0.08501  0.17127  0.03274  1.0000
  H   H31       1.0  0.05952  0.20456  0.03443  1.0000
  H   H32       1.0  0.10571  0.16223  0.06154  1.0000
  H   H33       1.0  0.09914  0.12539  0.05035  1.0000
  H   H34       1.0  0.08527  0.12579  0.06556  1.0000
  H   H35       1.0  0.05211  0.17339  0.06892  1.0000
  H   H36       1.0  0.03980  0.20533  0.05583  1.0000
  H   H37       1.0  0.19608  0.19810  0.99844  1.0000
  H   H38       1.0  0.01416  0.44109  0.20537  1.0000
  H   H39       1.0  0.23102  0.26256  0.00501  1.0000
  H   H40       1.0  0.28936  0.42839  0.21152  1.0000
  H   H41       1.0  0.29930  0.22994  0.21276  1.0000
  N   N2        1.0  0.11974  0.32133  0.10852  1.0000
  C   C39       1.0  0.13205  0.28941  0.11651  1.0000
  C   C40       1.0  0.10034  0.30771  0.09825  1.0000
  C   C41       1.0  0.13922  0.34120  0.10217  1.0000
  C   C42       1.0  0.10739  0.34702  0.11710  1.0000
  H   H42       1.0  0.11811  0.27451  0.12184  1.0000
  H   H43       1.0  0.14771  0.29843  0.12393  1.0000
  H   H44       1.0  0.14067  0.26877  0.11024  1.0000
  H   H45       1.0  0.09062  0.33102  0.09200  1.0000
  H   H46       1.0  0.10910  0.28855  0.09151  1.0000
  H   H47       1.0  0.08534  0.29229  0.10260  1.0000
  H   H48       1.0  0.13063  0.36513  0.09588  1.0000
  H   H49       1.0  0.14902  0.32242  0.09575  1.0000
  H   H50       1.0  0.15424  0.35198  0.10959  1.0000
  H   H51       1.0  0.09802  0.37149  0.11136  1.0000
  H   H52       1.0  0.12157  0.35769  0.12497  1.0000
  H   H53       1.0  0.09246  0.33300  0.12200  1.0000
  H   H54       1.0  0.05385  0.43735  0.17778  1.0000
  H   H55       1.0  0.20329  0.17273  0.01372  1.0000
  H   H56       1.0  0.29710  0.28054  0.19571  1.0000
  H   H57       1.0  0.05066  0.39597  0.20320  1.0000
  S   S20       1.0  0.32273  0.28858  0.17212  1.0000
  H   H58       1.0  0.04626  0.34657  0.22291  1.0000
  H   H59       1.0  0.27399  0.29797  0.14732  1.0000
  H   H60       1.0  0.16985  0.41694  0.22841  1.0000
  C   C43       1.0  0.21098  0.26453  0.00732  1.0000
  H   H61       1.0  0.19809  0.26695  0.99786  1.0000
  H   H62       1.0  0.02129  0.25689  0.02729  1.0000
  H   H63       1.0  0.32778  0.27671  0.12829  1.0000
  H   H64       1.0  0.30533  0.31040  0.14435  1.0000
  C   C44       1.0  0.22236  0.23034  0.02788  1.0000
  H   H65       1.0  0.07482  0.49157  0.20739  1.0000
  C   C45       1.0  0.30951  0.25623  0.19508  1.0000
  C   C46       1.0  0.06632  0.48505  0.19724  1.0000
  H   H66       1.0  0.26877  0.22222  0.12303  1.0000
  C   C47       1.0  0.21767  0.48291  0.04113  1.0000
  C   C48       1.0  0.30205  0.23612  0.14427  1.0000
  H   H67       1.0  0.31260  0.23958  0.11921  1.0000
  C   C49       1.0  0.01427  0.32558  0.21027  1.0000
  H   H68       1.0  0.25789  0.26956  0.11941  1.0000
  H   H69       1.0  0.17330  0.21245  0.02454  1.0000
  H   H70       1.0  0.25248  0.24742  0.13468  1.0000
  N   N3        1.0  0.29114  0.26307  0.13377  1.0000
  C   C50       1.0  0.17828  0.23592  0.01820  1.0000
  C   C51       1.0  0.28702  0.29969  0.13958  1.0000
  C   C52       1.0  0.00089  0.26509  0.04407  1.0000
  H   H71       1.0  0.21305  0.39329  0.22481  1.0000
  H   H72       1.0  0.22857  0.19278  0.00616  1.0000
  Fe  Fe11      1.0  0.11623  0.44376  0.23085  1.0000
  N   N4        1.0  0.20502  0.23206  0.01536  1.0000
  C   C53       1.0  0.26650  0.24994  0.12745  1.0000
  H   H73       1.0  0.02536  0.30270  0.20688  1.0000
  H   H74       1.0  0.16459  0.23647  0.00902  1.0000
  H   H75       1.0  0.22029  0.25595  0.03363  1.0000
  H   H76       1.0  0.17979  0.17542  0.23116  1.0000
  C   C54       1.0  0.01196  0.37992  0.22385  1.0000
  C   C55       1.0  0.06288  0.42057  0.20356  1.0000
  H   H77       1.0  0.20863  0.29098  0.01262  1.0000
  H   H78       1.0  0.28965  0.23412  0.15231  1.0000
  H   H79       1.0  0.31615  0.44837  0.20503  1.0000
  N   N5        1.0  0.04878  0.45390  0.19736  1.0000
  H   H80       1.0  0.27848  0.32086  0.13205  1.0000
  H   H81       1.0  0.02768  0.47022  0.17869  1.0000
  C   C56       1.0  0.03834  0.44562  0.18371  1.0000
  C   C57       1.0  0.30901  0.26670  0.12381  1.0000
  H   H82       1.0  0.19677  0.47831  0.03955  1.0000
  H   H83       1.0  0.25921  0.46275  0.19446  1.0000
  H   H84       1.0  0.17491  0.26200  0.02347  1.0000
  H   H85       1.0  0.31211  0.45347  0.22209  1.0000
  H   H86       1.0  0.06959  0.42515  0.21409  1.0000
  H   H87       1.0  0.22617  0.46452  0.04953  1.0000
  S   S21       1.0  0.27146  0.04124  0.99210  1.0000
  S   S22       1.0  0.10184  0.38731  0.23526  1.0000
  C   C58       1.0  0.00276  0.27694  0.05707  1.0000
  S   S23       1.0  0.08179  0.47633  0.23606  1.0000
  H   H88       1.0  0.21832  0.20638  0.03424  1.0000
  S   S24       1.0  0.25224  0.49904  0.00632  1.0000
  H   H89       1.0  0.22563  0.47329  0.03214  1.0000
  C   C59       1.0  0.31081  0.22749  0.20474  1.0000
  H   H90       1.0  0.03475  0.47046  0.21533  1.0000
  C   C60       1.0  0.27290  0.48567  0.19512  1.0000
  H   H91       1.0  0.28653  0.48035  0.18784  1.0000
  H   H92       1.0  0.27692  0.49448  0.22827  1.0000
  C   C61       1.0  0.26749  0.49284  0.21798  1.0000
  H   H93       1.0  0.30917  0.50177  0.00266  1.0000
  H   H94       1.0  0.32106  0.24466  0.14896  1.0000
  N   N6        1.0  0.28642  0.48783  0.20858  1.0000
  H   H95       1.0  0.26042  0.51049  0.05379  1.0000
  H   H96       1.0  0.05638  0.51086  0.19275  1.0000
  H   H97       1.0  0.26182  0.51189  0.19199  1.0000
  Fe  Fe12      1.0  0.30482  0.27424  0.41967  1.0000
  S   S25       1.0  0.22284  0.46506  0.46982  1.0000
  S   S26       1.0  0.29591  0.42921  0.47391  1.0000
  H   H98       1.0  0.21959  0.07944  0.38813  1.0000
  H   H99       1.0  0.11255  0.48464  0.30005  1.0000
  Fe  Fe13      1.0  0.29484  0.20783  0.40142  1.0000
  S   S27       1.0  0.26265  0.18224  0.38796  1.0000
  H   H100      1.0  0.31550  0.10877  0.28199  1.0000
  H   H101      1.0  0.24797  0.10264  0.38506  1.0000
  S   S28       1.0  0.28309  0.22216  0.42118  1.0000
  C   C62       1.0  0.29688  0.03783  0.27270  1.0000
  H   H102      1.0  0.11249  0.38812  0.28764  1.0000
  H   H103      1.0  0.21629  0.09933  0.47475  1.0000
  H   H104      1.0  0.25412  0.39058  0.43092  1.0000
  Fe  Fe14      1.0  0.10198  0.47751  0.25670  1.0000
  H   H105      1.0  0.17958  0.12983  0.25688  1.0000
  Fe  Fe15      1.0  0.12063  0.39553  0.25594  1.0000
  N   N7        1.0  0.13157  0.43110  0.29888  1.0000
  S   S29       1.0  0.14937  0.35831  0.26913  1.0000
  H   H106      1.0  0.23727  0.15619  0.46872  1.0000
  H   H107      1.0  0.31113  0.08697  0.24590  1.0000
  C   C63       1.0  0.14824  0.43454  0.31146  1.0000
  S   S30       1.0  0.13776  0.44982  0.25093  1.0000
  S   S31       1.0  0.08571  0.42323  0.26253  1.0000
  Fe  Fe16      1.0  0.21387  0.10203  0.28477  1.0000
  S   S32       1.0  0.17162  0.09531  0.28415  1.0000
  S   S33       1.0  0.23236  0.10429  0.26596  1.0000
  Fe  Fe17      1.0  0.22061  0.12278  0.31370  1.0000
  S   S34       1.0  0.17854  0.11850  0.31532  1.0000
  S   S35       1.0  0.25573  0.13900  0.32743  1.0000
  Fe  Fe18      1.0  0.18103  0.06571  0.30378  1.0000
  C   C64       1.0  0.19397  0.19854  0.26316  1.0000
  Fe  Fe19      1.0  0.17182  0.14826  0.29544  1.0000
  S   S36       1.0  0.13951  0.18973  0.28770  1.0000
  S   S37       1.0  0.22370  0.06809  0.30350  1.0000
  S   S38       1.0  0.21337  0.15673  0.29477  1.0000
  C   C65       1.0  0.14596  0.31166  0.27431  1.0000
  C   C66       1.0  0.16694  0.29259  0.28161  1.0000
  C   C67       1.0  0.16517  0.25549  0.28600  1.0000
  C   C68       1.0  0.14232  0.23710  0.28313  1.0000
  C   C69       1.0  0.12122  0.25637  0.27600  1.0000
  C   C70       1.0  0.12304  0.29343  0.27153  1.0000
  H   H108      1.0  0.18469  0.30660  0.28389  1.0000
  H   H109      1.0  0.18143  0.24119  0.29164  1.0000
  H   H110      1.0  0.10342  0.24242  0.27381  1.0000
  H   H111      1.0  0.10671  0.30787  0.26600  1.0000
  C   C71       1.0  0.24557  0.32098  0.46741  1.0000
  C   C72       1.0  0.30051  0.07759  0.25368  1.0000
  C   C73       1.0  0.27633  0.09384  0.25479  1.0000
  C   C74       1.0  0.26247  0.08259  0.26494  1.0000
  C   C75       1.0  0.27283  0.05463  0.27396  1.0000
  H   H112      1.0  0.31205  0.17701  0.28386  1.0000
  H   H113      1.0  0.30475  0.01600  0.27961  1.0000
  H   H114      1.0  0.16287  0.42592  0.28727  1.0000
  H   H115      1.0  0.26216  0.04557  0.28175  1.0000
  C   C76       1.0  0.26100  0.17219  0.37096  1.0000
  C   C77       1.0  0.28242  0.17292  0.36416  1.0000
  C   C78       1.0  0.28041  0.16281  0.35084  1.0000
  C   C79       1.0  0.25701  0.15205  0.34415  1.0000
  C   C80       1.0  0.23557  0.15154  0.35092  1.0000
  C   C81       1.0  0.23760  0.16148  0.36425  1.0000
  H   H116      1.0  0.30054  0.18098  0.36920  1.0000
  H   H117      1.0  0.29712  0.16330  0.34570  1.0000
  H   H118      1.0  0.21744  0.14344  0.34589  1.0000
  H   H119      1.0  0.22087  0.16104  0.36938  1.0000
  C   C82       1.0  0.26093  0.07958  0.45275  1.0000
  C   C83       1.0  0.28515  0.07162  0.45961  1.0000
  H   H120      1.0  0.16513  0.24497  0.24626  1.0000
  C   C84       1.0  0.30118  0.12727  0.44985  1.0000
  C   C85       1.0  0.27674  0.13573  0.44338  1.0000
  C   C86       1.0  0.25670  0.11204  0.44485  1.0000
  H   H121      1.0  0.28860  0.04657  0.46571  1.0000
  H   H122      1.0  0.27381  0.13963  0.28491  1.0000
  H   H123      1.0  0.27326  0.16047  0.43718  1.0000
  H   H124      1.0  0.23784  0.11883  0.43980  1.0000
  C   C87       1.0  0.28689  0.35487  0.43776  1.0000
  H   H125      1.0  0.13313  0.44144  0.27832  1.0000
  H   H126      1.0  0.18359  0.19944  0.27196  1.0000
  C   C88       1.0  0.29204  0.40086  0.45994  1.0000
  C   C89       1.0  0.27192  0.40755  0.44986  1.0000
  C   C90       1.0  0.26944  0.38475  0.43881  1.0000
  H   H127      1.0  0.15061  0.47305  0.28876  1.0000
  H   H128      1.0  0.14379  0.21088  0.23911  1.0000
  H   H129      1.0  0.25864  0.43086  0.45041  1.0000
  H   H130      1.0  0.15373  0.46387  0.31303  1.0000
  C   C91       1.0  0.23122  0.09585  0.48343  1.0000
  H   H131      1.0  0.14491  0.22107  0.25623  1.0000
  C   C92       1.0  0.12473  0.39183  0.29715  1.0000
  H   H132      1.0  0.28172  0.11340  0.40341  1.0000
  N   N8        1.0  0.17693  0.18803  0.25139  1.0000
  C   C93       1.0  0.23471  0.09776  0.39255  1.0000
  H   H133      1.0  0.25553  0.38710  0.47871  1.0000
  H   H134      1.0  0.27170  0.10980  0.29900  1.0000
  H   H135      1.0  0.25813  0.17966  0.48087  1.0000
  N   N9        1.0  0.30727  0.13734  0.29930  1.0000
  C   C94       1.0  0.10810  0.45470  0.29901  1.0000
  H   H136      1.0  0.21508  0.05558  0.41057  1.0000
  H   H137      1.0  0.26810  0.13599  0.47465  1.0000
  H   H138      1.0  0.25837  0.33807  0.46203  1.0000
  H   H139      1.0  0.11414  0.38154  0.30518  1.0000
  H   H140      1.0  0.23467  0.30359  0.45998  1.0000
  H   H141      1.0  0.31313  0.07901  0.29607  1.0000
  H   H142      1.0  0.25892  0.13450  0.41275  1.0000
  S   S39       1.0  0.23563  0.04936  0.45341  1.0000
  H   H143      1.0  0.22546  0.12529  0.39422  1.0000
  H   H144      1.0  0.24710  0.02555  0.39788  1.0000
  S   S40       1.0  0.28306  0.32780  0.42347  1.0000
  C   C95       1.0  0.31978  0.10647  0.29292  1.0000
  H   H145      1.0  0.23978  0.06207  0.42389  1.0000
  C   C96       1.0  0.15683  0.21753  0.24806  1.0000
  H   H146      1.0  0.27887  0.09568  0.41974  1.0000
  C   C97       1.0  0.31084  0.04948  0.26260  1.0000
  C   C98       1.0  0.14528  0.44343  0.28789  1.0000
  C   C99       1.0  0.30678  0.34775  0.44795  1.0000
  C   C100      1.0  0.24381  0.36782  0.48382  1.0000
  H   H147      1.0  0.30577  0.10720  0.31759  1.0000
  H   H148      1.0  0.27522  0.04976  0.39500  1.0000
  Fe  Fe20      1.0  0.26332  0.46635  0.47936  1.0000
  Fe  Fe21      1.0  0.06828  0.41994  0.24138  1.0000
  H   H149      1.0  0.26845  0.11543  0.24777  1.0000
  C   C101      1.0  0.16494  0.15264  0.25419  1.0000
  N   N10       1.0  0.24845  0.08138  0.40492  1.0000
  H   H150      1.0  0.15199  0.14366  0.24554  1.0000
  C   C102      1.0  0.26785  0.10725  0.41048  1.0000
  C   C103      1.0  0.26118  0.04569  0.40214  1.0000
  C   C104      1.0  0.23011  0.07479  0.41447  1.0000
  H   H151      1.0  0.24705  0.07831  0.48032  1.0000
  H   H152      1.0  0.20195  0.22642  0.26183  1.0000
  H   H153      1.0  0.13853  0.42539  0.31998  1.0000
  C   C105      1.0  0.21226  0.36912  0.46460  1.0000
  H   H154      1.0  0.26932  0.15919  0.30055  1.0000
  C   C106      1.0  0.21191  0.32130  0.48148  1.0000
  S   S41       1.0  0.31425  0.26193  0.39920  1.0000
  H   H155      1.0  0.19926  0.38783  0.46950  1.0000
  H   H156      1.0  0.16615  0.41716  0.31162  1.0000
  N   N11       1.0  0.22839  0.34476  0.47432  1.0000
  H   H157      1.0  0.22032  0.10122  0.41687  1.0000
  H   H158      1.0  0.14201  0.37325  0.29698  1.0000
  C   C107      1.0  0.31643  0.17318  0.29475  1.0000
  Fe  Fe22      1.0  0.32042  0.19572  0.42993  1.0000
  C   C108      1.0  0.30525  0.09553  0.45818  1.0000
  H   H159      1.0  0.21027  0.17810  0.26548  1.0000
  H   H160      1.0  0.32038  0.32494  0.44723  1.0000
  C   C109      1.0  0.30943  0.37085  0.45896  1.0000
  S   S42       1.0  0.16003  0.01559  0.31071  1.0000
  H   H161      1.0  0.27166  0.03255  0.41130  1.0000
  S   S43       1.0  0.32683  0.15575  0.44754  1.0000
  H   H162      1.0  0.20153  0.20943  0.23797  1.0000
  H   H163      1.0  0.09722  0.44645  0.30718  1.0000
  H   H164      1.0  0.09513  0.45288  0.28962  1.0000
  H   H165      1.0  0.30462  0.15663  0.31886  1.0000
  C   C110      1.0  0.27932  0.13649  0.29575  1.0000
  H   H166      1.0  0.20020  0.35270  0.45733  1.0000
  H   H167      1.0  0.20015  0.30320  0.47468  1.0000
  H   H168      1.0  0.15340  0.15529  0.26259  1.0000
  H   H169      1.0  0.22410  0.38709  0.45896  1.0000
  H   H170      1.0  0.25807  0.30220  0.47441  1.0000
  C   C111      1.0  0.25142  0.15194  0.47768  1.0000
  C   C112      1.0  0.31340  0.13329  0.31377  1.0000
  H   H171      1.0  0.32409  0.08890  0.46328  1.0000
  C   C113      1.0  0.19202  0.18331  0.24025  1.0000
  H   H172      1.0  0.32509  0.36559  0.46671  1.0000
  H   H173      1.0  0.20725  0.16101  0.24252  1.0000
  H   H174      1.0  0.30719  0.19707  0.29934  1.0000
  H   H175      1.0  0.19851  0.33877  0.48659  1.0000
  H   H176      1.0  0.20333  0.15938  0.48388  1.0000
  H   H177      1.0  0.16326  0.01517  0.56302  1.0000
  C   C114      1.0  0.27119  0.01585  0.68697  1.0000
  S   S44       1.0  0.25370  0.45996  0.50015  1.0000
  Fe  Fe23      1.0  0.16399  0.26912  0.54975  1.0000
  S   S45       1.0  0.12991  0.25508  0.53574  1.0000
  S   S46       1.0  0.18728  0.32024  0.54719  1.0000
  Fe  Fe24      1.0  0.15730  0.20350  0.56872  1.0000
  S   S47       1.0  0.12200  0.18574  0.55599  1.0000
  S   S48       1.0  0.17075  0.16309  0.58593  1.0000
  Fe  Fe25      1.0  0.14478  0.19597  0.53915  1.0000
  S   S49       1.0  0.14324  0.15632  0.52226  1.0000
  Fe  Fe26      1.0  0.11019  0.24643  0.55380  1.0000
  S   S50       1.0  0.07250  0.27852  0.55518  1.0000
  S   S51       1.0  0.18057  0.21045  0.55183  1.0000
  S   S52       1.0  0.14382  0.26358  0.56787  1.0000
  H   H178      1.0  0.26770  0.15190  0.50363  1.0000
  H   H179      1.0  0.28467  0.28482  0.63074  1.0000
  S   S53       1.0  0.18430  0.41734  0.49414  1.0000
  H   H180      1.0  0.22475  0.18153  0.49615  1.0000
  Fe  Fe27      1.0  0.26227  0.15687  0.65492  1.0000
  S   S54       1.0  0.30360  0.13933  0.65527  1.0000
  S   S55       1.0  0.24228  0.19667  0.63896  1.0000
  Fe  Fe28      1.0  0.26182  0.12902  0.68347  1.0000
  S   S56       1.0  0.30313  0.10993  0.68584  1.0000
  S   S57       1.0  0.24099  0.13056  0.70142  1.0000
  Fe  Fe29      1.0  0.30933  0.16416  0.67542  1.0000
  H   H181      1.0  0.15023  0.39375  0.54242  1.0000
  Fe  Fe30      1.0  0.29361  0.08669  0.66567  1.0000
  N   N12       1.0  0.16546  0.07443  0.56055  1.0000
  S   S58       1.0  0.26876  0.18451  0.67449  1.0000
  S   S59       1.0  0.25140  0.10280  0.66391  1.0000
  H   H182      1.0  0.16910  0.10235  0.72526  1.0000
  H   H183      1.0  0.29641  0.31747  0.69076  1.0000
  H   H184      1.0  0.15804  0.08281  0.58052  1.0000
  H   H185      1.0  0.00157  0.27771  0.69051  1.0000
  S   S60       1.0  0.08688  0.03680  0.73374  1.0000
  C   C115      1.0  0.99822  0.30500  0.71458  1.0000
  C   C116      1.0  0.02088  0.13632  0.72196  1.0000
  H   H186      1.0  0.17216  0.04394  0.68930  1.0000
  H   H187      1.0  0.13071  0.33498  0.53506  1.0000
  C   C117      1.0  0.21300  0.10706  0.70345  1.0000
  C   C118      1.0  0.20275  0.08154  0.69431  1.0000
  C   C119      1.0  0.18018  0.06368  0.69634  1.0000
  C   C120      1.0  0.16790  0.07123  0.70748  1.0000
  C   C121      1.0  0.17835  0.09651  0.71661  1.0000
  C   C122      1.0  0.20083  0.11431  0.71460  1.0000
  H   H188      1.0  0.21220  0.07552  0.68577  1.0000
  H   H189      1.0  0.22291  0.07992  0.49120  1.0000
  H   H190      1.0  0.20880  0.13383  0.72174  1.0000
  H   H191      1.0  0.14200  0.34559  0.55862  1.0000
  C   C123      1.0  0.02002  0.28547  0.55166  1.0000
  C   C124      1.0  0.04138  0.26085  0.55190  1.0000
  C   C125      1.0  0.03741  0.22309  0.54979  1.0000
  H   H192      1.0  0.18881  0.03553  0.57343  1.0000
  H   H193      1.0  0.29894  0.25054  0.68544  1.0000
  H   H194      1.0  0.02285  0.31476  0.55320  1.0000
  H   H195      1.0  0.05363  0.20381  0.54991  1.0000
  H   H196      1.0  0.21427  0.42232  0.52002  1.0000
  C   C126      1.0  0.19112  0.17291  0.60047  1.0000
  C   C127      1.0  0.19959  0.14361  0.60947  1.0000
  C   C128      1.0  0.21557  0.15020  0.62122  1.0000
  C   C129      1.0  0.22303  0.18633  0.62412  1.0000
  C   C130      1.0  0.21445  0.21563  0.61516  1.0000
  C   C131      1.0  0.19870  0.20898  0.60336  1.0000
  H   H197      1.0  0.19384  0.11560  0.60733  1.0000
  H   H198      1.0  0.22208  0.12737  0.62799  1.0000
  H   H199      1.0  0.22004  0.24370  0.61733  1.0000
  H   H200      1.0  0.19228  0.23177  0.59654  1.0000
  C   C132      1.0  0.16913  0.12543  0.52049  1.0000
  C   C133      1.0  0.19260  0.12763  0.52835  1.0000
  C   C134      1.0  0.21235  0.10111  0.52723  1.0000
  C   C135      1.0  0.20886  0.07253  0.51814  1.0000
  C   C136      1.0  0.18554  0.07074  0.51012  1.0000
  C   C137      1.0  0.16577  0.09714  0.51129  1.0000
  H   H201      1.0  0.19548  0.14957  0.53535  1.0000
  H   H202      1.0  0.23043  0.10279  0.53341  1.0000
  C   C138      1.0  0.29556  0.25733  0.65542  1.0000
  H   H203      1.0  0.14761  0.09522  0.50520  1.0000
  C   C139      1.0  0.18637  0.38968  0.50880  1.0000
  C   C140      1.0  0.17116  0.35843  0.50910  1.0000
  C   C141      1.0  0.17199  0.33600  0.52062  1.0000
  C   C142      1.0  0.18751  0.34528  0.53208  1.0000
  C   C143      1.0  0.20284  0.37639  0.53173  1.0000
  C   C144      1.0  0.20247  0.39832  0.52012  1.0000
  H   H204      1.0  0.15864  0.35153  0.50038  1.0000
  H   H205      1.0  0.16040  0.31181  0.52065  1.0000
  H   H206      1.0  0.21497  0.38375  0.54053  1.0000
  N   N13       1.0  0.17713  0.16579  0.66507  1.0000
  C   C145      1.0  0.19763  0.17319  0.67577  1.0000
  C   C146      1.0  0.16869  0.12734  0.66662  1.0000
  C   C147      1.0  0.18690  0.17031  0.65220  1.0000
  C   C148      1.0  0.15535  0.19230  0.66571  1.0000
  H   H207      1.0  0.20484  0.20174  0.67486  1.0000
  H   H208      1.0  0.21421  0.15339  0.67569  1.0000
  H   H209      1.0  0.19102  0.17019  0.68567  1.0000
  H   H210      1.0  0.15306  0.12080  0.65878  1.0000
  H   H211      1.0  0.18466  0.10661  0.66610  1.0000
  H   H212      1.0  0.16148  0.12284  0.67632  1.0000
  H   H213      1.0  0.17207  0.16483  0.64382  1.0000
  H   H214      1.0  0.20350  0.15092  0.65139  1.0000
  H   H215      1.0  0.19351  0.19900  0.65068  1.0000
  H   H216      1.0  0.13953  0.18759  0.65774  1.0000
  H   H217      1.0  0.16113  0.22159  0.66463  1.0000
  H   H218      1.0  0.14752  0.18948  0.67531  1.0000
  H   H219      1.0  0.25516  0.05254  0.70739  1.0000
  C   C149      1.0  0.01730  0.14143  0.69806  1.0000
  H   H220      1.0  0.18251  0.04862  0.50319  1.0000
  H   H221      1.0  0.22338  0.30327  0.48916  1.0000
  H   H222      1.0  0.16377  0.06858  0.53958  1.0000
  C   C150      1.0  0.31627  0.26549  0.68768  1.0000
  S   S61       1.0  0.11200  0.12123  0.73362  1.0000
  H   H223      1.0  0.20980  0.13951  0.50020  1.0000
  H   H224      1.0  0.23158  0.38519  0.48957  1.0000
  H   H225      1.0  0.17679  0.13086  0.55874  1.0000
  C   C151      1.0  0.27266  0.03427  0.70959  1.0000
  Fe  Fe31      1.0  0.21306  0.46120  0.49066  1.0000
  C   C152      1.0  0.99665  0.15409  0.72145  1.0000
  C   C153      1.0  0.26006  0.12535  0.49975  1.0000
  N   N14       1.0  0.11296  0.37656  0.54587  1.0000
  C   C154      1.0  0.11165  0.34857  0.53550  1.0000
  C   C155      1.0  0.13057  0.40572  0.54279  1.0000
  C   C156      1.0  0.08715  0.39320  0.54644  1.0000
  H   H226      1.0  0.10510  0.36123  0.52558  1.0000
  H   H227      1.0  0.12364  0.37858  0.56682  1.0000
  H   H228      1.0  0.09826  0.32632  0.53738  1.0000
  H   H229      1.0  0.12428  0.41955  0.53303  1.0000
  C   C157      1.0  0.03120  0.13007  0.71021  1.0000
  C   C158      1.0  0.12251  0.35841  0.55872  1.0000
  H   H230      1.0  0.07930  0.40689  0.53686  1.0000
  H   H231      1.0  0.08732  0.41444  0.55419  1.0000
  H   H232      1.0  0.07359  0.37152  0.54874  1.0000
  H   H233      1.0  0.28817  0.03218  0.68557  1.0000
  H   H234      1.0  0.02542  0.13647  0.68902  1.0000
  H   H235      1.0  0.19113  0.03003  0.55619  1.0000
  H   H236      1.0  0.04986  0.11640  0.71050  1.0000
  S   S62       1.0  0.13947  0.04917  0.70978  1.0000
  H   H237      1.0  0.19591  0.10363  0.57133  1.0000
  S   S63       1.0  0.30392  0.02872  0.65869  1.0000
  H   H238      1.0  0.25225  0.11050  0.50796  1.0000
  H   H239      1.0  0.29216  0.28242  0.66122  1.0000
  H   H240      1.0  0.10987  0.33584  0.56125  1.0000
  H   H241      1.0  0.13199  0.42753  0.55036  1.0000
  H   H242      1.0  0.27392  0.02510  0.72012  1.0000
  H   H243      1.0  0.25707  0.35060  0.49099  1.0000
  C   C159      1.0  0.17769  0.03709  0.56344  1.0000
  S   S64       1.0  0.23411  0.03997  0.51696  1.0000
  H   H244      1.0  0.21221  0.31185  0.73400  1.0000
  N   N15       1.0  0.31386  0.26425  0.64590  1.0000
  C   C160      1.0  0.15110  0.07541  0.54719  1.0000
  H   H245      1.0  0.30280  0.23439  0.66248  1.0000
  H   H246      1.0  0.13247  0.06225  0.57014  1.0000
  N   N16       1.0  0.24034  0.13192  0.48829  1.0000
  H   H247      1.0  0.00951  0.18087  0.54600  1.0000
  C   C161      1.0  0.31487  0.30342  0.69080  1.0000
  C   C162      1.0  0.14778  0.08278  0.57033  1.0000
  Fe  Fe32      1.0  0.12303  0.06266  0.72867  1.0000
  C   C163      1.0  0.01236  0.21016  0.54756  1.0000
  H   H248      1.0  0.13837  0.11090  0.56843  1.0000
  H   H249      1.0  0.19951  0.09652  0.55431  1.0000
  C   C164      1.0  0.18533  0.10251  0.56124  1.0000
  H   H250      1.0  0.00126  0.20056  0.59174  1.0000
  H   H251      1.0  0.01053  0.28348  0.72055  1.0000
  H   H252      1.0  0.28926  0.05189  0.70851  1.0000
  H   H253      1.0  0.13556  0.05516  0.54635  1.0000
  H   H254      1.0  0.14210  0.10350  0.54455  1.0000
  H   H255      1.0  0.27678  0.24911  0.65041  1.0000
  H   H256      1.0  0.27638  0.10774  0.49714  1.0000
  H   H257      1.0  0.01077  0.32144  0.70884  1.0000
  H   H258      1.0  0.30056  0.21847  0.63405  1.0000
  C   C165      1.0  0.21864  0.15417  0.49228  1.0000
  H   H259      1.0  0.25398  0.03415  0.68393  1.0000
  H   H260      1.0  0.00117  0.23979  0.70222  1.0000
  H   H261      1.0  0.29901  0.31991  0.64119  1.0000
  C   C166      1.0  0.30299  0.29345  0.63624  1.0000
  C   C167      1.0  0.31867  0.22950  0.63901  1.0000
  H   H262      1.0  0.01170  0.24210  0.58415  1.0000
  H   H263      1.0  0.31627  0.29946  0.62887  1.0000
  H   H264      1.0  0.32768  0.20736  0.64604  1.0000
  H   H265      1.0  0.19817  0.35094  0.75850  1.0000
  C   C168      1.0  0.22620  0.28912  0.76655  1.0000
  H   H266      1.0  0.16405  0.48258  0.83592  1.0000
  H   H267      1.0  0.25737  0.31229  0.97008  1.0000
  S   S65       1.0  0.29251  0.27420  0.91632  1.0000
  C   C169      1.0  0.32094  0.43581  0.75817  1.0000
  C   C170      1.0  0.17005  0.45453  0.84030  1.0000
  C   C171      1.0  0.13647  0.10170  0.79545  1.0000
  H   H268      1.0  0.20924  0.44067  0.82656  1.0000
  H   H269      1.0  0.27027  0.39151  0.74262  1.0000
  Fe  Fe33      1.0  0.24502  0.04175  0.97312  1.0000
  Fe  Fe34      1.0  0.31233  0.32701  0.92175  1.0000
  S   S66       1.0  0.24742  0.07777  0.95462  1.0000
  Fe  Fe35      1.0  0.13099  0.10615  0.75407  1.0000
  H   H270      1.0  0.17777  0.31612  0.76361  1.0000
  S   S67       1.0  0.16071  0.13752  0.76731  1.0000
  C   C172      1.0  0.25391  0.28426  0.96594  1.0000
  C   C173      1.0  0.19672  0.25986  0.75038  1.0000
  H   H271      1.0  0.26329  0.26314  0.97326  1.0000
  H   H272      1.0  0.10754  0.04982  0.80517  1.0000
  C   C174      1.0  0.30589  0.41787  0.74821  1.0000
  S   S68       1.0  0.14475  0.04926  0.74853  1.0000
  S   S69       1.0  0.09541  0.08407  0.76083  1.0000
  Fe  Fe36      1.0  0.22745  0.37714  0.81372  1.0000
  S   S70       1.0  0.18461  0.37912  0.81266  1.0000
  S   S71       1.0  0.25176  0.37995  0.83378  1.0000
  Fe  Fe37      1.0  0.22496  0.39308  0.78409  1.0000
  S   S72       1.0  0.18197  0.39794  0.78143  1.0000
  S   S73       1.0  0.24215  0.39383  0.76477  1.0000
  Fe  Fe38      1.0  0.18542  0.43098  0.79991  1.0000
  S   S74       1.0  0.15993  0.47837  0.80657  1.0000
  Fe  Fe39      1.0  0.18457  0.34597  0.79422  1.0000
  S   S75       1.0  0.15428  0.30451  0.78713  1.0000
  S   S76       1.0  0.22835  0.43032  0.80156  1.0000
  S   S77       1.0  0.22748  0.33970  0.79624  1.0000
  C   C175      1.0  0.31177  0.44085  0.77037  1.0000
  C   C176      1.0  0.27268  0.41001  0.76263  1.0000
  C   C177      1.0  0.28183  0.40518  0.75042  1.0000
  H   H273      1.0  0.23030  0.30645  0.94204  1.0000
  N   N17       1.0  0.20918  0.29498  0.75405  1.0000
  H   H274      1.0  0.23298  0.28014  0.96490  1.0000
  C   C178      1.0  0.28777  0.42781  0.77263  1.0000
  S   S78       1.0  0.28606  0.37443  0.92670  1.0000
  S   S79       1.0  0.29986  0.26015  0.87787  1.0000
  H   H275      1.0  0.28092  0.43167  0.78207  1.0000
  N   N18       1.0  0.26395  0.28087  0.95314  1.0000
  H   H276      1.0  0.12661  0.11210  0.80373  1.0000
  C   C179      1.0  0.15870  0.18426  0.77248  1.0000
  C   C180      1.0  0.17967  0.19865  0.78036  1.0000
  C   C181      1.0  0.17879  0.23542  0.78487  1.0000
  C   C182      1.0  0.15685  0.25825  0.78153  1.0000
  C   C183      1.0  0.13588  0.24380  0.77368  1.0000
  C   C184      1.0  0.13681  0.20710  0.76913  1.0000
  H   H277      1.0  0.19664  0.18112  0.78310  1.0000
  H   H278      1.0  0.19483  0.24579  0.79117  1.0000
  H   H279      1.0  0.11873  0.26108  0.77115  1.0000
  H   H280      1.0  0.12048  0.19641  0.76313  1.0000
  C   C185      1.0  0.28569  0.29363  0.86585  1.0000
  C   C186      1.0  0.28617  0.33182  0.86812  1.0000
  C   C187      1.0  0.27568  0.35763  0.85818  1.0000
  C   C188      1.0  0.26425  0.34570  0.84590  1.0000
  C   C189      1.0  0.26351  0.30750  0.84366  1.0000
  C   C190      1.0  0.27435  0.28166  0.85356  1.0000
  H   H281      1.0  0.29476  0.34153  0.87751  1.0000
  H   H282      1.0  0.27650  0.38708  0.86002  1.0000
  H   H283      1.0  0.25485  0.29787  0.83427  1.0000
  H   H284      1.0  0.27387  0.25219  0.85169  1.0000
  C   C191      1.0  0.30377  0.16940  0.94757  1.0000
  C   C192      1.0  0.28472  0.15992  0.93760  1.0000
  C   C193      1.0  0.26768  0.13182  0.93994  1.0000
  C   C194      1.0  0.26948  0.11283  0.95223  1.0000
  C   C195      1.0  0.28848  0.12245  0.96221  1.0000
  C   C196      1.0  0.30550  0.15057  0.95988  1.0000
  H   H285      1.0  0.28317  0.17403  0.92807  1.0000
  H   H286      1.0  0.25310  0.12450  0.93214  1.0000
  H   H287      1.0  0.29014  0.10806  0.97169  1.0000
  C   C197      1.0  0.28997  0.43257  0.96632  1.0000
  C   C198      1.0  0.27006  0.44103  0.95629  1.0000
  C   C199      1.0  0.26929  0.42311  0.94418  1.0000
  C   C200      1.0  0.28837  0.39661  0.94200  1.0000
  C   C201      1.0  0.30826  0.38799  0.95205  1.0000
  C   C202      1.0  0.30904  0.40593  0.96418  1.0000
  H   H288      1.0  0.25534  0.46158  0.95780  1.0000
  H   H289      1.0  0.25387  0.42993  0.93643  1.0000
  H   H290      1.0  0.16558  0.43426  0.83233  1.0000
  H   H291      1.0  0.18479  0.25047  0.75799  1.0000
  H   H292      1.0  0.22336  0.47903  0.85982  1.0000
  C   C203      1.0  0.18945  0.32407  0.75571  1.0000
  H   H293      1.0  0.23656  0.31477  0.76935  1.0000
  H   H294      1.0  0.15794  0.44833  0.84817  1.0000
  H   H295      1.0  0.26714  0.23950  0.93851  1.0000
  H   H296      1.0  0.29983  0.28446  0.94550  1.0000
  Fe  Fe40      1.0  0.07719  0.09479  0.73994  1.0000
  H   H297      1.0  0.25855  0.30797  0.93399  1.0000
  C   C204      1.0  0.29176  0.28622  0.95500  1.0000
  H   H298      1.0  0.32315  0.36782  0.95043  1.0000
  H   H299      1.0  0.19361  0.40712  0.85903  1.0000
  H   H300      1.0  0.12408  0.10936  0.78611  1.0000
  C   C205      1.0  0.25892  0.24348  0.94793  1.0000
  H   H301      1.0  0.14254  0.05482  0.77598  1.0000
  H   H302      1.0  0.26775  0.22117  0.95493  1.0000
  Fe  Fe41      1.0  0.10792  0.02767  0.75419  1.0000
  H   H303      1.0  0.19759  0.50877  0.85200  1.0000
  H   H304      1.0  0.17618  0.32928  0.74650  1.0000
  H   H305      1.0  0.20748  0.48905  0.82997  1.0000
  H   H306      1.0  0.16332  0.02186  0.81028  1.0000
  C   C206      1.0  0.20468  0.41467  0.85085  1.0000
  N   N19       1.0  0.19752  0.45252  0.84539  1.0000
  H   H307      1.0  0.10469  0.04738  0.78753  1.0000
  H   H308      1.0  0.24085  0.26652  0.76585  1.0000
  H   H309      1.0  0.22535  0.41208  0.85472  1.0000
  C   C207      1.0  0.15484  0.04877  0.78541  1.0000
  H   H310      1.0  0.25491  0.33814  0.94731  1.0000
  H   H311      1.0  0.15429  0.11734  0.79527  1.0000
  H   H312      1.0  0.23400  0.33346  0.74612  1.0000
  S   S80       1.0  0.29169  0.45487  0.98160  1.0000
  C   C208      1.0  0.15882  0.05231  0.80908  1.0000
  H   H313      1.0  0.23814  0.23858  0.94601  1.0000
  H   H314      1.0  0.20130  0.39331  0.84316  1.0000
  H   H315      1.0  0.29641  0.31389  0.95909  1.0000
  N   N20       1.0  0.14198  0.06108  0.79669  1.0000
  C   C209      1.0  0.25131  0.30955  0.94374  1.0000
  H   H316      1.0  0.30211  0.26437  0.96171  1.0000
  H   H317      1.0  0.23353  0.45946  0.83791  1.0000
  H   H318      1.0  0.21525  0.28159  0.77479  1.0000
  C   C210      1.0  0.11782  0.04147  0.79678  1.0000
  Fe  Fe42      1.0  0.31512  0.27380  0.89903  1.0000
  C   C211      1.0  0.22438  0.30697  0.74359  1.0000
  C   C212      1.0  0.20274  0.47993  0.85583  1.0000
  C   C213      1.0  0.21264  0.46098  0.83453  1.0000
  H   H319      1.0  0.19168  0.47439  0.86421  1.0000
  Fe  Fe43      1.0  0.26051  0.49685  0.98531  1.0000
  H   H320      1.0  0.21100  0.23699  0.74931  1.0000
  S   S81       1.0  0.21906  0.50127  0.97684  1.0000
  H   H321      1.0  0.17725  0.06659  0.80926  1.0000
  S   S82       1.0  0.20871  0.04572  0.98275  1.0000
  H   H322      1.0  0.14974  0.06130  0.81781  1.0000
  H   H323      1.0  0.17295  0.06338  0.78482  1.0000
  H   H324      1.0  0.15913  0.01821  0.78589  1.0000
  H   H325      1.0  0.31275  0.41383  0.73877  1.0000
  H   H326      1.0  0.32016  0.15765  0.96766  1.0000
  H   H327      1.0  0.32333  0.45465  0.77814  1.0000
  H   H328      1.0  0.32454  0.39932  0.97190  1.0000
  H   H329      1.0  0.18392  0.26311  0.74091  1.0000
  H   H330      1.0  0.23960  0.28580  0.74216  1.0000
  S   S83       1.0  0.32504  0.20571  0.94546  1.0000
  Fe  Fe44      1.0  0.32685  0.24577  0.92797  1.0000
  S   S84       1.0  0.03725  0.12195  0.73744  1.0000
  Fe  Fe45      1.0  0.25525  0.56082  0.00419  1.0000
  N   N21       1.0  0.32518  0.93717  0.23222  1.0000
  S   S85       1.0  0.27363  0.58862  0.02241  1.0000
  C   C214      1.0  0.32740  0.87612  0.00975  1.0000
  S   S86       1.0  0.23418  0.97991  0.00340  1.0000
  Fe  Fe46      1.0  0.26845  0.97882  0.99242  1.0000
  C   C215      1.0  0.31218  0.64825  0.14092  1.0000
  H   H331      1.0  0.18993  0.54256  0.03037  1.0000
  C   C216      1.0  0.25315  0.89110  0.01783  1.0000
  H   H332      1.0  0.21251  0.84931  0.01941  1.0000
  C   C217      1.0  0.31085  0.54514  0.17465  1.0000
  H   H333      1.0  0.29701  0.60177  0.17661  1.0000
  C   C218      1.0  0.32614  0.90863  0.03414  1.0000
  C   C219      1.0  0.22524  0.88327  0.99765  1.0000
  H   H334      1.0  0.22048  0.51740  0.06428  1.0000
  S   S87       1.0  0.21362  0.57088  0.99712  1.0000
  H   H335      1.0  0.31584  0.62409  0.13471  1.0000
  H   H336      1.0  0.30443  0.95396  0.02322  1.0000
  C   C220      1.0  0.29975  0.61774  0.02169  1.0000
  C   C221      1.0  0.32623  0.91367  0.22060  1.0000
  H   H337      1.0  0.27418  0.86520  0.99673  1.0000
  C   C222      1.0  0.31474  0.91099  0.01034  1.0000
  N   N22       1.0  0.24273  0.86380  0.00820  1.0000
  H   H338      1.0  0.31287  0.63740  0.15128  1.0000
  H   H339      1.0  0.25687  0.82329  0.99544  1.0000
  C   C223      1.0  0.30665  0.96869  0.22880  1.0000
  H   H340      1.0  0.32581  0.92157  0.04357  1.0000
  C   C224      1.0  0.30883  0.62639  0.00975  1.0000
  H   H341      1.0  0.24137  0.82099  0.02305  1.0000
  S   S88       1.0  0.29984  0.93273  0.99548  1.0000
  H   H342      1.0  0.32503  0.57125  0.98809  1.0000
  C   C225      1.0  0.30355  0.51960  0.20914  1.0000
  H   H343      1.0  0.32803  0.86341  0.00030  1.0000
  C   C226      1.0  0.31404  0.92708  0.02262  1.0000
  H   H344      1.0  0.20947  0.89887  0.00169  1.0000
  H   H345      1.0  0.22055  0.81479  0.00804  1.0000
  H   H346      1.0  0.30738  0.90186  0.21732  1.0000
  C   C227      1.0  0.25075  0.52738  0.04526  1.0000
  H   H347      1.0  0.29242  0.65941  0.13776  1.0000
  H   H348      1.0  0.28691  0.95899  0.22632  1.0000
  H   H349      1.0  0.29916  0.61648  0.00064  1.0000
  H   H350      1.0  0.30515  0.62519  0.04270  1.0000
  H   H351      1.0  0.26313  0.91315  0.01295  1.0000
  H   H352      1.0  0.26724  0.87785  0.02570  1.0000
  H   H353      1.0  0.31142  0.98490  0.22009  1.0000
  H   H354      1.0  0.29198  0.53410  0.17304  1.0000
  C   C228      1.0  0.31210  0.63164  0.03342  1.0000
  H   H355      1.0  0.23780  0.90536  0.02261  1.0000
  C   C229      1.0  0.21101  0.54545  0.03206  1.0000
  H   H356      1.0  0.29278  0.54633  0.20636  1.0000
  H   H357      1.0  0.25545  0.51870  0.21563  1.0000
  C   C230      1.0  0.26389  0.84505  0.00239  1.0000
  H   H358      1.0  0.25538  0.55705  0.04689  1.0000
  C   C231      1.0  0.31378  0.58362  0.17659  1.0000
  H   H359      1.0  0.31396  0.52237  0.21918  1.0000
  H   H360      1.0  0.27825  0.83171  0.01012  1.0000
  H   H361      1.0  0.21851  0.53675  0.02290  1.0000
  H   H362      1.0  0.31315  0.54720  0.00923  1.0000
  H   H363      1.0  0.19093  0.53082  0.05438  1.0000
  C   C232      1.0  0.22866  0.83593  0.01497  1.0000
  H   H364      1.0  0.21503  0.57545  0.03326  1.0000
  H   H365      1.0  0.23542  0.90392  0.99211  1.0000
  H   H366      1.0  0.32677  0.69883  0.15897  1.0000
  H   H367      1.0  0.25948  0.51896  0.03635  1.0000
  H   H368      1.0  0.31815  0.51617  0.20220  1.0000
  H   H369      1.0  0.31069  0.70348  0.12249  1.0000
  C   C233      1.0  0.32577  0.70830  0.14847  1.0000
  H   H370      1.0  0.21636  0.86374  0.99033  1.0000
  H   H371      1.0  0.30644  0.72126  0.14553  1.0000
  C   C234      1.0  0.21198  0.53419  0.05545  1.0000
  H   H372      1.0  0.21553  0.56399  0.05746  1.0000
  N   N23       1.0  0.22286  0.52248  0.04349  1.0000
  C   C235      1.0  0.32343  0.52049  0.00765  1.0000
  N   N24       1.0  0.04212  0.91797  0.26562  1.0000
  S   S89       1.0  0.20737  0.57207  0.45655  1.0000
  S   S90       1.0  0.00969  0.79937  0.42231  1.0000
  H   H373      1.0  0.05491  0.97214  0.27124  1.0000
  S   S91       1.0  0.23522  0.94514  0.46789  1.0000
  H   H374      1.0  0.04873  0.89683  0.24677  1.0000
  Fe  Fe47      1.0  0.08036  0.72832  0.40528  1.0000
  S   S92       1.0  0.07249  0.78848  0.40877  1.0000
  S   S93       1.0  0.07444  0.70136  0.38535  1.0000
  Fe  Fe48      1.0  0.08976  0.70878  0.43475  1.0000
  S   S94       1.0  0.08108  0.76765  0.44055  1.0000
  S   S95       1.0  0.09970  0.66056  0.44951  1.0000
  Fe  Fe49      1.0  0.04841  0.76809  0.42400  1.0000
  H   H375      1.0  0.14355  0.65275  0.41384  1.0000
  Fe  Fe50      1.0  0.10551  0.78318  0.42491  1.0000
  S   S96       1.0  0.13721  0.82435  0.42648  1.0000
  S   S97       1.0  0.05478  0.70789  0.41972  1.0000
  S   S98       1.0  0.11573  0.72436  0.41993  1.0000
  Fe  Fe51      1.0  0.04034  0.80367  0.29226  1.0000
  S   S99       1.0  0.06376  0.79893  0.27553  1.0000
  H   H376      1.0  0.16708  0.98660  0.28471  1.0000
  Fe  Fe52      1.0  0.08592  0.78118  0.31269  1.0000
  S   S100      1.0  0.11244  0.77454  0.29709  1.0000
  S   S101      1.0  0.10366  0.78472  0.33406  1.0000
  Fe  Fe53      1.0  0.09400  0.82826  0.28839  1.0000
  S   S102      1.0  0.11581  0.87493  0.27980  1.0000
  Fe  Fe54      1.0  0.08001  0.74515  0.28564  1.0000
  S   S103      1.0  0.08409  0.69820  0.27104  1.0000
  S   S104      1.0  0.06951  0.83650  0.30447  1.0000
  S   S105      1.0  0.05449  0.74842  0.30188  1.0000
  H   H377      1.0  0.04500  0.78109  0.38062  1.0000
  H   H378      1.0  0.03746  0.92602  0.28600  1.0000
  H   H379      1.0  0.05887  0.96022  0.25459  1.0000
  H   H380      1.0  0.11787  0.55874  0.41726  1.0000
  S   S106      1.0  0.17006  0.91076  0.47909  1.0000
  H   H381      1.0  0.02888  0.75111  0.36887  1.0000
  C   C236      1.0  0.15342  0.96984  0.28900  1.0000
  C   C237      1.0  0.14356  0.93837  0.28242  1.0000
  C   C238      1.0  0.12632  0.91568  0.28801  1.0000
  C   C239      1.0  0.11834  0.92547  0.30005  1.0000
  C   C240      1.0  0.12847  0.95660  0.30671  1.0000
  H   H382      1.0  0.24516  0.60777  0.47440  1.0000
  H   H383      1.0  0.14973  0.93121  0.27306  1.0000
  H   H384      1.0  0.10465  0.90880  0.30432  1.0000
  Fe  Fe55      1.0  0.22113  0.52718  0.47215  1.0000
  C   C241      1.0  0.08916  0.64874  0.27193  1.0000
  C   C242      1.0  0.09421  0.62862  0.28390  1.0000
  C   C243      1.0  0.09865  0.58959  0.28400  1.0000
  C   C244      1.0  0.09793  0.57003  0.27217  1.0000
  C   C245      1.0  0.09268  0.59010  0.26022  1.0000
  C   C246      1.0  0.08844  0.62914  0.26012  1.0000
  H   H385      1.0  0.09486  0.64316  0.29307  1.0000
  H   H386      1.0  0.10268  0.57449  0.29332  1.0000
  H   H387      1.0  0.09211  0.57565  0.25104  1.0000
  H   H388      1.0  0.08460  0.64433  0.25080  1.0000
  C   C247      1.0  0.08202  0.72529  0.37112  1.0000
  C   C248      1.0  0.07309  0.71235  0.35858  1.0000
  C   C249      1.0  0.07884  0.73088  0.34708  1.0000
  C   C250      1.0  0.09399  0.76207  0.34807  1.0000
  C   C251      1.0  0.10282  0.77501  0.36061  1.0000
  C   C252      1.0  0.09664  0.75698  0.37209  1.0000
  H   H389      1.0  0.06171  0.68788  0.35774  1.0000
  H   H390      1.0  0.07207  0.72056  0.33747  1.0000
  H   H391      1.0  0.11458  0.79909  0.36147  1.0000
  H   H392      1.0  0.10361  0.76725  0.38168  1.0000
  C   C253      1.0  0.16103  0.88721  0.46436  1.0000
  C   C254      1.0  0.17333  0.89280  0.45316  1.0000
  C   C255      1.0  0.16588  0.87324  0.44165  1.0000
  C   C256      1.0  0.14609  0.84800  0.44122  1.0000
  C   C257      1.0  0.13395  0.84219  0.45247  1.0000
  C   C258      1.0  0.14141  0.86175  0.46399  1.0000
  H   H393      1.0  0.18833  0.91251  0.45329  1.0000
  H   H394      1.0  0.17530  0.87796  0.43297  1.0000
  H   H395      1.0  0.11867  0.82291  0.45225  1.0000
  H   H396      1.0  0.13174  0.85736  0.47260  1.0000
  C   C259      1.0  0.17747  0.59664  0.45506  1.0000
  C   C260      1.0  0.17334  0.62752  0.44630  1.0000
  C   C261      1.0  0.14983  0.64779  0.44472  1.0000
  C   C262      1.0  0.13004  0.63702  0.45174  1.0000
  C   C263      1.0  0.13425  0.60630  0.46058  1.0000
  C   C264      1.0  0.15791  0.58628  0.46229  1.0000
  H   H397      1.0  0.18844  0.63588  0.44073  1.0000
  H   H398      1.0  0.14705  0.67175  0.43808  1.0000
  H   H399      1.0  0.11906  0.59779  0.46606  1.0000
  H   H400      1.0  0.16082  0.56250  0.46905  1.0000
  H   H401      1.0  0.07984  0.93953  0.26816  1.0000
  H   H402      1.0  0.01002  0.72047  0.38691  1.0000
  H   H403      1.0  0.14664  0.56935  0.41037  1.0000
  H   H404      1.0  0.06943  0.87663  0.26054  1.0000
  H   H405      1.0  0.03677  0.86366  0.25761  1.0000
  H   H406      1.0  0.20336  0.60281  0.48286  1.0000
  C   C265      1.0  0.04959  0.88749  0.25725  1.0000
  N   N25       1.0  0.11664  0.61180  0.40701  1.0000
  C   C266      1.0  0.10533  0.59703  0.39433  1.0000
  C   C267      1.0  0.09607  0.62755  0.41402  1.0000
  C   C268      1.0  0.13440  0.64128  0.40447  1.0000
  H   H407      1.0  0.12025  0.58473  0.38876  1.0000
  C   C269      1.0  0.22748  0.85025  0.47814  1.0000
  H   H408      1.0  0.20858  0.78216  0.47680  1.0000
  H   H409      1.0  0.08467  0.64971  0.40796  1.0000
  H   H410      1.0  0.13901  0.59187  0.42496  1.0000
  H   H411      1.0  0.12428  0.66489  0.39851  1.0000
  H   H412      1.0  0.14994  0.63059  0.39898  1.0000
  H   H413      1.0  0.01347  0.94094  0.25053  1.0000
  C   C270      1.0  0.31721  0.91492  0.24323  1.0000
  H   H414      1.0  0.29797  0.90357  0.24055  1.0000
  Fe  Fe56      1.0  0.23690  0.00694  0.47018  1.0000
  C   C271      1.0  0.00751  0.74805  0.39140  1.0000
  C   C272      1.0  0.00269  0.81463  0.38790  1.0000
  N   N26       1.0  0.16158  0.84979  0.32485  1.0000
  C   C273      1.0  0.16353  0.80896  0.32700  1.0000
  C   C274      1.0  0.18091  0.86741  0.33417  1.0000
  C   C275      1.0  0.13584  0.86370  0.32708  1.0000
  C   C276      1.0  0.16599  0.85912  0.31118  1.0000
  H   H415      1.0  0.14917  0.79491  0.32010  1.0000
  H   H416      1.0  0.15978  0.80081  0.33715  1.0000
  H   H417      1.0  0.18271  0.79733  0.32550  1.0000
  H   H418      1.0  0.20059  0.85761  0.33277  1.0000
  H   H419      1.0  0.17986  0.89829  0.33277  1.0000
  H   H420      1.0  0.17801  0.86098  0.34457  1.0000
  H   H421      1.0  0.12080  0.85179  0.31997  1.0000
  H   H422      1.0  0.13389  0.89452  0.32601  1.0000
  H   H423      1.0  0.13143  0.85581  0.33713  1.0000
  H   H424      1.0  0.16557  0.88978  0.30934  1.0000
  H   H425      1.0  0.15111  0.84748  0.30388  1.0000
  H   H426      1.0  0.18484  0.84789  0.30898  1.0000
  H   H427      1.0  0.12257  0.96358  0.31615  1.0000
  S   S107      1.0  0.10423  0.52080  0.27295  1.0000
  H   H428      1.0  0.03142  0.88002  0.28033  1.0000
  H   H429      1.0  0.24591  0.84608  0.47401  1.0000
  C   C277      1.0  0.14622  0.97881  0.30129  1.0000
  C   C278      1.0  0.02692  0.77792  0.37396  1.0000
  C   C279      1.0  0.04371  0.90421  0.27943  1.0000
  H   H430      1.0  0.21160  0.84750  0.47004  1.0000
  S   S108      1.0  0.20304  0.01007  0.48153  1.0000
  H   H431      1.0  0.24285  0.77872  0.48002  1.0000
  S   S109      1.0  0.99949  0.82720  0.29033  1.0000
  H   H432      1.0  0.31633  0.93212  0.25211  1.0000
  H   H433      1.0  0.21154  0.65567  0.46825  1.0000
  H   H434      1.0  0.06357  0.89506  0.28332  1.0000
  C   C280      1.0  0.01562  0.93116  0.26102  1.0000
  H   H435      1.0  0.00793  0.81177  0.26332  1.0000
  C   C281      1.0  0.05966  0.94890  0.26485  1.0000
  C   C282      1.0  0.25161  0.62349  0.48338  1.0000
  H   H436      1.0  0.00192  0.90858  0.26177  1.0000
  C   C283      1.0  0.13066  0.58157  0.41522  1.0000
  H   H437      1.0  0.09152  0.57511  0.39584  1.0000
  Fe  Fe57      1.0  0.20408  0.94771  0.48089  1.0000
  H   H438      1.0  0.02557  0.80070  0.36633  1.0000
  H   H439      1.0  0.08268  0.60600  0.41651  1.0000
  H   H440      1.0  0.09479  0.61948  0.38793  1.0000
  H   H441      1.0  0.10393  0.64008  0.42343  1.0000
  H   H442      1.0  0.02013  0.81925  0.39489  1.0000
  H   H443      1.0  0.00944  0.95447  0.26701  1.0000
  H   H444      1.0  0.02452  0.75173  0.39871  1.0000
  C   C284      1.0  0.22513  0.78574  0.48449  1.0000
  H   H445      1.0  0.22656  0.87941  0.48136  1.0000
  S   S110      1.0  0.26294  0.52882  0.47985  1.0000
  N   N27       1.0  0.00455  0.77858  0.38135  1.0000
  C   C285      1.0  0.21887  0.67116  0.47719  1.0000
  H   H446      1.0  0.00028  0.83838  0.38065  1.0000
  H   H447      1.0  0.23315  0.69067  0.47421  1.0000
  H   H448      1.0  0.26716  0.64157  0.48098  1.0000
  H   H449      1.0  0.20243  0.68773  0.48015  1.0000
  Fe  Fe58      1.0  0.26154  0.94068  0.48698  1.0000
  H   H450      1.0  0.30647  0.98825  0.23711  1.0000
  H   H451      1.0  0.23131  0.99816  0.69953  1.0000
  C   C286      1.0  0.21062  0.61977  0.49140  1.0000
  S   S111      1.0  0.26070  0.56229  0.51648  1.0000
  H   H452      1.0  0.24816  0.95632  0.69561  1.0000
  S   S112      1.0  0.20785  0.52329  0.49210  1.0000
  S   S113      1.0  0.23028  0.94074  0.49991  1.0000
  C   C287      1.0  0.30833  0.87888  0.50361  1.0000
  H   H453      1.0  0.26587  0.82153  0.49558  1.0000
  C   C288      1.0  0.24747  0.82805  0.49949  1.0000
  C   C289      1.0  0.32170  0.84429  0.50484  1.0000
  H   H454      1.0  0.30354  0.56914  0.50096  1.0000
  C   C290      1.0  0.29530  0.97816  0.70432  1.0000
  C   C291      1.0  0.31324  0.63712  0.53006  1.0000
  H   H455      1.0  0.29628  0.95475  0.69740  1.0000
  C   C292      1.0  0.20146  0.83286  0.49492  1.0000
  H   H456      1.0  0.22374  0.76528  0.49266  1.0000
  H   H457      1.0  0.32041  0.82586  0.49660  1.0000
  H   H458      1.0  0.22436  0.68281  0.50340  1.0000
  H   H459      1.0  0.24911  0.97010  0.71245  1.0000
  N   N28       1.0  0.23025  0.64524  0.48790  1.0000
  H   H460      1.0  0.24858  0.85711  0.50302  1.0000
  H   H461      1.0  0.24849  0.64689  0.50783  1.0000
  H   H462      1.0  0.30004  0.92934  0.51344  1.0000
  H   H463      1.0  0.19391  0.63514  0.49460  1.0000
  C   C293      1.0  0.28823  0.58963  0.51810  1.0000
  H   H464      1.0  0.21843  0.60017  0.49961  1.0000
  C   C294      1.0  0.30601  0.58814  0.50903  1.0000
  C   C295      1.0  0.29193  0.61429  0.52859  1.0000
  H   H465      1.0  0.25513  0.68524  0.49747  1.0000
  H   H466      1.0  0.27832  0.61559  0.53567  1.0000
  C   C296      1.0  0.31023  0.90262  0.51430  1.0000
  C   C297      1.0  0.24915  0.98071  0.70214  1.0000
  H   H467      1.0  0.29610  0.96593  0.71445  1.0000
  C   C298      1.0  0.23992  0.66617  0.49964  1.0000
  H   H468      1.0  0.18444  0.83131  0.48736  1.0000
  N   N29       1.0  0.22540  0.82417  0.48928  1.0000
  C   C299      1.0  0.32518  0.95743  0.66020  1.0000
  S   S114      1.0  0.28979  0.89153  0.48850  1.0000
  H   H469      1.0  0.31594  0.65577  0.53823  1.0000
  C   C300      1.0  0.32603  0.89222  0.52601  1.0000
  Fe  Fe59      1.0  0.23237  0.00297  0.49926  1.0000
  N   N30       1.0  0.27208  0.00222  0.70076  1.0000
  H   H470      1.0  0.31293  0.99407  0.70397  1.0000
  H   H471      1.0  0.20117  0.86171  0.49868  1.0000
  H   H472      1.0  0.32790  0.91108  0.53413  1.0000
  S   S115      1.0  0.26643  0.00256  0.48797  1.0000
  C   C301      1.0  0.32295  0.99109  0.66680  1.0000
  H   H473      1.0  0.27107  0.99251  0.67998  1.0000
  H   H474      1.0  0.24644  0.80938  0.50820  1.0000
  H   H475      1.0  0.31602  0.95534  0.65020  1.0000
  H   H476      1.0  0.26013  0.60294  0.49110  1.0000
  Fe  Fe60      1.0  0.24982  0.52270  0.49976  1.0000
  H   H477      1.0  0.19891  0.81355  0.50325  1.0000
  C   C302      1.0  0.32726  0.61103  0.51048  1.0000
  H   H478      1.0  0.30753  0.54764  0.73314  1.0000
  H   H479      1.0  0.32849  0.89058  0.57854  1.0000
  H   H480      1.0  0.15196  0.72624  0.78493  1.0000
  S   S116      1.0  0.21151  0.60199  0.95939  1.0000
  H   H481      1.0  0.03481  0.76841  0.86264  1.0000
  C   C303      1.0  0.16350  0.73029  0.77664  1.0000
  N   N31       1.0  0.00753  0.77221  0.87660  1.0000
  S   S117      1.0  0.24497  0.97898  0.97244  1.0000
  Fe  Fe61      1.0  0.09275  0.73455  0.93824  1.0000
  S   S118      1.0  0.11836  0.75200  0.92354  1.0000
  S   S119      1.0  0.10480  0.69132  0.95444  1.0000
  Fe  Fe62      1.0  0.04841  0.78667  0.92608  1.0000
  S   S120      1.0  0.07162  0.80909  0.91076  1.0000
  H   H482      1.0  0.32149  0.61082  0.73900  1.0000
  Fe  Fe63      1.0  0.08369  0.74919  0.90848  1.0000
  S   S121      1.0  0.08039  0.71240  0.89058  1.0000
  Fe  Fe64      1.0  0.10420  0.81022  0.92735  1.0000
  S   S122      1.0  0.13432  0.85460  0.92956  1.0000
  S   S123      1.0  0.05899  0.72711  0.92306  1.0000
  S   S124      1.0  0.08012  0.79262  0.94286  1.0000
  Fe  Fe65      1.0  0.07812  0.73925  0.81218  1.0000
  S   S125      1.0  0.10800  0.74396  0.79829  1.0000
  S   S126      1.0  0.08516  0.76943  0.83157  1.0000
  Fe  Fe66      1.0  0.04102  0.70253  0.79163  1.0000
  S   S127      1.0  0.06773  0.70562  0.77630  1.0000
  H   H483      1.0  0.07642  0.53195  0.76732  1.0000
  Fe  Fe67      1.0  0.09821  0.68556  0.79247  1.0000
  S   S128      1.0  0.12772  0.64467  0.78554  1.0000
  Fe  Fe68      1.0  0.07572  0.76395  0.78316  1.0000
  S   S129      1.0  0.07991  0.80850  0.76714  1.0000
  S   S130      1.0  0.07101  0.67912  0.80764  1.0000
  S   S131      1.0  0.04617  0.76231  0.79724  1.0000
  S   S132      1.0  0.10922  0.98047  0.76990  1.0000
  H   H484      1.0  0.02728  0.71874  0.87849  1.0000
  H   H485      1.0  0.08344  0.61695  0.76607  1.0000
  C   C304      1.0  0.13670  0.59866  0.79166  1.0000
  C   C305      1.0  0.15338  0.57668  0.78502  1.0000
  C   C306      1.0  0.06419  0.60535  0.76354  1.0000
  H   H486      1.0  0.13686  0.89218  0.97597  1.0000
  H   H487      1.0  0.17357  0.52340  0.78418  1.0000
  C   C307      1.0  0.12729  0.58325  0.80270  1.0000
  H   H488      1.0  0.16079  0.58820  0.77646  1.0000
  H   H489      1.0  0.13389  0.79112  0.78034  1.0000
  C   C308      1.0  0.03186  0.56620  0.77062  1.0000
  H   H490      1.0  0.11460  0.59977  0.80799  1.0000
  C   C309      1.0  0.08746  0.85654  0.76823  1.0000
  C   C310      1.0  0.09506  0.87316  0.78025  1.0000
  C   C311      1.0  0.10158  0.91098  0.78054  1.0000
  C   C312      1.0  0.10048  0.93288  0.76886  1.0000
  C   C313      1.0  0.09291  0.91621  0.75683  1.0000
  C   C314      1.0  0.08657  0.87832  0.75654  1.0000
  H   H491      1.0  0.09591  0.85693  0.78934  1.0000
  H   H492      1.0  0.10739  0.92341  0.78991  1.0000
  C   C315      1.0  0.05806  0.60148  0.78649  1.0000
  S   S133      1.0  0.00722  0.80735  0.92681  1.0000
  C   C316      1.0  0.08232  0.72846  0.87426  1.0000
  C   C317      1.0  0.07673  0.70412  0.86381  1.0000
  C   C318      1.0  0.07749  0.71611  0.85066  1.0000
  C   C319      1.0  0.08393  0.75259  0.84787  1.0000
  C   C320      1.0  0.08937  0.77693  0.85833  1.0000
  C   C321      1.0  0.08858  0.76498  0.87147  1.0000
  H   H493      1.0  0.07185  0.67581  0.86588  1.0000
  H   H494      1.0  0.07326  0.69717  0.84268  1.0000
  H   H495      1.0  0.09443  0.80517  0.85625  1.0000
  H   H496      1.0  0.09303  0.78397  0.87942  1.0000
  C   C322      1.0  0.16550  0.91935  0.96628  1.0000
  C   C323      1.0  0.14499  0.89557  0.96683  1.0000
  C   C324      1.0  0.13465  0.87648  0.95561  1.0000
  C   C325      1.0  0.14484  0.88075  0.94368  1.0000
  C   C326      1.0  0.16529  0.90463  0.94313  1.0000
  C   C327      1.0  0.17560  0.92377  0.95435  1.0000
  C   C328      1.0  0.99887  0.66157  0.76231  1.0000
  H   H497      1.0  0.11876  0.85859  0.95620  1.0000
  H   H498      1.0  0.17337  0.90820  0.93397  1.0000
  H   H499      1.0  0.19131  0.94202  0.95373  1.0000
  C   C329      1.0  0.18194  0.62681  0.95832  1.0000
  C   C330      1.0  0.17499  0.65178  0.94764  1.0000
  C   C331      1.0  0.15160  0.67215  0.94647  1.0000
  C   C332      1.0  0.13488  0.66753  0.95593  1.0000
  C   C333      1.0  0.14178  0.64247  0.96658  1.0000
  C   C334      1.0  0.16526  0.62222  0.96780  1.0000
  H   H500      1.0  0.18782  0.65535  0.94026  1.0000
  H   H501      1.0  0.14655  0.69121  0.93822  1.0000
  H   H502      1.0  0.12888  0.63856  0.97390  1.0000
  H   H503      1.0  0.17036  0.60287  0.97602  1.0000
  H   H504      1.0  0.14626  0.78394  0.96731  1.0000
  H   H505      1.0  0.05022  0.62934  0.76170  1.0000
  H   H506      1.0  0.02016  0.78321  0.89692  1.0000
  H   H507      1.0  0.05318  0.58381  0.79482  1.0000
  H   H508      1.0  0.12787  0.71388  0.75685  1.0000
  H   H509      1.0  0.16446  0.80521  0.77648  1.0000
  H   H510      1.0  0.14206  0.75063  0.95452  1.0000
  H   H511      1.0  0.00230  0.72419  0.88876  1.0000
  H   H512      1.0  0.21119  0.80957  0.96145  1.0000
  H   H513      1.0  0.02646  0.54694  0.77839  1.0000
  C   C335      1.0  0.12559  0.74172  0.76117  1.0000
  H   H514      1.0  0.21149  0.74168  0.96542  1.0000
  H   H515      1.0  0.03055  0.55106  0.76120  1.0000
  S   S134      1.0  0.26681  0.55822  0.98387  1.0000
  H   H516      1.0  0.18235  0.74041  0.78088  1.0000
  H   H517      1.0  0.11506  0.76079  0.75348  1.0000
  H   H518      1.0  0.07279  0.53020  0.78459  1.0000
  H   H519      1.0  0.18732  0.74984  0.97615  1.0000
  H   H520      1.0  0.12125  0.01070  0.79744  1.0000
  H   H521      1.0  0.13628  0.81354  0.76485  1.0000
  H   H522      1.0  0.00217  0.76875  0.85544  1.0000
  H   H523      1.0  0.17623  0.74097  0.93976  1.0000
  H   H524      1.0  0.15690  0.78050  0.74778  1.0000
  C   C336      1.0  0.00786  0.73145  0.87889  1.0000
  H   H525      1.0  0.07721  0.61275  0.78946  1.0000
  N   N32       1.0  0.09601  0.61423  0.92242  1.0000
  C   C337      1.0  0.06842  0.62383  0.92175  1.0000
  C   C338      1.0  0.10034  0.58721  0.91218  1.0000
  C   C339      1.0  0.10542  0.59784  0.93559  1.0000
  C   C340      1.0  0.10987  0.64828  0.92014  1.0000
  H   H526      1.0  0.06457  0.64355  0.92960  1.0000
  H   H527      1.0  0.05717  0.59873  0.92311  1.0000
  H   H528      1.0  0.06089  0.63752  0.91210  1.0000
  H   H529      1.0  0.12102  0.57950  0.91247  1.0000
  H   H530      1.0  0.09006  0.56115  0.91351  1.0000
  H   H531      1.0  0.09358  0.59895  0.90213  1.0000
  H   H532      1.0  0.12649  0.59225  0.93677  1.0000
  H   H533      1.0  0.09619  0.57121  0.93743  1.0000
  H   H534      1.0  0.10130  0.61688  0.94356  1.0000
  H   H535      1.0  0.13086  0.64253  0.92099  1.0000
  H   H536      1.0  0.10619  0.66975  0.92738  1.0000
  H   H537      1.0  0.10379  0.66082  0.91016  1.0000
  C   C341      1.0  0.07657  0.54894  0.77629  1.0000
  N   N33       1.0  0.05766  0.58045  0.77423  1.0000
  C   C342      1.0  0.18393  0.76792  0.94317  1.0000
  H   H538      1.0  0.18306  0.83381  0.95379  1.0000
  C   C343      1.0  0.15099  0.77733  0.95730  1.0000
  C   C344      1.0  0.19002  0.81090  0.96093  1.0000
  Fe  Fe69      1.0  0.21077  0.98274  0.98336  1.0000
  C   C345      1.0  0.16066  0.53984  0.78936  1.0000
  C   C346      1.0  0.02547  0.78884  0.88686  1.0000
  H   H539      1.0  0.06422  0.59049  0.75412  1.0000
  C   C347      1.0  0.14622  0.79315  0.77229  1.0000
  H   H540      1.0  0.16661  0.70220  0.77262  1.0000
  H   H541      1.0  0.20476  0.76694  0.94233  1.0000
  H   H542      1.0  0.04406  0.62551  0.78524  1.0000
  N   N34       1.0  0.15043  0.75653  0.76645  1.0000
  N   N35       1.0  0.17888  0.77522  0.95680  1.0000
  H   H543      1.0  0.01706  0.58922  0.76929  1.0000
  C   C348      1.0  0.19054  0.74483  0.96577  1.0000
  H   H544      1.0  0.18523  0.77218  0.75926  1.0000
  H   H545      1.0  0.14148  0.79919  0.95036  1.0000
  H   H546      1.0  0.32048  0.52597  0.98125  1.0000
  H   H547      1.0  0.12722  0.53494  0.81562  1.0000
  C   C349      1.0  0.13455  0.54644  0.80703  1.0000
  H   H548      1.0  0.09631  0.55883  0.77870  1.0000
  H   H549      1.0  0.01600  0.67710  0.76218  1.0000
  C   C350      1.0  0.01539  0.78050  0.86348  1.0000
  S   S135      1.0  0.17815  0.94189  0.98087  1.0000
  H   H550      1.0  0.18480  0.81919  0.97070  1.0000
  H   H551      1.0  0.02592  0.81959  0.88549  1.0000
  H   H552      1.0  0.18223  0.71761  0.96311  1.0000
  S   S136      1.0  0.00254  0.67502  0.78909  1.0000
  C   C351      1.0  0.16635  0.76093  0.75564  1.0000
  H   H553      1.0  0.17483  0.79007  0.93613  1.0000
  H   H554      1.0  0.08076  0.86588  0.74717  1.0000
  H   H555      1.0  0.09197  0.93250  0.74776  1.0000
  Fe  Fe70      1.0  0.22459  0.56322  0.97686  1.0000
  H   H556      1.0  0.99624  0.64823  0.74170  1.0000
  H   H557      1.0  0.11308  0.73858  0.76906  1.0000
  H   H558      1.0  0.04526  0.77745  0.88668  1.0000
  C   C352      1.0  0.15133  0.52448  0.80044  1.0000
  H   H559      1.0  0.31823  0.53025  0.74963  1.0000
  H   H560      1.0  0.01606  0.81100  0.86153  1.0000
  H   H561      1.0  0.16985  0.73384  0.75099  1.0000
  H   H562      1.0  0.99587  0.74053  0.91157  1.0000
  C   C353      1.0  0.32436  0.53609  0.73976  1.0000
  H   H563      1.0  0.34358  0.47089  0.99218  1.0000
  C   C354      1.0  0.35724  0.48981  0.99761  1.0000
  Fe  Fe71      1.0  0.35395  0.10971  0.22193  1.0000
  H   H564      1.0  0.63427  0.50289  0.23399  1.0000
  C   C355      1.0  0.63672  0.47759  0.22824  1.0000
  C   C356      1.0  0.39251  0.18509  0.22404  1.0000
  C   C357      1.0  0.34142  0.19269  0.19364  1.0000
  C   C358      1.0  0.42724  0.19305  0.21114  1.0000
  S   S137      1.0  0.38901  0.08773  0.21380  1.0000
  Fe  Fe72      1.0  0.37605  0.02972  0.21804  1.0000
  H   H565      1.0  0.37901  0.19821  0.23028  1.0000
  H   H566      1.0  0.38381  0.25809  0.21915  1.0000
  H   H567      1.0  0.35134  0.21889  0.17584  1.0000
  C   C359      1.0  0.64854  0.03123  0.99253  1.0000
  H   H568      1.0  0.63951  0.03559  0.00167  1.0000
  H   H569      1.0  0.35346  0.16807  0.19291  1.0000
  N   N36       1.0  0.41085  0.21171  0.21993  1.0000
  H   H570      1.0  0.65370  0.40764  0.22530  1.0000
  S   S138      1.0  0.33026  0.47204  0.17315  1.0000
  H   H571      1.0  0.40259  0.16123  0.22977  1.0000
  C   C360      1.0  0.34007  0.22145  0.18394  1.0000
  H   H572      1.0  0.62335  0.45688  0.23141  1.0000
  H   H573      1.0  0.63063  0.48561  0.21771  1.0000
  C   C361      1.0  0.42690  0.22448  0.23173  1.0000
  H   H574      1.0  0.44148  0.21217  0.20786  1.0000
  H   H575      1.0  0.38083  0.17357  0.21539  1.0000
  H   H576      1.0  0.38452  0.23500  0.20389  1.0000
  C   C362      1.0  0.39673  0.24384  0.21286  1.0000
  H   H577      1.0  0.40993  0.26475  0.20967  1.0000
  H   H578      1.0  0.41570  0.18279  0.20218  1.0000
  H   H579      1.0  0.33028  0.50784  0.01752  1.0000
  H   H580      1.0  0.36481  0.47548  0.00711  1.0000
  H   H581      1.0  0.37339  0.49300  0.99169  1.0000
  Fe  Fe73      1.0  0.40736  0.08580  0.23497  1.0000
  H   H582      1.0  0.44104  0.24467  0.22905  1.0000
  S   S139      1.0  0.33912  0.05239  0.22425  1.0000
  H   H583      1.0  0.66101  0.43648  0.21178  1.0000
  H   H584      1.0  0.43797  0.16845  0.21619  1.0000
  H   H585      1.0  0.55245  0.07771  0.29114  1.0000
  H   H586      1.0  0.59184  0.38145  0.33448  1.0000
  Fe  Fe74      1.0  0.34972  0.23230  0.40973  1.0000
  S   S140      1.0  0.38863  0.23088  0.40210  1.0000
  H   H587      1.0  0.62374  0.16907  0.46999  1.0000
  Fe  Fe75      1.0  0.53391  0.26847  0.42609  1.0000
  S   S141      1.0  0.54282  0.32447  0.41815  1.0000
  S   S142      1.0  0.49605  0.26378  0.43447  1.0000
  Fe  Fe76      1.0  0.58651  0.23576  0.42157  1.0000
  S   S143      1.0  0.59878  0.28936  0.41293  1.0000
  S   S144      1.0  0.61454  0.18667  0.42181  1.0000
  Fe  Fe77      1.0  0.58183  0.31621  0.42976  1.0000
  S   S145      1.0  0.59858  0.35543  0.44556  1.0000
  Fe  Fe78      1.0  0.55886  0.29252  0.40212  1.0000
  S   S146      1.0  0.54368  0.30592  0.38073  1.0000
  S   S147      1.0  0.57178  0.26205  0.43891  1.0000
  S   S148      1.0  0.54782  0.23691  0.40952  1.0000
  Fe  Fe79      1.0  0.54140  0.19834  0.29342  1.0000
  S   S149      1.0  0.56343  0.20869  0.27642  1.0000
  S   S150      1.0  0.50287  0.17111  0.29173  1.0000
  Fe  Fe80      1.0  0.58362  0.22852  0.31333  1.0000
  S   S151      1.0  0.60887  0.23962  0.29751  1.0000
  S   S152      1.0  0.60064  0.24321  0.33404  1.0000
  Fe  Fe81      1.0  0.57313  0.26387  0.28567  1.0000
  S   S153      1.0  0.56486  0.32120  0.27533  1.0000
  Fe  Fe82      1.0  0.59706  0.18351  0.28993  1.0000
  S   S154      1.0  0.62247  0.13932  0.28163  1.0000
  S   S155      1.0  0.54844  0.25482  0.30188  1.0000
  S   S156      1.0  0.57449  0.17080  0.30656  1.0000
  S   S157      1.0  0.62273  0.47115  0.26501  1.0000
  C   C363      1.0  0.63486  0.09700  0.28974  1.0000
  H   H588      1.0  0.60191  0.32320  0.29948  1.0000
  H   H589      1.0  0.52863  0.05570  0.25657  1.0000
  H   H590      1.0  0.62016  0.10727  0.30808  1.0000
  C   C364      1.0  0.56767  0.34068  0.31543  1.0000
  C   C365      1.0  0.58161  0.36218  0.27224  1.0000
  C   C366      1.0  0.60813  0.36417  0.27520  1.0000
  C   C367      1.0  0.62025  0.39773  0.27294  1.0000
  C   C368      1.0  0.60616  0.42971  0.26762  1.0000
  C   C369      1.0  0.57969  0.42766  0.26459  1.0000
  C   C370      1.0  0.56756  0.39414  0.26690  1.0000
  H   H591      1.0  0.61936  0.33979  0.27908  1.0000
  H   H592      1.0  0.64075  0.39888  0.27527  1.0000
  H   H593      1.0  0.56855  0.45188  0.26046  1.0000
  H   H594      1.0  0.54706  0.39301  0.26452  1.0000
  C   C371      1.0  0.55959  0.28857  0.36777  1.0000
  C   C372      1.0  0.54556  0.28220  0.35548  1.0000
  C   C373      1.0  0.55777  0.26821  0.34501  1.0000
  C   C374      1.0  0.58420  0.26123  0.34670  1.0000
  C   C375      1.0  0.59826  0.26843  0.35888  1.0000
  C   C376      1.0  0.58601  0.28167  0.36942  1.0000
  H   H595      1.0  0.52512  0.28767  0.35410  1.0000
  H   H596      1.0  0.54672  0.26273  0.33567  1.0000
  H   H597      1.0  0.61877  0.26354  0.36019  1.0000
  H   H598      1.0  0.59706  0.28717  0.37876  1.0000
  N   N37       1.0  0.59331  0.35609  0.31573  1.0000
  C   C377      1.0  0.62881  0.16756  0.43713  1.0000
  H   H599      1.0  0.51461  0.08881  0.26667  1.0000
  H   H600      1.0  0.60182  0.19352  0.44853  1.0000
  H   H601      1.0  0.59501  0.06436  0.27315  1.0000
  H   H602      1.0  0.59180  0.12369  0.36963  1.0000
  C   C378      1.0  0.62622  0.38240  0.44715  1.0000
  H   H603      1.0  0.55935  0.20885  0.38095  1.0000
  H   H604      1.0  0.55443  0.35962  0.32003  1.0000
  H   H605      1.0  0.55967  0.10123  0.25061  1.0000
  C   C379      1.0  0.45173  0.12236  0.26497  1.0000
  C   C380      1.0  0.46462  0.13558  0.27675  1.0000
  C   C381      1.0  0.48664  0.15644  0.27663  1.0000
  C   C382      1.0  0.49546  0.16444  0.26456  1.0000
  C   C383      1.0  0.48280  0.15082  0.25281  1.0000
  H   H606      1.0  0.43492  0.10612  0.26521  1.0000
  H   H607      1.0  0.45757  0.12942  0.28603  1.0000
  H   H608      1.0  0.51200  0.18119  0.26430  1.0000
  S   S158      1.0  0.44623  0.11232  0.23792  1.0000
  C   C384      1.0  0.46639  0.25407  0.42542  1.0000
  C   C385      1.0  0.44366  0.26594  0.43019  1.0000
  C   C386      1.0  0.41967  0.25907  0.42317  1.0000
  C   C387      1.0  0.41822  0.23980  0.41140  1.0000
  C   C388      1.0  0.44094  0.22770  0.40670  1.0000
  C   C389      1.0  0.46493  0.23475  0.41366  1.0000
  H   H609      1.0  0.44463  0.28105  0.43926  1.0000
  H   H610      1.0  0.40232  0.26925  0.42674  1.0000
  H   H611      1.0  0.43996  0.21263  0.39762  1.0000
  H   H612      1.0  0.48228  0.22500  0.41000  1.0000
  Fe  Fe83      1.0  0.36054  0.05180  0.24450  1.0000
  H   H613      1.0  0.52640  0.04450  0.27362  1.0000
  C   C390      1.0  0.65073  0.14404  0.43764  1.0000
  H   H614      1.0  0.60019  0.21874  0.39389  1.0000
  S   S159      1.0  0.34135  0.02925  0.26146  1.0000
  H   H615      1.0  0.57360  0.20375  0.36602  1.0000
  N   N38       1.0  0.55555  0.08282  0.27038  1.0000
  C   C391      1.0  0.61015  0.32966  0.30968  1.0000
  C   C392      1.0  0.65354  0.13915  0.46153  1.0000
  H   H616      1.0  0.63435  0.37736  0.42715  1.0000
  H   H617      1.0  0.62935  0.34095  0.30911  1.0000
  H   H618      1.0  0.65841  0.13709  0.42864  1.0000
  C   C393      1.0  0.46094  0.12964  0.25295  1.0000
  H   H619      1.0  0.57345  0.03090  0.27812  1.0000
  H   H620      1.0  0.60114  0.13450  0.39963  1.0000
  S   S160      1.0  0.34178  0.24884  0.42996  1.0000
  H   H621      1.0  0.64769  0.26606  0.47369  1.0000
  C   C394      1.0  0.61898  0.17615  0.44882  1.0000
  C   C395      1.0  0.63427  0.39765  0.45945  1.0000
  C   C396      1.0  0.60407  0.36177  0.32955  1.0000
  H   H622      1.0  0.33746  0.17487  0.29730  1.0000
  H   H623      1.0  0.62364  0.39244  0.46766  1.0000
  H   H624      1.0  0.33434  0.13278  0.31687  1.0000
  N   N39       1.0  0.47004  0.33048  0.39086  1.0000
  C   C397      1.0  0.44656  0.33824  0.38162  1.0000
  C   C398      1.0  0.48082  0.29318  0.38841  1.0000
  C   C399      1.0  0.46378  0.33170  0.40455  1.0000
  C   C400      1.0  0.48898  0.35873  0.38886  1.0000
  H   H625      1.0  0.45055  0.33738  0.37119  1.0000
  H   H626      1.0  0.43788  0.36617  0.38320  1.0000
  H   H627      1.0  0.43186  0.31737  0.38292  1.0000
  H   H628      1.0  0.49790  0.28569  0.39561  1.0000
  H   H629      1.0  0.46663  0.27136  0.38917  1.0000
  H   H630      1.0  0.48700  0.29185  0.37840  1.0000
  H   H631      1.0  0.48079  0.32432  0.41184  1.0000
  H   H632      1.0  0.44875  0.31179  0.40622  1.0000
  H   H633      1.0  0.45651  0.35982  0.40694  1.0000
  H   H634      1.0  0.50695  0.35347  0.39565  1.0000
  H   H635      1.0  0.48161  0.38729  0.39061  1.0000
  H   H636      1.0  0.49438  0.35827  0.37867  1.0000
  H   H637      1.0  0.62658  0.18627  0.39375  1.0000
  C   C401      1.0  0.58420  0.14809  0.39358  1.0000
  H   H638      1.0  0.57101  0.12590  0.39014  1.0000
  C   C402      1.0  0.60461  0.14566  0.37371  1.0000
  H   H639      1.0  0.55443  0.16774  0.37141  1.0000
  H   H640      1.0  0.48997  0.15680  0.24355  1.0000
  C   C403      1.0  0.57567  0.05311  0.27063  1.0000
  H   H641      1.0  0.57916  0.41286  0.31267  1.0000
  H   H642      1.0  0.60571  0.33502  0.33539  1.0000
  H   H643      1.0  0.41091  0.13663  0.46452  1.0000
  H   H644      1.0  0.56858  0.31334  0.32084  1.0000
  H   H645      1.0  0.38005  0.13057  0.45547  1.0000
  H   H646      1.0  0.63642  0.48848  0.47501  1.0000
  H   H647      1.0  0.61042  0.40389  0.30785  1.0000
  H   H648      1.0  0.61055  0.16164  0.36519  1.0000
  H   H649      1.0  0.65789  0.43243  0.24801  1.0000
  H   H650      1.0  0.57538  0.10999  0.28687  1.0000
  N   N40       1.0  0.40459  0.16538  0.44567  1.0000
  C   C404      1.0  0.39466  0.19989  0.45113  1.0000
  C   C405      1.0  0.43214  0.16844  0.44464  1.0000
  C   C406      1.0  0.39075  0.15978  0.43245  1.0000
  C   C407      1.0  0.40070  0.13341  0.45445  1.0000
  H   H651      1.0  0.37387  0.19848  0.45200  1.0000
  H   H652      1.0  0.39715  0.22458  0.44474  1.0000
  H   H653      1.0  0.40461  0.20507  0.46112  1.0000
  H   H654      1.0  0.44037  0.14259  0.44080  1.0000
  H   H655      1.0  0.43562  0.19167  0.43779  1.0000
  H   H656      1.0  0.44315  0.17379  0.45436  1.0000
  H   H657      1.0  0.39249  0.18393  0.42568  1.0000
  H   H658      1.0  0.37003  0.15635  0.43293  1.0000
  H   H659      1.0  0.39813  0.13460  0.42782  1.0000
  H   H660      1.0  0.40765  0.10679  0.45056  1.0000
  H   H661      1.0  0.57542  0.03991  0.26089  1.0000
  H   H662      1.0  0.58268  0.38853  0.29787  1.0000
  C   C408      1.0  0.63075  0.08793  0.30266  1.0000
  C   C409      1.0  0.60948  0.19895  0.38757  1.0000
  S   S161      1.0  0.39698  0.02628  0.23858  1.0000
  H   H663      1.0  0.57443  0.16588  0.40035  1.0000
  C   C410      1.0  0.65478  0.02849  0.30188  1.0000
  C   C411      1.0  0.64078  0.05402  0.30870  1.0000
  H   H664      1.0  0.61294  0.30287  0.31543  1.0000
  C   C412      1.0  0.63133  0.16207  0.46096  1.0000
  H   H665      1.0  0.62207  0.13160  0.37909  1.0000
  H   H666      1.0  0.43779  0.20068  0.23724  1.0000
  C   C413      1.0  0.64873  0.07141  0.28288  1.0000
  H   H667      1.0  0.55897  0.33624  0.30511  1.0000
  N   N41       1.0  0.59175  0.17028  0.38244  1.0000
  H   H668      1.0  0.57891  0.12483  0.26329  1.0000
  H   H669      1.0  0.54194  0.12210  0.28369  1.0000
  C   C414      1.0  0.55634  0.09881  0.28360  1.0000
  H   H670      1.0  0.61633  0.21537  0.37945  1.0000
  H   H671      1.0  0.62764  0.29509  0.46181  1.0000
  C   C415      1.0  0.56876  0.18842  0.37490  1.0000
  C   C416      1.0  0.59133  0.39195  0.30825  1.0000
  H   H672      1.0  0.63777  0.04760  0.31876  1.0000
  H   H673      1.0  0.62351  0.37313  0.33013  1.0000
  H   H674      1.0  0.65207  0.07811  0.27289  1.0000
  H   H675      1.0  0.63909  0.49699  0.44567  1.0000
  H   H676      1.0  0.54527  0.13523  0.26028  1.0000
  C   C417      1.0  0.64031  0.38887  0.43667  1.0000
  C   C418      1.0  0.53022  0.06720  0.26663  1.0000
  S   S162      1.0  0.37288  0.11046  0.24286  1.0000
  C   C419      1.0  0.56001  0.11227  0.26070  1.0000
  H   H677      1.0  0.61102  0.48836  0.45330  1.0000
  C   C420      1.0  0.65041  0.27554  0.44076  1.0000
  H   H678      1.0  0.62807  0.24552  0.46043  1.0000
  H   H679      1.0  0.63806  0.30130  0.43894  1.0000
  C   C421      1.0  0.64029  0.26947  0.46305  1.0000
  C   C422      1.0  0.65614  0.41923  0.46127  1.0000
  H   H680      1.0  0.34091  0.10609  0.29537  1.0000
  C   C423      1.0  0.65854  0.03727  0.28888  1.0000
  H   H681      1.0  0.63845  0.25159  0.43766  1.0000
  C   C424      1.0  0.64768  0.51130  0.47139  1.0000
  C   C425      1.0  0.62294  0.51087  0.45000  1.0000
  S   S163      1.0  0.33076  0.17714  0.41042  1.0000
  H   H682      1.0  0.41510  0.23822  0.23867  1.0000
  N   N42       1.0  0.66129  0.27151  0.45476  1.0000
  C   C426      1.0  0.66188  0.41115  0.43843  1.0000
  C   C427      1.0  0.33715  0.32330  0.69403  1.0000
  S   S164      1.0  0.34962  0.46045  0.71674  1.0000
  Fe  Fe84      1.0  0.41530  0.40796  0.72618  1.0000
  S   S165      1.0  0.40022  0.42574  0.70533  1.0000
  H   H683      1.0  0.44466  0.46543  0.71714  1.0000
  Fe  Fe85      1.0  0.38862  0.48030  0.71374  1.0000
  Fe  Fe86      1.0  0.36287  0.40405  0.71012  1.0000
  C   C428      1.0  0.36229  0.26712  0.69058  1.0000
  S   S166      1.0  0.40545  0.46301  0.73432  1.0000
  C   C429      1.0  0.47535  0.43168  0.70174  1.0000
  S   S167      1.0  0.45637  0.38500  0.72879  1.0000
  H   H684      1.0  0.35215  0.28324  0.64614  1.0000
  N   N43       1.0  0.47317  0.47198  0.70416  1.0000
  C   C430      1.0  0.36091  0.30476  0.69412  1.0000
  H   H685      1.0  0.45654  0.41844  0.70160  1.0000
  H   H686      1.0  0.37822  0.31973  0.69653  1.0000
  C   C431      1.0  0.34000  0.24735  0.68721  1.0000
  C   C432      1.0  0.49850  0.48832  0.70437  1.0000
  S   S168      1.0  0.34272  0.20128  0.68141  1.0000
  S   S169      1.0  0.33437  0.37187  0.69659  1.0000
  H   H687      1.0  0.48851  0.41684  0.70966  1.0000
  H   H688      1.0  0.50628  0.48463  0.69482  1.0000
  H   H689      1.0  0.47655  0.46388  0.72524  1.0000
  H   H690      1.0  0.38076  0.25336  0.69032  1.0000
  H   H691      1.0  0.34718  0.25451  0.66006  1.0000
  C   C433      1.0  0.46364  0.47763  0.71699  1.0000
  H   H692      1.0  0.48251  0.42618  0.69217  1.0000
  C   C434      1.0  0.45514  0.49032  0.69357  1.0000
  H   H693      1.0  0.46157  0.48656  0.68371  1.0000
  H   H694      1.0  0.43574  0.47887  0.69325  1.0000
  H   H695      1.0  0.33503  0.30164  0.65892  1.0000
  S   S170      1.0  0.37871  0.38224  0.73039  1.0000
  H   H696      1.0  0.51250  0.47502  0.71227  1.0000
  H   H697      1.0  0.32974  0.50864  0.73591  1.0000
  Fe  Fe87      1.0  0.36741  0.43936  0.73672  1.0000
  H   H698      1.0  0.46130  0.50770  0.71909  1.0000
  C   C435      1.0  0.33810  0.27656  0.65302  1.0000
  H   H699      1.0  0.33174  0.23379  0.63141  1.0000
  H   H700      1.0  0.50725  0.35512  0.73622  1.0000
  H   H701      1.0  0.33423  0.01931  0.68478  1.0000
  Fe  Fe88      1.0  0.36454  0.29500  0.91546  1.0000
  H   H702      1.0  0.37371  0.24727  0.85508  1.0000
  S   S171      1.0  0.40403  0.31293  0.91121  1.0000
  H   H703      1.0  0.38547  0.22695  0.87847  1.0000
  C   C436      1.0  0.64352  0.14832  0.94651  1.0000
  Fe  Fe89      1.0  0.59762  0.29264  0.93131  1.0000
  S   S172      1.0  0.62320  0.27373  0.91661  1.0000
  S   S173      1.0  0.60654  0.32828  0.94923  1.0000
  Fe  Fe90      1.0  0.55296  0.24716  0.91952  1.0000
  S   S174      1.0  0.57511  0.22366  0.90384  1.0000
  S   S175      1.0  0.51362  0.22962  0.92411  1.0000
  Fe  Fe91      1.0  0.60864  0.21654  0.91983  1.0000
  S   S176      1.0  0.63705  0.16716  0.91975  1.0000
  Fe  Fe92      1.0  0.58845  0.28188  0.90159  1.0000
  S   S177      1.0  0.59217  0.31389  0.88258  1.0000
  S   S178      1.0  0.58552  0.23473  0.93564  1.0000
  S   S179      1.0  0.56394  0.30598  0.91608  1.0000
  Fe  Fe93      1.0  0.61232  0.32205  0.78820  1.0000
  S   S180      1.0  0.58472  0.32662  0.80323  1.0000
  S   S181      1.0  0.63756  0.36821  0.78209  1.0000
  Fe  Fe94      1.0  0.59321  0.24491  0.77905  1.0000
  S   S182      1.0  0.56407  0.24518  0.79328  1.0000
  S   S183      1.0  0.59358  0.20208  0.76280  1.0000
  Fe  Fe95      1.0  0.55604  0.30522  0.78729  1.0000
  S   S184      1.0  0.51564  0.33036  0.78420  1.0000
  Fe  Fe96      1.0  0.59527  0.26627  0.80793  1.0000
  S   S185      1.0  0.60026  0.23649  0.82796  1.0000
  S   S186      1.0  0.58281  0.30404  0.77201  1.0000
  S   S187      1.0  0.62525  0.26265  0.79395  1.0000
  H   H704      1.0  0.62865  0.16913  0.94750  1.0000
  H   H705      1.0  0.53319  0.32013  0.97526  1.0000
  N   N44       1.0  0.55502  0.43020  0.78604  1.0000
  H   H706      1.0  0.62586  0.40083  0.80683  1.0000
  C   C437      1.0  0.48740  0.20699  0.75958  1.0000
  C   C438      1.0  0.63627  0.42066  0.80168  1.0000
  C   C439      1.0  0.59812  0.15273  0.76426  1.0000
  C   C440      1.0  0.59672  0.13178  0.75274  1.0000
  C   C441      1.0  0.60024  0.09263  0.75340  1.0000
  C   C442      1.0  0.60527  0.07390  0.76564  1.0000
  C   C443      1.0  0.60644  0.09485  0.77716  1.0000
  C   C444      1.0  0.60282  0.13397  0.77650  1.0000
  H   H707      1.0  0.59316  0.14594  0.74322  1.0000
  H   H708      1.0  0.59935  0.07702  0.74445  1.0000
  H   H709      1.0  0.61026  0.08076  0.78668  1.0000
  H   H710      1.0  0.60394  0.14961  0.78545  1.0000
  C   C445      1.0  0.59193  0.29248  0.86718  1.0000
  C   C446      1.0  0.59618  0.31409  0.85610  1.0000
  C   C447      1.0  0.59788  0.29751  0.84387  1.0000
  C   C448      1.0  0.59572  0.25905  0.84272  1.0000
  C   C449      1.0  0.59117  0.23752  0.85377  1.0000
  C   C450      1.0  0.58889  0.25423  0.86591  1.0000
  H   H711      1.0  0.59848  0.34372  0.85701  1.0000
  H   H712      1.0  0.60152  0.31431  0.83545  1.0000
  H   H713      1.0  0.58926  0.20780  0.85290  1.0000
  H   H714      1.0  0.58507  0.23752  0.87431  1.0000
  H   H715      1.0  0.55452  0.34135  0.96514  1.0000
  H   H716      1.0  0.64027  0.05261  0.98500  1.0000
  H   H717      1.0  0.47972  0.17855  0.75899  1.0000
  H   H718      1.0  0.51676  0.26151  0.75254  1.0000
  H   H719      1.0  0.48077  0.22037  0.76834  1.0000
  C   C451      1.0  0.52647  0.18378  0.77235  1.0000
  C   C452      1.0  0.65262  0.25371  0.88149  1.0000
  C   C453      1.0  0.63162  0.36001  0.94996  1.0000
  H   H720      1.0  0.54950  0.33227  0.94128  1.0000
  C   C454      1.0  0.65621  0.48119  0.80079  1.0000
  H   H721      1.0  0.35525  0.24567  0.88208  1.0000
  C   C455      1.0  0.51141  0.34389  0.75721  1.0000
  C   C456      1.0  0.49943  0.34489  0.76866  1.0000
  C   C457      1.0  0.47405  0.35860  0.76788  1.0000
  C   C458      1.0  0.46058  0.37094  0.75574  1.0000
  H   H722      1.0  0.52017  0.15458  0.77200  1.0000
  H   H723      1.0  0.53099  0.33364  0.75768  1.0000
  H   H724      1.0  0.46465  0.35953  0.77671  1.0000
  C   C459      1.0  0.48328  0.25294  0.92009  1.0000
  C   C460      1.0  0.48040  0.28762  0.91350  1.0000
  C   C461      1.0  0.45602  0.30550  0.91089  1.0000
  C   C462      1.0  0.43424  0.28901  0.91480  1.0000
  C   C463      1.0  0.43712  0.25432  0.92137  1.0000
  C   C464      1.0  0.46151  0.23649  0.92402  1.0000
  H   H725      1.0  0.49690  0.30061  0.91036  1.0000
  H   H726      1.0  0.45403  0.33231  0.90579  1.0000
  H   H727      1.0  0.42059  0.24124  0.92445  1.0000
  H   H728      1.0  0.46349  0.20968  0.92913  1.0000
  H   H729      1.0  0.34375  0.26646  0.85900  1.0000
  H   H730      1.0  0.63610  0.46203  0.81665  1.0000
  N   N45       1.0  0.37668  0.28347  0.87161  1.0000
  S   S188      1.0  0.34594  0.29912  0.93411  1.0000
  C   C465      1.0  0.36424  0.27263  0.85858  1.0000
  C   C466      1.0  0.65130  0.14212  0.93413  1.0000
  H   H731      1.0  0.38440  0.26005  0.89126  1.0000
  C   C467      1.0  0.65817  0.43739  0.78312  1.0000
  C   C468      1.0  0.47246  0.36968  0.74426  1.0000
  H   H732      1.0  0.44097  0.38124  0.75525  1.0000
  C   C469      1.0  0.64431  0.41146  0.78958  1.0000
  C   C470      1.0  0.37540  0.25268  0.88127  1.0000
  C   C471      1.0  0.36326  0.31698  0.87583  1.0000
  H   H733      1.0  0.58686  0.39391  0.78308  1.0000
  H   H734      1.0  0.54354  0.38997  0.79983  1.0000
  H   H735      1.0  0.62334  0.19405  0.87648  1.0000
  H   H736      1.0  0.48709  0.31834  0.95346  1.0000
  H   H737      1.0  0.47856  0.22334  0.75071  1.0000
  H   H738      1.0  0.62285  0.20829  0.89317  1.0000
  H   H739      1.0  0.54404  0.25855  0.96667  1.0000
  H   H740      1.0  0.40550  0.31489  0.86370  1.0000
  H   H741      1.0  0.63873  0.16543  0.89001  1.0000
  H   H742      1.0  0.54020  0.25156  0.94925  1.0000
  H   H743      1.0  0.34285  0.31166  0.87664  1.0000
  H   H744      1.0  0.36470  0.29527  0.85102  1.0000
  H   H745      1.0  0.56155  0.48635  0.79208  1.0000
  H   H746      1.0  0.57069  0.47584  0.77614  1.0000
  H   H747      1.0  0.51686  0.41343  0.77976  1.0000
  H   H748      1.0  0.64035  0.26784  0.88814  1.0000
  H   H749      1.0  0.64208  0.25576  0.87137  1.0000
  C   C472      1.0  0.65480  0.12723  0.95762  1.0000
  H   H750      1.0  0.59001  0.45861  0.79077  1.0000
  H   H751      1.0  0.54484  0.18680  0.74903  1.0000
  H   H752      1.0  0.52179  0.35796  0.96401  1.0000
  H   H753      1.0  0.63495  0.36012  0.92920  1.0000
  H   H754      1.0  0.36363  0.34075  0.86872  1.0000
  C   C473      1.0  0.56990  0.46431  0.78627  1.0000
  H   H755      1.0  0.52476  0.30359  0.93381  1.0000
  H   H756      1.0  0.54773  0.18249  0.77336  1.0000
  H   H757      1.0  0.41451  0.26689  0.86771  1.0000
  H   H758      1.0  0.54510  0.43660  0.80568  1.0000
  S   S189      1.0  0.34802  0.23973  0.91018  1.0000
  N   N46       1.0  0.65878  0.21454  0.88574  1.0000
  C   C474      1.0  0.55440  0.41602  0.79967  1.0000
  C   C475      1.0  0.52479  0.24405  0.76128  1.0000
  C   C476      1.0  0.63489  0.19470  0.88632  1.0000
  C   C477      1.0  0.40372  0.29160  0.87083  1.0000
  C   C478      1.0  0.49793  0.35618  0.74506  1.0000
  S   S190      1.0  0.35090  0.45320  0.75556  1.0000
  C   C479      1.0  0.56718  0.40169  0.77843  1.0000
  H   H759      1.0  0.54596  0.24421  0.76182  1.0000
  C   C480      1.0  0.64081  0.37511  0.96212  1.0000
  H   H760      1.0  0.51660  0.34814  0.93989  1.0000
  N   N47       1.0  0.51557  0.20572  0.76046  1.0000
  H   H761      1.0  0.52078  0.19616  0.78148  1.0000
  C   C481      1.0  0.52863  0.43859  0.77978  1.0000
  H   H762      1.0  0.55618  0.37587  0.77782  1.0000
  S   S191      1.0  0.61070  0.02468  0.76717  1.0000
  H   H763      1.0  0.37218  0.32606  0.88562  1.0000
  H   H764      1.0  0.56864  0.41156  0.76818  1.0000
  H   H765      1.0  0.57402  0.40954  0.80472  1.0000
  S   S192      1.0  0.33234  0.32854  0.90364  1.0000
  H   H766      1.0  0.41343  0.29971  0.88062  1.0000
  H   H767      1.0  0.63294  0.36649  0.97093  1.0000
  H   H768      1.0  0.51931  0.25807  0.77018  1.0000
  H   H769      1.0  0.51590  0.20399  0.73946  1.0000
  C   C482      1.0  0.52364  0.18814  0.74863  1.0000
  N   N48       1.0  0.52749  0.30561  0.95487  1.0000
  C   C483      1.0  0.54500  0.27250  0.95694  1.0000
  C   C484      1.0  0.50094  0.29421  0.95525  1.0000
  C   C485      1.0  0.52969  0.32323  0.94190  1.0000
  C   C486      1.0  0.53449  0.33247  0.96531  1.0000
  C   C487      1.0  0.64220  0.45535  0.80724  1.0000
  H   H770      1.0  0.51895  0.46043  0.78513  1.0000
  H   H771      1.0  0.56520  0.28006  0.95654  1.0000
  H   H772      1.0  0.49846  0.28090  0.96491  1.0000
  H   H773      1.0  0.49540  0.27364  0.94750  1.0000
  H   H774      1.0  0.51716  0.15908  0.74772  1.0000
  H   H775      1.0  0.52825  0.44828  0.76936  1.0000
  H   H776      1.0  0.64848  0.13215  0.96712  1.0000
  C   C488      1.0  0.64194  0.37139  0.93862  1.0000
  C   C489      1.0  0.66094  0.39811  0.93943  1.0000
  C   C490      1.0  0.66017  0.40129  0.96296  1.0000
  Fe  Fe97      1.0  0.38649  0.72203  0.03784  1.0000
  S   S193      1.0  0.36425  0.74184  0.05392  1.0000
  S   S194      1.0  0.37133  0.68617  0.02085  1.0000
  Fe  Fe98      1.0  0.43326  0.76768  0.04729  1.0000
  S   S195      1.0  0.41406  0.79143  0.06383  1.0000
  S   S196      1.0  0.47192  0.79032  0.04404  1.0000
  Fe  Fe99      1.0  0.40154  0.73338  0.06719  1.0000
  S   S197      1.0  0.40945  0.70188  0.08691  1.0000
  Fe  Fe100     1.0  0.37862  0.79823  0.04907  1.0000
  H   H777      1.0  0.34050  0.89007  0.22270  1.0000
  S   S198      1.0  0.42286  0.70903  0.05135  1.0000
  S   S199      1.0  0.39876  0.77901  0.03228  1.0000
  Fe  Fe101     1.0  0.39670  0.73738  0.16285  1.0000
  S   S200      1.0  0.36570  0.74420  0.17597  1.0000
  S   S201      1.0  0.38675  0.76368  0.14233  1.0000
  Fe  Fe102     1.0  0.43277  0.69852  0.18517  1.0000
  S   S202      1.0  0.40349  0.70126  0.19934  1.0000
  S   S203      1.0  0.47433  0.67853  0.18963  1.0000
  Fe  Fe103     1.0  0.37567  0.68416  0.18206  1.0000
  C   C491      1.0  0.36340  0.55057  0.00688  1.0000
  Fe  Fe104     1.0  0.39632  0.76091  0.19178  1.0000
  S   S204      1.0  0.39853  0.80658  0.20729  1.0000
  S   S205      1.0  0.40572  0.67722  0.16840  1.0000
  S   S206      1.0  0.42656  0.75828  0.17818  1.0000
  S   S207      1.0  0.37360  0.98281  0.20306  1.0000
  Fe  Fe105     1.0  0.62092  0.72738  0.05662  1.0000
  C   C492      1.0  0.33365  0.65354  0.03326  1.0000
  S   S208      1.0  0.58114  0.70909  0.06037  1.0000
  H   H778      1.0  0.57597  0.62804  0.00661  1.0000
  C   C493      1.0  0.49240  0.64623  0.22834  1.0000
  S   S209      1.0  0.64961  0.67911  0.05697  1.0000
  S   S210      1.0  0.62857  0.74990  0.03690  1.0000
  S   S211      1.0  0.64071  0.57077  0.21406  1.0000
  C   C494      1.0  0.33237  0.52119  0.17479  1.0000
  H   H779      1.0  0.62458  0.63473  0.03579  1.0000
  C   C495      1.0  0.49056  0.66146  0.20492  1.0000
  C   C496      1.0  0.51673  0.65177  0.20571  1.0000
  C   C497      1.0  0.53065  0.63913  0.21771  1.0000
  H   H780      1.0  0.46843  0.69050  0.09050  1.0000
  C   C498      1.0  0.47838  0.65842  0.21628  1.0000
  H   H781      1.0  0.52631  0.65388  0.19697  1.0000
  H   H782      1.0  0.55077  0.63161  0.21813  1.0000
  H   H783      1.0  0.45818  0.66535  0.21577  1.0000
  Fe  Fe106     1.0  0.65934  0.78256  0.04800  1.0000
  C   C499      1.0  0.35963  0.57502  0.17836  1.0000
  Fe  Fe107     1.0  0.65844  0.70349  0.03782  1.0000
  H   H784      1.0  0.37852  0.58614  0.17982  1.0000
  C   C500      1.0  0.39231  0.85573  0.20568  1.0000
  C   C501      1.0  0.38068  0.87301  0.19397  1.0000
  C   C502      1.0  0.37545  0.91187  0.19334  1.0000
  C   C503      1.0  0.38195  0.93414  0.20432  1.0000
  C   C504      1.0  0.39406  0.91694  0.21595  1.0000
  C   C505      1.0  0.39897  0.87801  0.21664  1.0000
  H   H785      1.0  0.37543  0.85643  0.18543  1.0000
  H   H786      1.0  0.36618  0.92477  0.18426  1.0000
  H   H787      1.0  0.39977  0.93364  0.22438  1.0000
  H   H788      1.0  0.40811  0.86507  0.22574  1.0000
  C   C506      1.0  0.50207  0.76651  0.04796  1.0000
  C   C507      1.0  0.50427  0.72999  0.05309  1.0000
  C   C508      1.0  0.52861  0.71285  0.05678  1.0000
  C   C509      1.0  0.55101  0.73171  0.05517  1.0000
  C   C510      1.0  0.54879  0.76787  0.04974  1.0000
  C   C511      1.0  0.52444  0.78521  0.04623  1.0000
  H   H789      1.0  0.48723  0.71510  0.05429  1.0000
  H   H790      1.0  0.53013  0.68481  0.06092  1.0000
  H   H791      1.0  0.56583  0.78275  0.04847  1.0000
  H   H792      1.0  0.52300  0.81342  0.04225  1.0000
  H   H793      1.0  0.45374  0.83309  0.21164  1.0000
  H   H794      1.0  0.60437  0.59903  0.04047  1.0000
  H   H795      1.0  0.47769  0.83959  0.20076  1.0000
  C   C512      1.0  0.65709  0.96578  0.99774  1.0000
  C   C513      1.0  0.40287  0.71944  0.10221  1.0000
  C   C514      1.0  0.41082  0.69829  0.11381  1.0000
  C   C515      1.0  0.40647  0.71165  0.12622  1.0000
  C   C516      1.0  0.39389  0.74618  0.12710  1.0000
  C   C517      1.0  0.38596  0.76729  0.11549  1.0000
  C   C518      1.0  0.39053  0.75411  0.10310  1.0000
  H   H796      1.0  0.42052  0.67151  0.11321  1.0000
  H   H797      1.0  0.41292  0.69527  0.13508  1.0000
  H   H798      1.0  0.37620  0.79404  0.11609  1.0000
  H   H799      1.0  0.38437  0.77068  0.09425  1.0000
  H   H800      1.0  0.44859  0.77179  0.22163  1.0000
  C   C519      1.0  0.35671  0.53650  0.17660  1.0000
  C   C520      1.0  0.60496  0.62929  0.03810  1.0000
  H   H801      1.0  0.33982  0.73056  0.14800  1.0000
  H   H802      1.0  0.50715  0.78636  0.19669  1.0000
  N   N49       1.0  0.34470  0.52617  0.99976  1.0000
  H   H803      1.0  0.60652  0.68762  0.02128  1.0000
  H   H804      1.0  0.55610  0.64982  0.03945  1.0000
  N   N50       1.0  0.48310  0.74561  0.09140  1.0000
  C   C521      1.0  0.50488  0.73535  0.10149  1.0000
  C   C522      1.0  0.49084  0.77430  0.08225  1.0000
  C   C523      1.0  0.46149  0.76038  0.09790  1.0000
  C   C524      1.0  0.47520  0.71230  0.08397  1.0000
  H   H805      1.0  0.49969  0.71363  0.10853  1.0000
  H   H806      1.0  0.51132  0.75982  0.10731  1.0000
  H   H807      1.0  0.52154  0.72411  0.09691  1.0000
  H   H808      1.0  0.47519  0.78162  0.07418  1.0000
  H   H809      1.0  0.49609  0.80033  0.08742  1.0000
  H   H810      1.0  0.50770  0.76454  0.07754  1.0000
  H   H811      1.0  0.45534  0.73950  0.10496  1.0000
  H   H812      1.0  0.44451  0.76759  0.09060  1.0000
  H   H813      1.0  0.46650  0.78582  0.10349  1.0000
  H   H814      1.0  0.45910  0.71919  0.07612  1.0000
  N   N51       1.0  0.42092  0.89275  0.02865  1.0000
  C   C525      1.0  0.39809  0.88861  0.01896  1.0000
  C   C526      1.0  0.42900  0.93164  0.02825  1.0000
  C   C527      1.0  0.44181  0.86748  0.02541  1.0000
  C   C528      1.0  0.41473  0.88322  0.04200  1.0000
  H   H815      1.0  0.39161  0.85949  0.01897  1.0000
  H   H816      1.0  0.40189  0.89583  0.00876  1.0000
  H   H817      1.0  0.38179  0.90692  0.02120  1.0000
  H   H818      1.0  0.44621  0.93571  0.03545  1.0000
  H   H819      1.0  0.43372  0.93983  0.01830  1.0000
  H   H820      1.0  0.41359  0.95132  0.03068  1.0000
  H   H821      1.0  0.45923  0.86914  0.03269  1.0000
  H   H822      1.0  0.44724  0.87398  0.01546  1.0000
  H   H823      1.0  0.43622  0.83790  0.02550  1.0000
  H   H824      1.0  0.43150  0.88574  0.04960  1.0000
  H   H825      1.0  0.40847  0.85414  0.04262  1.0000
  H   H826      1.0  0.39882  0.90143  0.04476  1.0000
  N   N52       1.0  0.47883  0.78526  0.21017  1.0000
  C   C529      1.0  0.49706  0.79542  0.22155  1.0000
  C   C530      1.0  0.49296  0.76757  0.20019  1.0000
  H   H827      1.0  0.60779  0.98909  0.99393  1.0000
  C   C531      1.0  0.46064  0.75885  0.21463  1.0000
  C   C532      1.0  0.33817  0.59882  0.17849  1.0000
  H   H828      1.0  0.50336  0.74142  0.20415  1.0000
  H   H829      1.0  0.37150  0.53808  0.01661  1.0000
  H   H830      1.0  0.44743  0.74918  0.20621  1.0000
  C   C533      1.0  0.46468  0.81910  0.20437  1.0000
  H   H831      1.0  0.33766  0.65428  0.00036  1.0000
  H   H832      1.0  0.35444  0.57805  0.00880  1.0000
  H   H833      1.0  0.49116  0.69985  0.07917  1.0000
  H   H834      1.0  0.50816  0.77045  0.22605  1.0000
  H   H835      1.0  0.34402  0.71310  0.12522  1.0000
  C   C534      1.0  0.33904  0.85735  0.02129  1.0000
  C   C535      1.0  0.51857  0.63636  0.22909  1.0000
  H   H836      1.0  0.35847  0.64955  0.15456  1.0000
  Fe  Fe108     1.0  0.62441  0.57826  0.23334  1.0000
  H   H837      1.0  0.64863  0.96784  0.00716  1.0000
  H   H838      1.0  0.55778  0.60390  0.03294  1.0000
  H   H839      1.0  0.57290  0.69121  0.01588  1.0000
  H   H840      1.0  0.58910  0.58937  0.01706  1.0000
  C   C536      1.0  0.58742  0.68122  0.02412  1.0000
  C   C537      1.0  0.33055  0.64796  0.00961  1.0000
  H   H841      1.0  0.47069  0.73370  0.21956  1.0000
  H   H842      1.0  0.37956  0.55601  0.00114  1.0000
  H   H843      1.0  0.54468  0.64254  0.02247  1.0000
  H   H844      1.0  0.60953  0.62492  0.01240  1.0000
  C   C538      1.0  0.59015  0.61987  0.01523  1.0000
  H   H845      1.0  0.58448  0.69804  0.03285  1.0000
  H   H846      1.0  0.60198  0.64449  0.04720  1.0000
  C   C539      1.0  0.55986  0.63391  0.03059  1.0000
  N   N53       1.0  0.58557  0.64103  0.02700  1.0000
  H   H847      1.0  0.47985  0.75972  0.19140  1.0000
  S   S212      1.0  0.64947  0.76397  0.06801  1.0000
  C   C540      1.0  0.34312  0.66143  0.02136  1.0000
  H   H848      1.0  0.37353  0.51836  0.17671  1.0000
  H   H849      1.0  0.34847  0.83036  0.02068  1.0000
  S   S213      1.0  0.59001  0.54522  0.23657  1.0000
  S   S214      1.0  0.34065  0.64751  0.18109  1.0000
  H   H850      1.0  0.35722  0.96879  0.22826  1.0000
  H   H851      1.0  0.51099  0.81553  0.21856  1.0000
  H   H852      1.0  0.37167  0.68218  0.14388  1.0000
  H   H853      1.0  0.45044  0.81237  0.19590  1.0000
  H   H854      1.0  0.65508  0.93667  0.99436  1.0000
  S   S215      1.0  0.35486  0.85255  0.04820  1.0000
  C   C541      1.0  0.33882  0.87380  0.03353  1.0000
  H   H855      1.0  0.36197  0.63772  0.13791  1.0000
  H   H856      1.0  0.34324  0.66370  0.04237  1.0000
  C   C542      1.0  0.35696  0.66090  0.14425  1.0000
  H   H857      1.0  0.48697  0.80845  0.22932  1.0000
  C   C543      1.0  0.35072  0.95160  0.23628  1.0000
  H   H858      1.0  0.33432  0.66848  0.11942  1.0000
  S   S216      1.0  0.65943  0.67172  0.01899  1.0000
  C   C544      1.0  0.32991  0.69108  0.12615  1.0000
  H   H859      1.0  0.33193  0.92997  0.21210  1.0000
  N   N54       1.0  0.33116  0.67712  0.13993  1.0000
  H   H860      1.0  0.48285  0.64393  0.23707  1.0000
  N   N55       1.0  0.64500  0.99311  0.98766  1.0000
  H   H861      1.0  0.61128  0.52738  0.44197  1.0000
  S   S217      1.0  0.59514  0.57977  0.26604  1.0000
  H   H862      1.0  0.58456  0.67485  0.29586  1.0000
  C   C545      1.0  0.63917  0.75700  0.26599  1.0000
  S   S218      1.0  0.64652  0.56101  0.25270  1.0000
  N   N56       1.0  0.56553  0.68757  0.27634  1.0000
  Fe  Fe109     1.0  0.62824  0.61187  0.26053  1.0000
  H   H863      1.0  0.59872  0.57051  0.45910  1.0000
  C   C546      1.0  0.55431  0.72342  0.28006  1.0000
  H   H864      1.0  0.53686  0.73173  0.27324  1.0000
  H   H865      1.0  0.62942  0.77384  0.25789  1.0000
  H   H866      1.0  0.60338  0.69937  0.28525  1.0000
  H   H867      1.0  0.54131  0.65445  0.28702  1.0000
  H   H868      1.0  0.58551  0.71395  0.26175  1.0000
  H   H869      1.0  0.62946  0.70474  0.25688  1.0000
  C   C547      1.0  0.63905  0.71786  0.26542  1.0000
  Fe  Fe110     1.0  0.57634  0.59743  0.24570  1.0000
  H   H870      1.0  0.58180  0.66493  0.25993  1.0000
  H   H871      1.0  0.54895  0.72182  0.29024  1.0000
  C   C548      1.0  0.65137  0.69585  0.27591  1.0000
  H   H872      1.0  0.55506  0.69625  0.25543  1.0000
  Fe  Fe111     1.0  0.61153  0.53006  0.25648  1.0000
  H   H873      1.0  0.61760  0.57061  0.47498  1.0000
  H   H874      1.0  0.55472  0.63079  0.27405  1.0000
  N   N57       1.0  0.63243  0.53458  0.46104  1.0000
  S   S219      1.0  0.53568  0.62181  0.24448  1.0000
  C   C549      1.0  0.64859  0.56343  0.45625  1.0000
  H   H875      1.0  0.63755  0.58238  0.44873  1.0000
  H   H876      1.0  0.56812  0.74611  0.27973  1.0000
  H   H877      1.0  0.59793  0.65103  0.28294  1.0000
  C   C550      1.0  0.54684  0.65809  0.27694  1.0000
  H   H878      1.0  0.52918  0.66430  0.26999  1.0000
  C   C551      1.0  0.57226  0.69099  0.26277  1.0000
  C   C552      1.0  0.58879  0.67781  0.28552  1.0000
  S   S220      1.0  0.65086  0.82382  0.27743  1.0000
  C   C553      1.0  0.65215  0.77451  0.27688  1.0000
  S   S221      1.0  0.64970  0.64666  0.27627  1.0000
  H   H879      1.0  0.36524  0.92864  0.23887  1.0000
  H   H880      1.0  0.66193  0.94705  0.33804  1.0000
  H   H881      1.0  0.65695  0.58084  0.46447  1.0000
  C   C554      1.0  0.61073  0.55262  0.46661  1.0000
  S   S222      1.0  0.60883  0.63185  0.24072  1.0000
  H   H882      1.0  0.35075  0.96939  0.24504  1.0000
  H   H883      1.0  0.65463  0.52793  0.48005  1.0000
  H   H884      1.0  0.33084  0.89097  0.24608  1.0000
  H   H885      1.0  0.59830  0.53162  0.47045  1.0000
  Fe  Fe112     1.0  0.37635  0.72902  0.56742  1.0000
  S   S223      1.0  0.40300  0.77392  0.56345  1.0000
  S   S224      1.0  0.36239  0.71994  0.58738  1.0000
  Fe  Fe113     1.0  0.36997  0.70447  0.53855  1.0000
  S   S225      1.0  0.39564  0.74910  0.53255  1.0000
  S   S226      1.0  0.35825  0.66351  0.52235  1.0000
  Fe  Fe114     1.0  0.42154  0.73257  0.55106  1.0000
  S   S227      1.0  0.46343  0.71287  0.55200  1.0000
  Fe  Fe115     1.0  0.37481  0.78642  0.54534  1.0000
  S   S228      1.0  0.35998  0.84616  0.54185  1.0000
  S   S229      1.0  0.39672  0.68623  0.55650  1.0000
  S   S230      1.0  0.34715  0.74342  0.54991  1.0000
  Fe  Fe116     1.0  0.40713  0.79862  0.65809  1.0000
  S   S231      1.0  0.36935  0.79534  0.66602  1.0000
  S   S232      1.0  0.41582  0.80304  0.63691  1.0000
  Fe  Fe117     1.0  0.43758  0.79625  0.68562  1.0000
  S   S233      1.0  0.40200  0.79217  0.69562  1.0000
  S   S234      1.0  0.47908  0.79076  0.69490  1.0000
  Fe  Fe118     1.0  0.38918  0.75075  0.68014  1.0000
  S   S235      1.0  0.36816  0.69633  0.68268  1.0000
  Fe  Fe119     1.0  0.38518  0.83705  0.68077  1.0000
  H   H886      1.0  0.34326  0.85789  0.60005  1.0000
  S   S236      1.0  0.42580  0.75196  0.67112  1.0000
  S   S237      1.0  0.42180  0.84314  0.67187  1.0000
  Fe  Fe120     1.0  0.65497  0.81097  0.53984  1.0000
  H   H887      1.0  0.62097  0.87801  0.53085  1.0000
  H   H888      1.0  0.37371  0.65074  0.62754  1.0000
  Fe  Fe121     1.0  0.60568  0.78388  0.54913  1.0000
  S   S238      1.0  0.58745  0.97504  0.73142  1.0000
  S   S239      1.0  0.56351  0.80168  0.54387  1.0000
  H   H889      1.0  0.39010  0.85503  0.56879  1.0000
  C   C555      1.0  0.33893  0.92621  0.66646  1.0000
  S   S240      1.0  0.62895  0.76488  0.53335  1.0000
  H   H890      1.0  0.55264  0.84229  0.72164  1.0000
  H   H891      1.0  0.40079  0.83165  0.58433  1.0000
  C   C556      1.0  0.49382  0.82425  0.70543  1.0000
  C   C557      1.0  0.52013  0.82013  0.70975  1.0000
  C   C558      1.0  0.51853  0.87611  0.72256  1.0000
  C   C559      1.0  0.49225  0.88020  0.71823  1.0000
  C   C560      1.0  0.47996  0.85455  0.70964  1.0000
  H   H892      1.0  0.53093  0.79663  0.70657  1.0000
  H   H893      1.0  0.34014  0.90039  0.66131  1.0000
  H   H894      1.0  0.45969  0.85796  0.70641  1.0000
  H   H895      1.0  0.48130  0.90340  0.72153  1.0000
  C   C561      1.0  0.37883  0.65215  0.69004  1.0000
  C   C562      1.0  0.36114  0.62380  0.69050  1.0000
  C   C563      1.0  0.36878  0.58798  0.69584  1.0000
  C   C564      1.0  0.39434  0.57995  0.70078  1.0000
  C   C565      1.0  0.41204  0.60823  0.70025  1.0000
  C   C566      1.0  0.40438  0.64407  0.69496  1.0000
  H   H896      1.0  0.65801  0.67182  0.59438  1.0000
  H   H897      1.0  0.35495  0.56653  0.69598  1.0000
  H   H898      1.0  0.43186  0.60253  0.70404  1.0000
  H   H899      1.0  0.41825  0.66546  0.69469  1.0000
  C   C567      1.0  0.49098  0.73862  0.55008  1.0000
  C   C568      1.0  0.48936  0.77592  0.54580  1.0000
  C   C569      1.0  0.51176  0.79478  0.54403  1.0000
  C   C570      1.0  0.53602  0.77675  0.54662  1.0000
  C   C571      1.0  0.53763  0.73949  0.55096  1.0000
  C   C572      1.0  0.51522  0.72054  0.55261  1.0000
  H   H900      1.0  0.47088  0.79020  0.54379  1.0000
  H   H901      1.0  0.51027  0.82358  0.54067  1.0000
  H   H902      1.0  0.55612  0.72523  0.55297  1.0000
  H   H903      1.0  0.51672  0.69171  0.55594  1.0000
  C   C573      1.0  0.40027  0.78029  0.62328  1.0000
  C   C574      1.0  0.37579  0.76668  0.62328  1.0000
  C   C575      1.0  0.36438  0.74789  0.61226  1.0000
  C   C576      1.0  0.37719  0.74330  0.60111  1.0000
  C   C577      1.0  0.40140  0.75774  0.60102  1.0000
  C   C578      1.0  0.41287  0.77614  0.61206  1.0000
  H   H904      1.0  0.36568  0.77086  0.63175  1.0000
  C   C579      1.0  0.33105  0.63553  0.52101  1.0000
  H   H905      1.0  0.41154  0.75412  0.59254  1.0000
  H   H906      1.0  0.43178  0.78681  0.61198  1.0000
  H   H907      1.0  0.34546  0.73725  0.61230  1.0000
  H   H908      1.0  0.54850  0.98947  0.68810  1.0000
  H   H909      1.0  0.43135  0.58352  0.51589  1.0000
  H   H910      1.0  0.54720  0.94109  0.67125  1.0000
  C   C580      1.0  0.36298  0.85747  0.59726  1.0000
  H   H911      1.0  0.56456  0.87543  0.69974  1.0000
  H   H912      1.0  0.35654  0.68109  0.65347  1.0000
  H   H913      1.0  0.34094  0.60955  0.50343  1.0000
  N   N58       1.0  0.43763  0.63834  0.52331  1.0000
  C   C581      1.0  0.43018  0.67726  0.51924  1.0000
  C   C582      1.0  0.42823  0.62935  0.53599  1.0000
  C   C583      1.0  0.46578  0.63373  0.52488  1.0000
  H   H914      1.0  0.43705  0.68510  0.50975  1.0000
  H   H915      1.0  0.43827  0.69704  0.52672  1.0000
  H   H916      1.0  0.43315  0.60004  0.53926  1.0000
  H   H917      1.0  0.43671  0.64746  0.54393  1.0000
  C   C584      1.0  0.34871  0.88965  0.57648  1.0000
  H   H918      1.0  0.37717  0.71949  0.65400  1.0000
  H   H919      1.0  0.42089  0.63529  0.65764  1.0000
  H   H920      1.0  0.47362  0.64039  0.51553  1.0000
  H   H921      1.0  0.40905  0.68180  0.51797  1.0000
  S   S241      1.0  0.36504  0.88833  0.68845  1.0000
  H   H922      1.0  0.51326  0.94332  0.68594  1.0000
  H   H923      1.0  0.57916  0.92565  0.67769  1.0000
  N   N59       1.0  0.55313  0.93053  0.69219  1.0000
  C   C585      1.0  0.55857  0.92225  0.67871  1.0000
  C   C586      1.0  0.56878  0.90503  0.70169  1.0000
  C   C587      1.0  0.52576  0.92542  0.69324  1.0000
  C   C588      1.0  0.55954  0.96935  0.69521  1.0000
  Fe  Fe122     1.0  0.65275  0.73015  0.54902  1.0000
  S   S242      1.0  0.40547  0.53523  0.70751  1.0000
  H   H924      1.0  0.52095  0.93266  0.70321  1.0000
  H   H925      1.0  0.58958  0.90834  0.70129  1.0000
  H   H926      1.0  0.33069  0.82096  0.58045  1.0000
  H   H927      1.0  0.47470  0.65268  0.53249  1.0000
  H   H928      1.0  0.35729  0.96375  0.69610  1.0000
  H   H929      1.0  0.55389  0.89312  0.67615  1.0000
  H   H930      1.0  0.35752  0.91581  0.58004  1.0000
  S   S243      1.0  0.60911  0.88668  0.73151  1.0000
  H   H931      1.0  0.42876  0.67321  0.63859  1.0000
  H   H932      1.0  0.55522  0.97655  0.70526  1.0000
  N   N60       1.0  0.39228  0.66999  0.64590  1.0000
  C   C589      1.0  0.41135  0.69076  0.63952  1.0000
  C   C590      1.0  0.37062  0.69536  0.64802  1.0000
  H   H933      1.0  0.65754  0.71935  0.58872  1.0000
  H   H934      1.0  0.40355  0.70078  0.62941  1.0000
  N   N61       1.0  0.36289  0.85651  0.58280  1.0000
  H   H935      1.0  0.41750  0.71571  0.64516  1.0000
  C   C591      1.0  0.33508  0.99337  0.67970  1.0000
  Fe  Fe123     1.0  0.65424  0.79137  0.56918  1.0000
  H   H936      1.0  0.37257  0.88240  0.60145  1.0000
  H   H937      1.0  0.65271  0.68284  0.72859  1.0000
  C   C592      1.0  0.53247  0.84598  0.71826  1.0000
  S   S244      1.0  0.63083  0.83164  0.55499  1.0000
  C   C593      1.0  0.35031  0.92808  0.67951  1.0000
  H   H938      1.0  0.41091  0.67636  0.66557  1.0000
  C   C594      1.0  0.65846  0.64408  0.50952  1.0000
  H   H939      1.0  0.36125  0.79713  0.58186  1.0000
  H   H940      1.0  0.64466  0.68706  0.52162  1.0000
  C   C595      1.0  0.59316  0.83724  0.51304  1.0000
  C   C596      1.0  0.42623  0.61318  0.51316  1.0000
  H   H941      1.0  0.43272  0.61926  0.50342  1.0000
  S   S245      1.0  0.62719  0.74495  0.56441  1.0000
  H   H942      1.0  0.39940  0.88153  0.58315  1.0000
  H   H943      1.0  0.58406  0.81956  0.52009  1.0000
  H   H944      1.0  0.39035  0.63799  0.66375  1.0000
  C   C597      1.0  0.38284  0.63962  0.63732  1.0000
  H   H945      1.0  0.34852  0.88958  0.56556  1.0000
  H   H946      1.0  0.59496  0.89424  0.49582  1.0000
  H   H947      1.0  0.60015  0.92982  0.50787  1.0000
  H   H948      1.0  0.39867  0.61993  0.63550  1.0000
  H   H949      1.0  0.33823  0.57945  0.72023  1.0000
  H   H950      1.0  0.62337  0.89247  0.50744  1.0000
  H   H951      1.0  0.58494  0.83019  0.50292  1.0000
  H   H952      1.0  0.64648  0.65390  0.50070  1.0000
  H   H953      1.0  0.59760  0.91497  0.53141  1.0000
  H   H954      1.0  0.58026  0.97386  0.69491  1.0000
  H   H955      1.0  0.55806  0.91701  0.51569  1.0000
  C   C598      1.0  0.60244  0.89948  0.50623  1.0000
  H   H956      1.0  0.40707  0.63326  0.53525  1.0000
  H   H957      1.0  0.36033  0.70648  0.63854  1.0000
  H   H958      1.0  0.40494  0.61630  0.51189  1.0000
  H   H959      1.0  0.36833  0.62349  0.64182  1.0000
  H   H960      1.0  0.52044  0.89599  0.69163  1.0000
  C   C599      1.0  0.34833  0.96190  0.68605  1.0000
  H   H961      1.0  0.55286  0.88157  0.50360  1.0000
  C   C600      1.0  0.60012  0.88506  0.52916  1.0000
  N   N62       1.0  0.58935  0.87725  0.51553  1.0000
  H   H962      1.0  0.59075  0.86862  0.53646  1.0000
  C   C601      1.0  0.56172  0.88709  0.51377  1.0000
  H   H963      1.0  0.55156  0.87044  0.52073  1.0000
  H   H964      1.0  0.37334  0.83255  0.60224  1.0000
  C   C602      1.0  0.40419  0.65412  0.65874  1.0000
  Fe  Fe124     1.0  0.62204  0.94322  0.72610  1.0000
  S   S246      1.0  0.63474  0.95423  0.70606  1.0000
  H   H965      1.0  0.61378  0.82883  0.51414  1.0000
  H   H966      1.0  0.47218  0.60479  0.52805  1.0000
  C   C603      1.0  0.33708  0.83359  0.51663  1.0000
  C   C604      1.0  0.38947  0.85619  0.57963  1.0000
  H   H967      1.0  0.56499  0.91048  0.71194  1.0000
  H   H968      1.0  0.34136  0.62957  0.68663  1.0000
  H   H969      1.0  0.66011  0.68238  0.57730  1.0000
  C   C605      1.0  0.33958  0.85776  0.52720  1.0000
  S   S247      1.0  0.53310  0.90994  0.73300  1.0000
  C   C606      1.0  0.35402  0.56716  0.72739  1.0000
  H   H970      1.0  0.34751  0.80705  0.51743  1.0000
  H   H971      1.0  0.36041  0.54044  0.72334  1.0000
  H   H972      1.0  0.37036  0.58604  0.72764  1.0000
  C   C607      1.0  0.65741  0.66298  0.52138  1.0000
  C   C608      1.0  0.35042  0.82260  0.57779  1.0000
  H   H973      1.0  0.34922  0.82142  0.56688  1.0000
  H   H974      1.0  0.49747  0.51871  0.70622  1.0000
  H   H975      1.0  0.45289  0.52075  0.69513  1.0000
  H   H976      1.0  0.61417  0.95787  0.98116  1.0000
  S   S248      1.0  0.59434  0.92471  0.75872  1.0000
  Fe  Fe125     1.0  0.57557  0.91879  0.73793  1.0000
  C   C609      1.0  0.36754  0.54504  0.74968  1.0000
  S   S249      1.0  0.64451  0.95204  0.74574  1.0000
  Fe  Fe126     1.0  0.62907  0.89748  0.75178  1.0000
  S   S250      1.0  0.64969  0.70211  0.79088  1.0000
  Fe  Fe127     1.0  0.60875  0.97910  0.75172  1.0000
  H   H977      1.0  0.60781  0.00659  0.97732  1.0000
  H   H978      1.0  0.64321  0.65084  0.75580  1.0000
  S   S251      1.0  0.65999  0.86156  0.76415  1.0000
  H   H979      1.0  0.64854  0.00941  0.96758  1.0000
  H   H980      1.0  0.35016  0.54836  0.98063  1.0000
  H   H981      1.0  0.33164  0.59427  0.75560  1.0000
  C   C610      1.0  0.65653  0.81752  0.77163  1.0000
  C   C611      1.0  0.63340  0.93595  0.78800  1.0000
  C   C612      1.0  0.63264  0.80229  0.77207  1.0000
  H   H982      1.0  0.61229  0.75566  0.77860  1.0000
  H   H983      1.0  0.64377  0.00702  0.79317  1.0000
  H   H984      1.0  0.61988  0.95665  0.78237  1.0000
  C   C613      1.0  0.63087  0.76717  0.77822  1.0000
  H   H985      1.0  0.61553  0.81763  0.76778  1.0000
  C   C614      1.0  0.65654  0.98544  0.79892  1.0000
  H   H986      1.0  0.38406  0.56358  0.75075  1.0000
  H   H987      1.0  0.63434  0.91075  0.78192  1.0000
  H   H988      1.0  0.35361  0.61750  0.74635  1.0000
  H   H989      1.0  0.64825  0.97952  0.80820  1.0000
  H   H990      1.0  0.37434  0.51802  0.74607  1.0000
  H   H991      1.0  0.62490  0.92786  0.79702  1.0000
  C   C615      1.0  0.33780  0.59764  0.74562  1.0000
  C   C616      1.0  0.61744  0.98636  0.98490  1.0000
  N   N63       1.0  0.65889  0.95145  0.79123  1.0000
  H   H992      1.0  0.65514  0.96054  0.97152  1.0000
  C   C617      1.0  0.65292  0.74680  0.78379  1.0000
  H   H993      1.0  0.65714  0.98188  0.77280  1.0000
  H   H994      1.0  0.64485  0.74352  0.73888  1.0000
  C   C618      1.0  0.65700  0.98907  0.97543  1.0000
  C   C619      1.0  0.64126  0.68130  0.75353  1.0000
  H   H995      1.0  0.36195  0.53916  0.75966  1.0000
  H   H996      1.0  0.63718  0.69501  0.76274  1.0000
  N   N64       1.0  0.34592  0.56148  0.74061  1.0000
  H   H997      1.0  0.62419  0.68655  0.74612  1.0000
  H   H998      1.0  0.65805  0.75075  0.75553  1.0000
  C   C620      1.0  0.33467  0.54375  0.98687  1.0000
  C   C621      1.0  0.66144  0.73617  0.74640  1.0000
  Fe  Fe128     1.0  0.72146  0.48974  0.99967  1.0000
  H   H999      1.0  0.94734  0.13814  0.21653  1.0000
  H   H1000     1.0  0.90914  0.34141  0.02447  1.0000
  H   H1001     1.0  0.81954  0.29555  0.03346  1.0000
  H   H1002     1.0  0.91175  0.40417  0.03338  1.0000
  S   S252      1.0  0.79415  0.03749  0.01362  1.0000
  Fe  Fe129     1.0  0.93358  0.24445  0.04368  1.0000
  S   S253      1.0  0.91513  0.19142  0.04901  1.0000
  S   S254      1.0  0.97196  0.24952  0.03567  1.0000
  Fe  Fe130     1.0  0.88526  0.29175  0.04597  1.0000
  S   S255      1.0  0.86308  0.24342  0.05194  1.0000
  S   S256      1.0  0.86917  0.35103  0.04375  1.0000
  Fe  Fe131     1.0  0.89958  0.22593  0.06474  1.0000
  S   S257      1.0  0.89999  0.20191  0.08549  1.0000
  Fe  Fe132     1.0  0.87977  0.21238  0.03593  1.0000
  S   S258      1.0  0.85511  0.18766  0.01854  1.0000
  S   S259      1.0  0.92038  0.27711  0.06019  1.0000
  S   S260      1.0  0.89960  0.26240  0.02924  1.0000
  Fe  Fe133     1.0  0.93301  0.30067  0.18427  1.0000
  S   S261      1.0  0.89848  0.29706  0.19497  1.0000
  S   S262      1.0  0.97404  0.29762  0.19440  1.0000
  Fe  Fe134     1.0  0.90138  0.29214  0.15731  1.0000
  S   S263      1.0  0.86505  0.28596  0.16648  1.0000
  S   S264      1.0  0.90146  0.30534  0.13539  1.0000
  Fe  Fe135     1.0  0.87810  0.33440  0.17875  1.0000
  S   S265      1.0  0.84612  0.37721  0.18139  1.0000
  Fe  Fe136     1.0  0.88821  0.24880  0.18192  1.0000
  S   S266      1.0  0.87292  0.20096  0.19359  1.0000
  S   S267      1.0  0.91367  0.34211  0.16913  1.0000
  S   S268      1.0  0.92361  0.25107  0.17169  1.0000
  H   H1003     1.0  0.75427  0.26893  0.01967  1.0000
  C   C622      1.0  0.84265  0.42474  0.17628  1.0000
  C   C623      1.0  0.81820  0.44221  0.17498  1.0000
  C   C624      1.0  0.81446  0.47988  0.17091  1.0000
  H   H1004     1.0  0.83347  0.26363  0.01471  1.0000
  C   C625      1.0  0.85969  0.48326  0.16963  1.0000
  C   C626      1.0  0.86340  0.44544  0.17353  1.0000
  H   H1005     1.0  0.80198  0.42629  0.17693  1.0000
  N   N65       1.0  0.94871  0.19748  0.21350  1.0000
  C   C627      1.0  0.98580  0.38429  0.21922  1.0000
  H   H1006     1.0  0.88236  0.43246  0.17458  1.0000
  C   C628      1.0  0.87790  0.15162  0.19484  1.0000
  C   C629      1.0  0.86665  0.13168  0.20450  1.0000
  C   C630      1.0  0.87043  0.09270  0.20615  1.0000
  C   C631      1.0  0.88546  0.07304  0.19809  1.0000
  C   C632      1.0  0.89685  0.09303  0.18848  1.0000
  C   C633      1.0  0.89318  0.13205  0.18687  1.0000
  C   C634      1.0  0.79976  0.29699  0.02818  1.0000
  H   H1007     1.0  0.79739  0.32376  0.02239  1.0000
  H   H1008     1.0  0.90840  0.07812  0.18214  1.0000
  H   H1009     1.0  0.90184  0.14679  0.17933  1.0000
  C   C635      1.0  0.90019  0.23081  0.09932  1.0000
  C   C636      1.0  0.90025  0.26957  0.09795  1.0000
  C   C637      1.0  0.90064  0.29180  0.10912  1.0000
  C   C638      1.0  0.90092  0.27559  0.12178  1.0000
  C   C639      1.0  0.90072  0.23684  0.12318  1.0000
  C   C640      1.0  0.90038  0.21457  0.11198  1.0000
  H   H1010     1.0  0.90004  0.28241  0.08827  1.0000
  H   H1011     1.0  0.90084  0.32172  0.10794  1.0000
  H   H1012     1.0  0.90089  0.22402  0.13286  1.0000
  H   H1013     1.0  0.90029  0.18461  0.11313  1.0000
  C   C641      1.0  0.80955  0.08059  0.01515  1.0000
  C   C642      1.0  0.82603  0.08703  0.02670  1.0000
  C   C643      1.0  0.83984  0.11990  0.02803  1.0000
  C   C644      1.0  0.83750  0.14648  0.01773  1.0000
  C   C645      1.0  0.82089  0.14015  0.00622  1.0000
  C   C646      1.0  0.80684  0.10754  0.00496  1.0000
  H   H1014     1.0  0.82824  0.06639  0.03466  1.0000
  H   H1015     1.0  0.85252  0.12440  0.03695  1.0000
  H   H1016     1.0  0.81891  0.16060  0.99820  1.0000
  H   H1017     1.0  0.79403  0.10324  0.99608  1.0000
  C   C647      1.0  0.84889  0.36442  0.02927  1.0000
  C   C648      1.0  0.83134  0.39460  0.02944  1.0000
  C   C649      1.0  0.81468  0.40528  0.01805  1.0000
  C   C650      1.0  0.81590  0.38625  0.00635  1.0000
  C   C651      1.0  0.83397  0.35682  0.00612  1.0000
  C   C652      1.0  0.85016  0.34559  0.01755  1.0000
  H   H1018     1.0  0.83031  0.40939  0.03847  1.0000
  H   H1019     1.0  0.80084  0.42807  0.01832  1.0000
  H   H1020     1.0  0.83525  0.34241  0.99703  1.0000
  H   H1021     1.0  0.86367  0.32252  0.01723  1.0000
  H   H1022     1.0  0.94229  0.42399  0.03781  1.0000
  H   H1023     1.0  0.98619  0.27663  0.06233  1.0000
  C   C653      1.0  0.68031  0.49245  0.22634  1.0000
  C   C654      1.0  0.97392  0.35957  0.21011  1.0000
  C   C655      1.0  0.93738  0.16440  0.21897  1.0000
  H   H1024     1.0  0.95377  0.36320  0.20665  1.0000
  N   N66       1.0  0.84380  0.38374  0.13695  1.0000
  C   C656      1.0  0.86764  0.39193  0.14536  1.0000
  C   C657      1.0  0.84854  0.38398  0.12300  1.0000
  C   C658      1.0  0.82384  0.41228  0.13883  1.0000
  C   C659      1.0  0.83524  0.34669  0.14067  1.0000
  H   H1025     1.0  0.86553  0.38802  0.15597  1.0000
  H   H1026     1.0  0.87343  0.42096  0.14377  1.0000
  H   H1027     1.0  0.88376  0.37310  0.14337  1.0000
  H   H1028     1.0  0.83094  0.37810  0.11633  1.0000
  H   H1029     1.0  0.85544  0.41132  0.11992  1.0000
  H   H1030     1.0  0.86335  0.36227  0.12132  1.0000
  H   H1031     1.0  0.80558  0.40718  0.13258  1.0000
  H   H1032     1.0  0.82974  0.44075  0.13634  1.0000
  H   H1033     1.0  0.81983  0.41236  0.14927  1.0000
  H   H1034     1.0  0.81740  0.33940  0.13447  1.0000
  H   H1035     1.0  0.83147  0.34554  0.15116  1.0000
  H   H1036     1.0  0.84995  0.32449  0.13948  1.0000
  N   N67       1.0  0.94401  0.36750  0.03141  1.0000
  C   C660      1.0  0.94486  0.35162  0.04491  1.0000
  C   C661      1.0  0.97031  0.36941  0.02794  1.0000
  C   C662      1.0  0.93168  0.40514  0.03080  1.0000
  C   C663      1.0  0.92906  0.34355  0.02205  1.0000
  H   H1037     1.0  0.87591  0.49916  0.16765  1.0000
  H   H1038     1.0  0.97463  0.40694  0.22272  1.0000
  H   H1039     1.0  0.66915  0.03716  0.99478  1.0000
  H   H1040     1.0  0.84371  0.48892  0.21495  1.0000
  H   H1041     1.0  0.98220  0.38715  0.03484  1.0000
  H   H1042     1.0  0.92767  0.19379  0.19427  1.0000
  H   H1043     1.0  0.95779  0.16861  0.19635  1.0000
  H   H1044     1.0  0.93780  0.31485  0.02226  1.0000
  H   H1045     1.0  0.95357  0.32289  0.04565  1.0000
  H   H1046     1.0  0.85120  0.04106  0.00675  1.0000
  H   H1047     1.0  0.97710  0.20238  0.23026  1.0000
  C   C664      1.0  0.93412  0.23134  0.21652  1.0000
  S   S269      1.0  0.76367  0.49777  0.00045  1.0000
  H   H1048     1.0  0.97991  0.34118  0.02841  1.0000
  H   H1049     1.0  0.92532  0.35025  0.04792  1.0000
  H   H1050     1.0  0.78447  0.22956  0.03520  1.0000
  H   H1051     1.0  0.85482  0.14646  0.21074  1.0000
  H   H1052     1.0  0.76583  0.29450  0.00646  1.0000
  H   H1053     1.0  0.92783  0.35471  0.01175  1.0000
  C   C665      1.0  0.97558  0.19995  0.21937  1.0000
  H   H1054     1.0  0.76459  0.24466  0.00595  1.0000
  H   H1055     1.0  0.81058  0.28866  0.00298  1.0000
  C   C666      1.0  0.94772  0.19444  0.19907  1.0000
  C   C667      1.0  0.98811  0.33002  0.20562  1.0000
  H   H1056     1.0  0.93812  0.16539  0.22987  1.0000
  H   H1057     1.0  0.68628  0.41841  0.22388  1.0000
  C   C668      1.0  0.76874  0.26834  0.01262  1.0000
  S   S270      1.0  0.79481  0.39698  0.99192  1.0000
  C   C669      1.0  0.81342  0.26398  0.00982  1.0000
  N   N68       1.0  0.79497  0.26482  0.01958  1.0000
  H   H1058     1.0  0.78638  0.29835  0.03577  1.0000
  H   H1059     1.0  0.81552  0.04693  0.98840  1.0000
  C   C670      1.0  0.83015  0.49393  0.20582  1.0000
  C   C671      1.0  0.79801  0.23001  0.02768  1.0000
  H   H1060     1.0  0.79543  0.49260  0.16950  1.0000
  H   H1061     1.0  0.93458  0.23480  0.22732  1.0000
  H   H1062     1.0  0.93056  0.41799  0.02073  1.0000
  Fe  Fe137     1.0  0.76689  0.01882  0.99618  1.0000
  H   H1063     1.0  0.95629  0.36857  0.05226  1.0000
  C   C672      1.0  0.83528  0.50084  0.16846  1.0000
  H   H1064     1.0  0.82120  0.46706  0.20320  1.0000
  H   H1065     1.0  0.91693  0.16247  0.21489  1.0000
  H   H1066     1.0  0.86151  0.07784  0.21357  1.0000
  H   H1067     1.0  0.81767  0.22645  0.03298  1.0000
  H   H1068     1.0  0.79477  0.20509  0.02150  1.0000
  H   H1069     1.0  0.91368  0.23026  0.21230  1.0000
  H   H1070     1.0  0.97044  0.38103  0.01778  1.0000
  H   H1071     1.0  0.98444  0.22487  0.21539  1.0000
  H   H1072     1.0  0.81156  0.23868  0.00375  1.0000
  H   H1073     1.0  0.98721  0.17497  0.21719  1.0000
  H   H1074     1.0  0.95672  0.21852  0.19467  1.0000
  C   C673      1.0  0.66628  0.42995  0.22249  1.0000
  H   H1075     1.0  0.94196  0.25681  0.21237  1.0000
  H   H1076     1.0  0.70073  0.48293  0.22777  1.0000
  H   H1077     1.0  0.87177  0.06151  0.99613  1.0000
  H   H1078     1.0  0.78413  0.50281  0.19200  1.0000
  S   S271      1.0  0.89056  0.02374  0.19950  1.0000
  H   H1079     1.0  0.67519  0.50094  0.21577  1.0000
  C   C674      1.0  0.86417  0.03461  0.99921  1.0000
  S   S272      1.0  0.70311  0.50560  0.01778  1.0000
  Fe  Fe138     1.0  0.76462  0.44394  0.98979  1.0000
  S   S273      1.0  0.72310  0.43294  0.99068  1.0000
  H   H1080     1.0  0.78571  0.48643  0.21596  1.0000
  H   H1081     1.0  0.88044  0.01708  0.00420  1.0000
  H   H1082     1.0  0.80828  0.50813  0.22775  1.0000
  H   H1083     1.0  0.84157  0.50143  0.19773  1.0000
  N   N69       1.0  0.85059  0.01563  0.98789  1.0000
  N   N70       1.0  0.66351  0.46338  0.23040  1.0000
  C   C675      1.0  0.79582  0.51260  0.21822  1.0000
  S   S274      1.0  0.69630  0.45607  0.45212  1.0000
  S   S275      1.0  0.69792  0.02071  0.48200  1.0000
  S   S276      1.0  0.75709  0.48354  0.47605  1.0000
  H   H1084     1.0  0.67239  0.41667  0.43019  1.0000
  S   S277      1.0  0.73637  0.07764  0.46886  1.0000
  H   H1085     1.0  0.68511  0.23192  0.46728  1.0000
  C   C676      1.0  0.66983  0.42666  0.45070  1.0000
  Fe  Fe139     1.0  0.70265  0.08251  0.48024  1.0000
  Fe  Fe140     1.0  0.71453  0.48763  0.46984  1.0000
  H   H1086     1.0  0.66687  0.21232  0.45342  1.0000
  C   C677      1.0  0.67678  0.30396  0.45848  1.0000
  H   H1087     1.0  0.66563  0.27699  0.43417  1.0000
  H   H1088     1.0  0.66472  0.49843  0.46765  1.0000
  H   H1089     1.0  0.69255  0.30683  0.45227  1.0000
  C   C678      1.0  0.67762  0.23712  0.45672  1.0000
  H   H1090     1.0  0.69421  0.23826  0.45100  1.0000
  H   H1091     1.0  0.68542  0.30168  0.46896  1.0000
  H   H1092     1.0  0.68021  0.11223  0.45016  1.0000
  H   H1093     1.0  0.66935  0.01807  0.28352  1.0000
  S   S278      1.0  0.66941  0.12499  0.47713  1.0000
  H   H1094     1.0  0.69062  0.44270  0.24660  1.0000
  H   H1095     1.0  0.66863  0.47848  0.25075  1.0000
  C   C679      1.0  0.67057  0.45373  0.24453  1.0000
  Fe  Fe141     1.0  0.73368  0.01565  0.47199  1.0000
  H   H1096     1.0  0.66499  0.33032  0.45725  1.0000
  H   H1097     1.0  0.66240  0.43005  0.47086  1.0000
  C   C680      1.0  0.66311  0.12989  0.44982  1.0000
  Fe  Fe142     1.0  0.92160  0.24709  0.54661  1.0000
  S   S279      1.0  0.91637  0.30661  0.55210  1.0000
  S   S280      1.0  0.95988  0.21652  0.54519  1.0000
  Fe  Fe143     1.0  0.86433  0.23267  0.54684  1.0000
  S   S281      1.0  0.85561  0.29098  0.55308  1.0000
  S   S282      1.0  0.83076  0.19430  0.54457  1.0000
  Fe  Fe144     1.0  0.88025  0.30816  0.53778  1.0000
  S   S283      1.0  0.86889  0.35214  0.52152  1.0000
  Fe  Fe145     1.0  0.89219  0.28384  0.56694  1.0000
  S   S284      1.0  0.90196  0.30332  0.58792  1.0000
  S   S285      1.0  0.88745  0.25000  0.53092  1.0000
  S   S286      1.0  0.89879  0.22426  0.56201  1.0000
  Fe  Fe146     1.0  0.93474  0.19324  0.68002  1.0000
  S   S287      1.0  0.91161  0.19707  0.69686  1.0000
  N   N71       1.0  0.79541  0.02426  0.53187  1.0000
  Fe  Fe147     1.0  0.88958  0.21938  0.65998  1.0000
  S   S288      1.0  0.86354  0.22614  0.67583  1.0000
  S   S289      1.0  0.87136  0.21849  0.63865  1.0000
  Fe  Fe148     1.0  0.89694  0.25263  0.68760  1.0000
  S   S290      1.0  0.89884  0.29855  0.70298  1.0000
  Fe  Fe149     1.0  0.88069  0.17054  0.68354  1.0000
  S   S291      1.0  0.85723  0.12409  0.69091  1.0000
  S   S292      1.0  0.92188  0.24966  0.67117  1.0000
  S   S293      1.0  0.90498  0.16271  0.66737  1.0000
  S   S294      1.0  0.87899  0.47576  0.70105  1.0000
  H   H1098     1.0  0.79474  0.19924  0.64226  1.0000
  C   C681      1.0  0.91325  0.06875  0.70466  1.0000
  H   H1099     1.0  0.75828  0.25457  0.51593  1.0000
  H   H1100     1.0  0.80010  0.18823  0.66662  1.0000
  H   H1101     1.0  0.99233  0.21046  0.57447  1.0000
  S   S295      1.0  0.72686  0.08497  0.49987  1.0000
  C   C682      1.0  0.84947  0.08201  0.68279  1.0000
  C   C683      1.0  0.83093  0.05953  0.68735  1.0000
  H   H1102     1.0  0.99208  0.28056  0.60084  1.0000
  H   H1103     1.0  0.76131  0.05225  0.52234  1.0000
  H   H1104     1.0  0.97744  0.07859  0.71107  1.0000
  C   C684      1.0  0.86101  0.07080  0.67184  1.0000
  H   H1105     1.0  0.82201  0.06774  0.69587  1.0000
  C   C685      1.0  0.94683  0.02903  0.69788  1.0000
  H   H1106     1.0  0.87558  0.08737  0.66830  1.0000
  C   C686      1.0  0.89385  0.34793  0.70205  1.0000
  C   C687      1.0  0.88359  0.36704  0.69044  1.0000
  C   C688      1.0  0.87948  0.40608  0.69034  1.0000
  C   C689      1.0  0.88579  0.42671  0.70175  1.0000
  C   C690      1.0  0.89654  0.40766  0.71330  1.0000
  C   C691      1.0  0.90032  0.36855  0.71346  1.0000
  H   H1107     1.0  0.87850  0.35175  0.68157  1.0000
  H   H1108     1.0  0.87123  0.42044  0.68132  1.0000
  H   H1109     1.0  0.90205  0.42306  0.72208  1.0000
  H   H1110     1.0  0.90842  0.35417  0.72249  1.0000
  C   C692      1.0  0.83973  0.37855  0.51966  1.0000
  C   C693      1.0  0.82610  0.38512  0.53031  1.0000
  C   C694      1.0  0.80320  0.40690  0.52850  1.0000
  C   C695      1.0  0.79356  0.42204  0.51602  1.0000
  C   C696      1.0  0.80682  0.41457  0.50529  1.0000
  C   C697      1.0  0.83005  0.39354  0.50715  1.0000
  H   H1111     1.0  0.83348  0.37406  0.54001  1.0000
  H   H1112     1.0  0.79305  0.41243  0.53687  1.0000
  H   H1113     1.0  0.80039  0.04309  0.51224  1.0000
  H   H1114     1.0  0.84038  0.38827  0.49883  1.0000
  C   C698      1.0  0.88163  0.24090  0.62473  1.0000
  C   C699      1.0  0.89881  0.26974  0.62592  1.0000
  C   C700      1.0  0.90500  0.28846  0.61455  1.0000
  C   C701      1.0  0.89440  0.27815  0.60192  1.0000
  C   C702      1.0  0.87786  0.24857  0.60072  1.0000
  C   C703      1.0  0.87134  0.23030  0.61209  1.0000
  H   H1115     1.0  0.90669  0.27834  0.63560  1.0000
  H   H1116     1.0  0.91770  0.31146  0.61555  1.0000
  H   H1117     1.0  0.86955  0.24042  0.59106  1.0000
  H   H1118     1.0  0.85800  0.20808  0.61108  1.0000
  C   C704      1.0  0.82212  0.16927  0.53012  1.0000
  C   C705      1.0  0.79847  0.15206  0.52853  1.0000
  C   C706      1.0  0.79027  0.13364  0.51686  1.0000
  C   C707      1.0  0.80606  0.13115  0.50687  1.0000
  C   C708      1.0  0.82976  0.14811  0.50850  1.0000
  C   C709      1.0  0.83772  0.16731  0.52004  1.0000
  H   H1119     1.0  0.78619  0.15379  0.53624  1.0000
  H   H1120     1.0  0.77182  0.12123  0.51560  1.0000
  H   H1121     1.0  0.84210  0.14625  0.50081  1.0000
  H   H1122     1.0  0.85603  0.18026  0.52116  1.0000
  H   H1123     1.0  0.85250  0.47470  0.51241  1.0000
  C   C710      1.0  0.77260  0.04901  0.53225  1.0000
  H   H1124     1.0  0.83780  0.42092  0.71222  1.0000
  H   H1125     1.0  0.96409  0.17874  0.70908  1.0000
  H   H1126     1.0  0.98860  0.15900  0.73053  1.0000
  C   C711      1.0  0.83426  0.01630  0.66959  1.0000
  C   C712      1.0  0.83173  0.40861  0.72140  1.0000
  H   H1127     1.0  0.75953  0.03762  0.53898  1.0000
  H   H1128     1.0  0.81776  0.47994  0.71724  1.0000
  H   H1129     1.0  0.77646  0.15313  0.66480  1.0000
  H   H1130     1.0  0.80767  0.14223  0.67336  1.0000
  C   C713      1.0  0.79190  0.16885  0.64117  1.0000
  H   H1131     1.0  0.83705  0.18455  0.65386  1.0000
  C   C714      1.0  0.82336  0.02681  0.68081  1.0000
  H   H1132     1.0  0.77104  0.16430  0.64045  1.0000
  C   C715      1.0  0.81576  0.50185  0.49397  1.0000
  C   C716      1.0  0.83363  0.15439  0.65280  1.0000
  H   H1133     1.0  0.79846  0.16110  0.63161  1.0000
  H   H1134     1.0  0.93273  0.23258  0.58867  1.0000
  H   H1135     1.0  0.81172  0.08986  0.65886  1.0000
  H   H1136     1.0  0.82956  0.24633  0.52199  1.0000
  H   H1137     1.0  0.81275  0.39653  0.71869  1.0000
  H   H1138     1.0  0.77785  0.07723  0.53559  1.0000
  H   H1139     1.0  0.79855  0.49192  0.49804  1.0000
  C   C717      1.0  0.81135  0.03947  0.52224  1.0000
  H   H1140     1.0  0.83414  0.29318  0.51683  1.0000
  H   H1141     1.0  0.97340  0.33439  0.69198  1.0000
  H   H1142     1.0  0.98185  0.23866  0.60828  1.0000
  H   H1143     1.0  0.77938  0.23690  0.50473  1.0000
  H   H1144     1.0  0.76525  0.31987  0.51001  1.0000
  C   C718      1.0  0.95093  0.21778  0.58705  1.0000
  C   C719      1.0  0.96191  0.31728  0.69808  1.0000
  H   H1145     1.0  0.97428  0.24927  0.69000  1.0000
  H   H1146     1.0  0.77519  0.29887  0.53337  1.0000
  H   H1147     1.0  0.90711  0.09745  0.70712  1.0000
  N   N72       1.0  0.97207  0.24375  0.58727  1.0000
  H   H1148     1.0  0.91077  0.05003  0.71317  1.0000
  C   C720      1.0  0.98273  0.16527  0.70931  1.0000
  H   H1149     1.0  0.81664  0.04977  0.54835  1.0000
  C   C721      1.0  0.85327  0.03834  0.66523  1.0000
  H   H1150     1.0  0.80196  0.26726  0.53828  1.0000
  C   C722      1.0  0.84097  0.49906  0.51527  1.0000
  H   H1151     1.0  0.93761  0.12243  0.69294  1.0000
  H   H1152     1.0  0.94896  0.29153  0.57955  1.0000
  H   H1153     1.0  0.80998  0.09699  0.64138  1.0000
  H   H1154     1.0  0.78155  0.10064  0.64941  1.0000
  Fe  Fe150     1.0  0.74697  0.48556  0.49672  1.0000
  N   N73       1.0  0.80618  0.14705  0.65228  1.0000
  C   C723      1.0  0.80218  0.10695  0.65037  1.0000
  H   H1155     1.0  0.84502  0.13969  0.66132  1.0000
  N   N74       1.0  0.79492  0.27961  0.51744  1.0000
  C   C724      1.0  0.85645  0.45169  0.73493  1.0000
  C   C725      1.0  0.79713  0.15820  0.66479  1.0000
  H   H1156     1.0  0.84152  0.14567  0.64368  1.0000
  H   H1157     1.0  0.95673  0.05813  0.72169  1.0000
  C   C726      1.0  0.96525  0.27363  0.57719  1.0000
  S   S296      1.0  0.79729  0.10613  0.49245  1.0000
  H   H1158     1.0  0.82233  0.25999  0.50495  1.0000
  C   C727      1.0  0.97654  0.26034  0.60040  1.0000
  H   H1159     1.0  0.89968  0.06026  0.69614  1.0000
  H   H1160     1.0  0.82827  0.02090  0.52130  1.0000
  H   H1161     1.0  0.95195  0.10608  0.71652  1.0000
  H   H1162     1.0  0.96688  0.02695  0.69555  1.0000
  Fe  Fe151     1.0  0.76025  0.07557  0.48873  1.0000
  C   C728      1.0  0.78509  0.31110  0.50852  1.0000
  H   H1163     1.0  0.97878  0.29202  0.54889  1.0000
  H   H1164     1.0  0.86312  0.46531  0.72618  1.0000
  H   H1165     1.0  0.81848  0.06725  0.52513  1.0000
  C   C729      1.0  0.82135  0.26934  0.51518  1.0000
  H   H1166     1.0  0.95496  0.19558  0.59484  1.0000
  N   N75       1.0  0.93989  0.06723  0.70155  1.0000
  H   H1167     1.0  0.94640  0.30523  0.69128  1.0000
  H   H1168     1.0  0.94763  0.20389  0.57740  1.0000
  S   S297      1.0  0.70439  0.48546  0.49055  1.0000
  S   S298      1.0  0.76528  0.45062  0.51449  1.0000
  H   H1169     1.0  0.95944  0.26191  0.56739  1.0000
  H   H1170     1.0  0.80719  0.31443  0.53363  1.0000
  S   S299      1.0  0.97609  0.17251  0.68212  1.0000
  C   C730      1.0  0.77857  0.24742  0.51484  1.0000
  H   H1171     1.0  0.86184  0.03040  0.65657  1.0000
  H   H1172     1.0  0.79913  0.42479  0.49554  1.0000
  C   C731      1.0  0.95725  0.07791  0.71321  1.0000
  H   H1173     1.0  0.78516  0.30387  0.49800  1.0000
  H   H1174     1.0  0.79279  0.45770  0.72449  1.0000
  C   C732      1.0  0.98925  0.26263  0.69676  1.0000
  H   H1175     1.0  0.79700  0.33577  0.51028  1.0000
  C   C733      1.0  0.79474  0.29055  0.53128  1.0000
  H   H1176     1.0  0.78478  0.22398  0.52187  1.0000
  C   C734      1.0  0.96167  0.26638  0.71386  1.0000
  H   H1177     1.0  0.92908  0.08653  0.68150  1.0000
  H   H1178     1.0  0.82481  0.48770  0.52000  1.0000
  H   H1179     1.0  0.95898  0.27557  0.60281  1.0000
  H   H1180     1.0  0.98148  0.29202  0.57625  1.0000
  C   C735      1.0  0.81258  0.46751  0.72659  1.0000
  H   H1181     1.0  0.94630  0.25268  0.70753  1.0000
  H   H1182     1.0  0.93418  0.02021  0.68906  1.0000
  H   H1183     1.0  0.96203  0.09268  0.68767  1.0000
  H   H1184     1.0  0.95241  0.33635  0.70457  1.0000
  C   C736      1.0  0.99099  0.23476  0.54733  1.0000
  C   C737      1.0  0.81031  0.02185  0.54509  1.0000
  C   C738      1.0  0.94224  0.09326  0.69042  1.0000
  H   H1185     1.0  0.95204  0.28465  0.72055  1.0000
  N   N76       1.0  0.83079  0.43686  0.73163  1.0000
  Fe  Fe152     1.0  0.72492  0.02269  0.50068  1.0000
  H   H1186     1.0  0.84567  0.38536  0.72473  1.0000
  H   H1187     1.0  0.81233  0.49026  0.73383  1.0000
  H   H1188     1.0  0.82659  0.47720  0.49085  1.0000
  N   N77       1.0  0.97777  0.28785  0.70582  1.0000
  H   H1189     1.0  0.97303  0.24422  0.71998  1.0000
  H   H1190     1.0  0.99013  0.32413  0.72155  1.0000
  C   C739      1.0  0.99300  0.15889  0.69757  1.0000
  C   C740      1.0  0.99498  0.27261  0.54928  1.0000
  C   C741      1.0  0.99541  0.22331  0.58434  1.0000
  Fe  Fe153     1.0  0.71625  0.46413  0.97120  1.0000
  S   S300      1.0  0.75785  0.47231  0.96974  1.0000
  C   C742      1.0  0.66408  0.47207  0.78867  1.0000
  S   S301      1.0  0.68691  0.07361  0.97091  1.0000
  C   C743      1.0  0.74393  0.50460  0.93560  1.0000
  S   S302      1.0  0.76322  0.04262  0.97556  1.0000
  H   H1191     1.0  0.67012  0.27000  0.88142  1.0000
  H   H1192     1.0  0.69191  0.21063  0.87549  1.0000
  H   H1193     1.0  0.76150  0.51185  0.94205  1.0000
  H   H1194     1.0  0.69699  0.07315  0.94322  1.0000
  H   H1195     1.0  0.74979  0.49603  0.92601  1.0000
  S   S303      1.0  0.69329  0.44787  0.95202  1.0000
  H   H1196     1.0  0.80316  0.40835  0.74153  1.0000
  C   C744      1.0  0.67419  0.10005  0.95656  1.0000
  Fe  Fe154     1.0  0.72111  0.03257  0.97493  1.0000
  H   H1197     1.0  0.87666  0.03211  0.97445  1.0000
  H   H1198     1.0  0.66304  0.22680  0.90634  1.0000
  H   H1199     1.0  0.66703  0.41275  0.97237  1.0000
  C   C745      1.0  0.67069  0.11489  0.93305  1.0000
  C   C746      1.0  0.68219  0.09405  0.94421  1.0000
  H   H1200     1.0  0.69329  0.50053  0.92978  1.0000
  H   H1201     1.0  0.67488  0.49157  0.78359  1.0000
  H   H1202     1.0  0.71036  0.50469  0.82994  1.0000
  C   C747      1.0  0.82249  0.41987  0.74361  1.0000
  H   H1203     1.0  0.82166  0.44080  0.75145  1.0000
  C   C748      1.0  0.67383  0.21328  0.89893  1.0000
  H   H1204     1.0  0.73609  0.47980  0.94022  1.0000
  H   H1205     1.0  0.66850  0.40715  0.93058  1.0000
  H   H1206     1.0  0.87081  0.42936  0.73860  1.0000
  H   H1207     1.0  0.81913  0.02715  0.97275  1.0000
  H   H1208     1.0  0.70507  0.48679  0.85294  1.0000
  H   H1209     1.0  0.69210  0.22771  0.89892  1.0000
  C   C749      1.0  0.67016  0.41316  0.95158  1.0000
  H   H1210     1.0  0.85659  0.47288  0.74269  1.0000
  H   H1211     1.0  0.67680  0.10978  0.92352  1.0000
  H   H1212     1.0  0.83591  0.39679  0.74772  1.0000
  C   C750      1.0  0.82958  0.04035  0.98147  1.0000
  H   H1213     1.0  0.67856  0.16673  0.87910  1.0000
  C   C751      1.0  0.67373  0.19639  0.87619  1.0000
  H   H1214     1.0  0.67834  0.18409  0.90258  1.0000
  H   H1215     1.0  0.66453  0.43049  0.77377  1.0000
  H   H1216     1.0  0.83667  0.06723  0.97807  1.0000
  H   H1217     1.0  0.66282  0.19694  0.86614  1.0000
  H   H1218     1.0  0.73284  0.51208  0.85875  1.0000
  H   H1219     1.0  0.76547  0.89927  0.20978  1.0000
  H   H1220     1.0  0.74734  0.65117  0.99335  1.0000
  H   H1221     1.0  0.77778  0.54987  0.19620  1.0000
  S   S304      1.0  0.68981  0.73804  0.04726  1.0000
  C   C752      1.0  0.78610  0.90113  0.23506  1.0000
  H   H1222     1.0  0.92513  0.75116  0.22148  1.0000
  S   S305      1.0  0.71292  0.69863  0.08147  1.0000
  H   H1223     1.0  0.73730  0.88681  0.22706  1.0000
  H   H1224     1.0  0.89981  0.72853  0.22840  1.0000
  H   H1225     1.0  0.67362  0.80820  0.01902  1.0000
  S   S306      1.0  0.93894  0.87841  0.23485  1.0000
  H   H1226     1.0  0.66681  0.57652  0.19116  1.0000
  S   S307      1.0  0.88725  0.92011  0.20962  1.0000
  C   C753      1.0  0.73088  0.64960  0.01736  1.0000
  H   H1227     1.0  0.79440  0.78612  0.15040  1.0000
  C   C754      1.0  0.69021  0.89427  0.02926  1.0000
  Fe  Fe155     1.0  0.84918  0.90621  0.21569  1.0000
  S   S308      1.0  0.81842  0.86526  0.20918  1.0000
  Fe  Fe156     1.0  0.87806  0.98017  0.21393  1.0000
  H   H1228     1.0  0.75379  0.94702  0.20835  1.0000
  H   H1229     1.0  0.69038  0.83207  0.99890  1.0000
  Fe  Fe157     1.0  0.76550  0.62188  0.18633  1.0000
  S   S309      1.0  0.80754  0.62629  0.18502  1.0000
  S   S310      1.0  0.75477  0.61008  0.20681  1.0000
  Fe  Fe158     1.0  0.75154  0.63769  0.15694  1.0000
  S   S311      1.0  0.79247  0.64229  0.15348  1.0000
  S   S312      1.0  0.71637  0.64963  0.14203  1.0000
  Fe  Fe159     1.0  0.80034  0.59168  0.16703  1.0000
  S   S313      1.0  0.83189  0.54878  0.16388  1.0000
  Fe  Fe160     1.0  0.79661  0.67625  0.17181  1.0000
  S   S314      1.0  0.82091  0.72738  0.17125  1.0000
  S   S315      1.0  0.75880  0.58414  0.16909  1.0000
  S   S316      1.0  0.75512  0.67479  0.17453  1.0000
  C   C755      1.0  0.82015  0.82662  0.19885  1.0000
  C   C756      1.0  0.83902  0.82263  0.19046  1.0000
  C   C757      1.0  0.83915  0.79186  0.18216  1.0000
  C   C758      1.0  0.82065  0.76465  0.18228  1.0000
  C   C759      1.0  0.80206  0.76836  0.19084  1.0000
  C   C760      1.0  0.80174  0.79934  0.19901  1.0000
  H   H1230     1.0  0.85309  0.84369  0.19012  1.0000
  H   H1231     1.0  0.85351  0.78932  0.17550  1.0000
  H   H1232     1.0  0.78768  0.74768  0.19102  1.0000
  H   H1233     1.0  0.78705  0.80218  0.20547  1.0000
  C   C761      1.0  0.77985  0.79110  0.14160  1.0000
  H   H1234     1.0  0.77913  0.63400  0.99874  1.0000
  C   C762      1.0  0.71467  0.60113  0.22121  1.0000
  C   C763      1.0  0.72266  0.60093  0.20860  1.0000
  C   C764      1.0  0.70525  0.59226  0.19777  1.0000
  H   H1235     1.0  0.76550  0.81200  0.14433  1.0000
  H   H1236     1.0  0.76709  0.60979  0.03288  1.0000
  H   H1237     1.0  0.71116  0.59206  0.18801  1.0000
  C   C765      1.0  0.71325  0.68470  0.09825  1.0000
  C   C766      1.0  0.69141  0.68735  0.10469  1.0000
  C   C767      1.0  0.69269  0.67637  0.11808  1.0000
  C   C768      1.0  0.71575  0.66264  0.12517  1.0000
  C   C769      1.0  0.73757  0.65978  0.11871  1.0000
  C   C770      1.0  0.73633  0.67097  0.10534  1.0000
  H   H1238     1.0  0.80368  0.53933  0.18701  1.0000
  H   H1239     1.0  0.83521  0.56732  0.20303  1.0000
  H   H1240     1.0  0.75525  0.64835  0.12395  1.0000
  H   H1241     1.0  0.75326  0.66852  0.10040  1.0000
  C   C771      1.0  0.67742  0.60427  0.03079  1.0000
  H   H1242     1.0  0.85524  0.96151  0.99744  1.0000
  C   C772      1.0  0.89964  0.81616  0.21531  1.0000
  C   C773      1.0  0.70017  0.88540  0.00692  1.0000
  C   C774      1.0  0.70027  0.90762  0.01797  1.0000
  H   H1243     1.0  0.78966  0.80371  0.13366  1.0000
  C   C775      1.0  0.68704  0.56737  0.03031  1.0000
  C   C776      1.0  0.68056  0.85835  0.02972  1.0000
  H   H1244     1.0  0.70780  0.93519  0.01781  1.0000
  H   H1245     1.0  0.89143  0.80996  0.20508  1.0000
  C   C777      1.0  0.69065  0.84943  0.00741  1.0000
  N   N78       1.0  0.76643  0.92730  0.22819  1.0000
  C   C778      1.0  0.83996  0.98100  0.99259  1.0000
  H   H1246     1.0  0.73864  0.57485  0.01714  1.0000
  H   H1247     1.0  0.74792  0.83429  0.99788  1.0000
  H   H1248     1.0  0.68995  0.91179  0.03771  1.0000
  C   C779      1.0  0.77360  0.62502  0.02436  1.0000
  H   H1249     1.0  0.72800  0.60798  0.22962  1.0000
  S   S317      1.0  0.77267  0.95954  0.99025  1.0000
  H   H1250     1.0  0.76471  0.87553  0.99526  1.0000
  H   H1251     1.0  0.66434  0.62284  0.99788  1.0000
  H   H1252     1.0  0.67354  0.69783  0.09936  1.0000
  H   H1253     1.0  0.89182  0.84393  0.21766  1.0000
  H   H1254     1.0  0.79054  0.60920  0.02156  1.0000
  H   H1255     1.0  0.71488  0.65283  0.00919  1.0000
  S   S318      1.0  0.72464  0.01248  0.99620  1.0000
  C   C780      1.0  0.68111  0.83581  0.01879  1.0000
  C   C781      1.0  0.68938  0.59306  0.22297  1.0000
  H   H1256     1.0  0.78740  0.93600  0.21172  1.0000
  C   C782      1.0  0.68896  0.55071  0.01816  1.0000
  C   C783      1.0  0.74088  0.91539  0.23065  1.0000
  H   H1257     1.0  0.89568  0.74304  0.21131  1.0000
  C   C784      1.0  0.90401  0.75089  0.22137  1.0000
  N   N79       1.0  0.89359  0.78746  0.22490  1.0000
  C   C785      1.0  0.76825  0.92747  0.21388  1.0000
  H   H1258     1.0  0.77993  0.65268  0.02784  1.0000
  S   S319      1.0  0.71057  0.90167  0.99206  1.0000
  H   H1259     1.0  0.68337  0.59369  0.23270  1.0000
  N   N80       1.0  0.76777  0.75614  0.13739  1.0000
  C   C786      1.0  0.74867  0.76357  0.12571  1.0000
  C   C787      1.0  0.78760  0.72916  0.13407  1.0000
  C   C788      1.0  0.75503  0.74058  0.14825  1.0000
  H   H1260     1.0  0.75763  0.77454  0.11718  1.0000
  H   H1261     1.0  0.73356  0.78413  0.12780  1.0000
  H   H1262     1.0  0.73888  0.73777  0.12249  1.0000
  H   H1263     1.0  0.80226  0.72284  0.14271  1.0000
  H   H1264     1.0  0.79763  0.73988  0.12590  1.0000
  H   H1265     1.0  0.77919  0.70238  0.13094  1.0000
  H   H1266     1.0  0.73948  0.75964  0.15084  1.0000
  H   H1267     1.0  0.76880  0.73548  0.15730  1.0000
  H   H1268     1.0  0.74632  0.71362  0.14557  1.0000
  N   N81       1.0  0.75301  0.62879  0.01319  1.0000
  H   H1269     1.0  0.67851  0.51810  0.23212  1.0000
  H   H1270     1.0  0.72961  0.59294  0.00063  1.0000
  C   C789      1.0  0.74531  0.59139  0.00897  1.0000
  C   C790      1.0  0.67204  0.58399  0.21215  1.0000
  C   C791      1.0  0.82352  0.55857  0.21085  1.0000
  H   H1271     1.0  0.72551  0.93445  0.22561  1.0000
  C   C792      1.0  0.68011  0.58348  0.19958  1.0000
  S   S320      1.0  0.83840  0.96660  0.21802  1.0000
  H   H1272     1.0  0.80932  0.58167  0.21188  1.0000
  H   H1273     1.0  0.83645  0.55571  0.22028  1.0000
  H   H1274     1.0  0.72342  0.63505  0.02573  1.0000
  H   H1275     1.0  0.67567  0.67846  0.12298  1.0000
  C   C793      1.0  0.67060  0.60743  0.00697  1.0000
  H   H1276     1.0  0.76793  0.67749  0.00475  1.0000
  C   C794      1.0  0.77053  0.96513  0.23321  1.0000
  H   H1277     1.0  0.82646  0.98693  0.99992  1.0000
  H   H1278     1.0  0.73590  0.67797  0.02065  1.0000
  C   C795      1.0  0.76228  0.64892  0.00205  1.0000
  H   H1279     1.0  0.69359  0.55196  0.03938  1.0000
  H   H1280     1.0  0.76151  0.57544  0.00552  1.0000
  Fe  Fe161     1.0  0.90217  0.91405  0.23118  1.0000
  Fe  Fe162     1.0  0.67860  0.71733  0.06668  1.0000
  C   C796      1.0  0.86556  0.78602  0.22458  1.0000
  C   C797      1.0  0.68034  0.57076  0.00651  1.0000
  H   H1281     1.0  0.85633  0.77806  0.21472  1.0000
  H   H1282     1.0  0.92064  0.81876  0.21546  1.0000
  H   H1283     1.0  0.78221  0.83358  0.00123  1.0000
  C   C798      1.0  0.76560  0.84473  0.99435  1.0000
  H   H1284     1.0  0.86019  0.76544  0.23194  1.0000
  H   H1285     1.0  0.78461  0.87273  0.23100  1.0000
  H   H1286     1.0  0.68109  0.55799  0.99712  1.0000
  C   C799      1.0  0.66949  0.62451  0.01908  1.0000
  H   H1287     1.0  0.78991  0.97466  0.23182  1.0000
  Fe  Fe163     1.0  0.73016  0.95555  0.98834  1.0000
  C   C800      1.0  0.79335  0.52903  0.19514  1.0000
  H   H1288     1.0  0.78106  0.53463  0.21967  1.0000
  H   H1289     1.0  0.85694  0.81360  0.22673  1.0000
  S   S321      1.0  0.86463  0.89630  0.23695  1.0000
  H   H1290     1.0  0.80570  0.91040  0.23407  1.0000
  H   H1291     1.0  0.67791  0.97006  0.00001  1.0000
  N   N82       1.0  0.81074  0.52349  0.20752  1.0000
  S   S322      1.0  0.66695  0.84338  0.04385  1.0000
  H   H1292     1.0  0.67674  0.61722  0.04019  1.0000
  H   H1293     1.0  0.75636  0.98585  0.22812  1.0000
  S   S323      1.0  0.89515  0.97466  0.23521  1.0000
  Fe  Fe164     1.0  0.75521  0.54634  0.47647  1.0000
  H   H1294     1.0  0.73147  0.92511  0.34461  1.0000
  S   S324      1.0  0.78764  0.58110  0.47072  1.0000
  Fe  Fe165     1.0  0.86032  0.76617  0.42059  1.0000
  S   S325      1.0  0.82723  0.74668  0.40662  1.0000
  S   S326      1.0  0.89908  0.73499  0.42386  1.0000
  Fe  Fe166     1.0  0.82738  0.82780  0.43113  1.0000
  S   S327      1.0  0.79220  0.81375  0.41788  1.0000
  S   S328      1.0  0.83037  0.87013  0.44728  1.0000
  Fe  Fe167     1.0  0.80394  0.75401  0.42355  1.0000
  S   S329      1.0  0.77216  0.71800  0.42931  1.0000
  Fe  Fe168     1.0  0.81814  0.80768  0.40209  1.0000
  S   S330      1.0  0.81209  0.83454  0.38144  1.0000
  S   S331      1.0  0.83750  0.76871  0.43779  1.0000
  S   S332      1.0  0.85288  0.82656  0.41508  1.0000
  S   S333      1.0  0.66807  0.88254  0.30987  1.0000
  S   S334      1.0  0.73427  0.97504  0.45529  1.0000
  C   C801      1.0  0.74245  0.81118  0.44039  1.0000
  Fe  Fe169     1.0  0.70724  0.86377  0.31932  1.0000
  C   C802      1.0  0.68034  0.93180  0.34147  1.0000
  S   S335      1.0  0.71138  0.83850  0.34008  1.0000
  Fe  Fe170     1.0  0.73173  0.88679  0.29506  1.0000
  S   S336      1.0  0.69450  0.90908  0.28398  1.0000
  S   S337      1.0  0.77009  0.87376  0.28796  1.0000
  H   H1295     1.0  0.74643  0.78835  0.43365  1.0000
  H   H1296     1.0  0.68533  0.00531  0.33819  1.0000
  C   C803      1.0  0.97617  0.74322  0.42597  1.0000
  C   C804      1.0  0.74825  0.83333  0.46263  1.0000
  S   S338      1.0  0.72589  0.91579  0.31382  1.0000
  S   S339      1.0  0.71565  0.83305  0.30144  1.0000
  S   S340      1.0  0.83182  0.98041  0.25406  1.0000
  C   C805      1.0  0.78681  0.90412  0.27859  1.0000
  C   C806      1.0  0.80816  0.88989  0.27312  1.0000
  C   C807      1.0  0.82219  0.91301  0.26564  1.0000
  C   C808      1.0  0.81513  0.95072  0.26370  1.0000
  C   C809      1.0  0.79406  0.96513  0.26939  1.0000
  C   C810      1.0  0.77972  0.94183  0.27666  1.0000
  H   H1297     1.0  0.81388  0.86079  0.27465  1.0000
  H   H1298     1.0  0.83859  0.90175  0.26150  1.0000
  H   H1299     1.0  0.72736  0.83927  0.46235  1.0000
  H   H1300     1.0  0.76345  0.95314  0.28094  1.0000
  H   H1301     1.0  0.95948  0.83116  0.41458  1.0000
  N   N83       1.0  0.75367  0.80211  0.45410  1.0000
  C   C811      1.0  0.74249  0.76785  0.45875  1.0000
  H   H1302     1.0  0.78430  0.89875  0.24576  1.0000
  C   C812      1.0  0.78373  0.83543  0.37020  1.0000
  C   C813      1.0  0.78298  0.85579  0.35825  1.0000
  C   C814      1.0  0.76097  0.85695  0.34894  1.0000
  C   C815      1.0  0.73954  0.83751  0.35145  1.0000
  C   C816      1.0  0.74020  0.81737  0.36343  1.0000
  C   C817      1.0  0.76220  0.81628  0.37277  1.0000
  H   H1303     1.0  0.79952  0.87089  0.35625  1.0000
  H   H1304     1.0  0.76053  0.87300  0.33985  1.0000
  H   H1305     1.0  0.72366  0.80234  0.36549  1.0000
  H   H1306     1.0  0.76255  0.80047  0.38193  1.0000
  C   C818      1.0  0.80379  0.89986  0.44926  1.0000
  C   C819      1.0  0.80437  0.92177  0.46048  1.0000
  C   C820      1.0  0.78330  0.94518  0.46243  1.0000
  C   C821      1.0  0.76145  0.94675  0.45317  1.0000
  C   C822      1.0  0.76090  0.92478  0.44196  1.0000
  C   C823      1.0  0.78201  0.90157  0.43997  1.0000
  H   H1307     1.0  0.82118  0.92073  0.46769  1.0000
  H   H1308     1.0  0.78396  0.96203  0.47107  1.0000
  H   H1309     1.0  0.74414  0.92610  0.43470  1.0000
  H   H1310     1.0  0.78154  0.88545  0.43117  1.0000
  C   C824      1.0  0.78292  0.61930  0.45926  1.0000
  C   C825      1.0  0.80413  0.63912  0.45633  1.0000
  C   C826      1.0  0.80118  0.66941  0.44720  1.0000
  C   C827      1.0  0.77694  0.68012  0.44088  1.0000
  C   C828      1.0  0.75571  0.66053  0.44390  1.0000
  C   C829      1.0  0.75865  0.63029  0.45304  1.0000
  H   H1311     1.0  0.82299  0.63081  0.46104  1.0000
  H   H1312     1.0  0.81770  0.68414  0.44494  1.0000
  H   H1313     1.0  0.73689  0.66855  0.43905  1.0000
  H   H1314     1.0  0.74217  0.61533  0.45519  1.0000
  C   C830      1.0  0.95518  0.86444  0.25042  1.0000
  C   C831      1.0  0.94651  0.87520  0.26220  1.0000
  H   H1315     1.0  0.92937  0.89272  0.26194  1.0000
  H   H1316     1.0  0.79055  0.82080  0.45070  1.0000
  C   C832      1.0  0.95732  0.80270  0.41779  1.0000
  C   C833      1.0  0.93264  0.78906  0.41795  1.0000
  C   C834      1.0  0.92961  0.75263  0.42240  1.0000
  C   C835      1.0  0.95149  0.72970  0.42625  1.0000
  H   H1317     1.0  0.93802  0.85506  0.47039  1.0000
  H   H1318     1.0  0.79086  0.79011  0.46479  1.0000
  H   H1319     1.0  0.91596  0.80680  0.41477  1.0000
  H   H1320     1.0  0.94932  0.70140  0.42965  1.0000
  H   H1321     1.0  0.73893  0.91500  0.24139  1.0000
  H   H1322     1.0  0.98626  0.81581  0.39378  1.0000
  C   C836      1.0  0.70327  0.98870  0.34148  1.0000
  C   C837      1.0  0.97743  0.84162  0.25092  1.0000
  H   H1323     1.0  0.71151  0.98082  0.33236  1.0000
  H   H1324     1.0  0.72137  0.81569  0.43963  1.0000
  H   H1325     1.0  0.76901  0.96608  0.24395  1.0000
  N   N84       1.0  0.79135  0.79855  0.31938  1.0000
  C   C838      1.0  0.81690  0.78261  0.32452  1.0000
  C   C839      1.0  0.79164  0.83958  0.31987  1.0000
  C   C840      1.0  0.77223  0.78460  0.32753  1.0000
  C   C841      1.0  0.78472  0.78747  0.30558  1.0000
  H   H1326     1.0  0.81739  0.75167  0.32429  1.0000
  H   H1327     1.0  0.82247  0.79046  0.33494  1.0000
  H   H1328     1.0  0.83178  0.79271  0.31862  1.0000
  H   H1329     1.0  0.77241  0.85250  0.31652  1.0000
  H   H1330     1.0  0.79774  0.84897  0.33002  1.0000
  H   H1331     1.0  0.80493  0.85122  0.31330  1.0000
  H   H1332     1.0  0.77066  0.75390  0.32694  1.0000
  H   H1333     1.0  0.75287  0.79740  0.32436  1.0000
  H   H1334     1.0  0.77727  0.79101  0.33811  1.0000
  H   H1335     1.0  0.79846  0.79822  0.29909  1.0000
  H   H1336     1.0  0.76556  0.79899  0.30139  1.0000
  H   H1337     1.0  0.78446  0.75671  0.30474  1.0000
  N   N85       1.0  0.91575  0.83764  0.45273  1.0000
  C   C842      1.0  0.92810  0.83023  0.46634  1.0000
  C   C843      1.0  0.90267  0.80410  0.44784  1.0000
  C   C844      1.0  0.93534  0.84714  0.44418  1.0000
  C   C845      1.0  0.89688  0.86902  0.45257  1.0000
  Fe  Fe171     1.0  0.85589  0.95711  0.23903  1.0000
  H   H1338     1.0  0.94256  0.80679  0.46675  1.0000
  H   H1339     1.0  0.91384  0.82264  0.47302  1.0000
  H   H1340     1.0  0.89365  0.80833  0.43748  1.0000
  H   H1341     1.0  0.91617  0.77956  0.44799  1.0000
  H   H1342     1.0  0.88727  0.79661  0.45383  1.0000
  H   H1343     1.0  0.94593  0.87196  0.44768  1.0000
  H   H1344     1.0  0.92658  0.85346  0.43387  1.0000
  H   H1345     1.0  0.94963  0.82372  0.44387  1.0000
  H   H1346     1.0  0.88638  0.87433  0.44252  1.0000
  H   H1347     1.0  0.90606  0.89525  0.45575  1.0000
  H   H1348     1.0  0.88224  0.86326  0.45924  1.0000
  H   H1349     1.0  0.75079  0.75979  0.46899  1.0000
  C   C846      1.0  0.97919  0.78000  0.42194  1.0000
  C   C847      1.0  0.66440  0.71335  0.28676  1.0000
  Fe  Fe172     1.0  0.68694  0.93386  0.30337  1.0000
  H   H1350     1.0  0.90091  0.77606  0.24582  1.0000
  H   H1351     1.0  0.75620  0.82733  0.47308  1.0000
  H   H1352     1.0  0.71948  0.90842  0.35919  1.0000
  H   H1353     1.0  0.70023  0.98488  0.36754  1.0000
  H   H1354     1.0  0.96385  0.77413  0.37748  1.0000
  H   H1355     1.0  0.99281  0.72543  0.42918  1.0000
  C   C848      1.0  0.72256  0.93410  0.35338  1.0000
  C   C849      1.0  0.78158  0.79601  0.45456  1.0000
  H   H1356     1.0  0.74618  0.74391  0.45240  1.0000
  S   S341      1.0  0.71379  0.55029  0.46851  1.0000
  Fe  Fe173     1.0  0.67831  0.85635  0.29142  1.0000
  H   H1357     1.0  0.72144  0.77137  0.45861  1.0000
  H   H1358     1.0  0.75684  0.85944  0.45947  1.0000
  H   H1359     1.0  0.75041  0.83691  0.43656  1.0000
  H   H1360     1.0  0.71687  0.00719  0.34709  1.0000
  C   C850      1.0  0.96014  0.86332  0.27437  1.0000
  H   H1361     1.0  0.95338  0.87181  0.28346  1.0000
  H   H1362     1.0  0.78634  0.77204  0.44851  1.0000
  H   H1363     1.0  0.78868  0.99440  0.26805  1.0000
  H   H1364     1.0  0.80904  0.51885  0.48492  1.0000
  H   H1365     1.0  0.67400  0.69655  0.29492  1.0000
  N   N86       1.0  0.69832  0.95545  0.34941  1.0000
  H   H1366     1.0  0.89804  0.82464  0.24115  1.0000
  H   H1367     1.0  0.68835  0.92251  0.33251  1.0000
  C   C851      1.0  0.98108  0.77365  0.37219  1.0000
  H   H1368     1.0  0.98416  0.83293  0.24184  1.0000
  H   H1369     1.0  0.66476  0.55070  0.45164  1.0000
  H   H1370     1.0  0.73666  0.95077  0.35949  1.0000
  C   C852      1.0  0.66496  0.75245  0.28722  1.0000
  C   C853      1.0  0.98253  0.84074  0.27486  1.0000
  C   C854      1.0  0.68712  0.96703  0.36130  1.0000
  H   H1371     1.0  0.67626  0.90617  0.34704  1.0000
  H   H1372     1.0  0.68323  0.94245  0.36747  1.0000
  H   H1373     1.0  0.99072  0.74711  0.39700  1.0000
  H   H1374     1.0  0.66874  0.98308  0.35862  1.0000
  H   H1375     1.0  0.67490  0.76553  0.29568  1.0000
  C   C855      1.0  0.99104  0.82977  0.26307  1.0000
  H   H1376     1.0  0.97830  0.79611  0.36442  1.0000
  S   S342      1.0  0.66757  0.98678  0.31028  1.0000
  C   C856      1.0  0.90516  0.79687  0.23826  1.0000
  H   H1377     1.0  0.92632  0.79824  0.23882  1.0000
  H   H1378     1.0  0.98185  0.74658  0.36715  1.0000
  C   C857      1.0  0.81593  0.55484  0.50797  1.0000
  S   S343      1.0  0.89508  0.58069  0.71012  1.0000
  H   H1379     1.0  0.81663  0.75014  0.65702  1.0000
  C   C858      1.0  0.82493  0.79746  0.62879  1.0000
  S   S344      1.0  0.84443  0.54867  0.72060  1.0000
  C   C859      1.0  0.79344  0.78842  0.72874  1.0000
  Fe  Fe174     1.0  0.85924  0.60525  0.71681  1.0000
  S   S345      1.0  0.82867  0.64522  0.70613  1.0000
  H   H1380     1.0  0.85307  0.51428  0.52289  1.0000
  H   H1381     1.0  0.80269  0.86162  0.72754  1.0000
  Fe  Fe175     1.0  0.80049  0.92745  0.66472  1.0000
  S   S346      1.0  0.75842  0.91837  0.65876  1.0000
  H   H1382     1.0  0.69793  0.63327  0.59594  1.0000
  Fe  Fe176     1.0  0.81121  0.84407  0.67272  1.0000
  S   S347      1.0  0.77051  0.82937  0.66749  1.0000
  S   S348      1.0  0.84414  0.80349  0.67985  1.0000
  Fe  Fe177     1.0  0.77070  0.86544  0.64924  1.0000
  S   S349      1.0  0.76451  0.84277  0.62835  1.0000
  Fe  Fe178     1.0  0.76152  0.88262  0.67752  1.0000
  S   S350      1.0  0.73928  0.87495  0.69499  1.0000
  S   S351      1.0  0.81233  0.87710  0.65406  1.0000
  S   S352      1.0  0.80276  0.89499  0.68387  1.0000
  S   S353      1.0  0.68067  0.77481  0.55443  1.0000
  H   H1383     1.0  0.79356  0.76111  0.64278  1.0000
  C   C860      1.0  0.70054  0.89071  0.70965  1.0000
  H   H1384     1.0  0.71082  0.87162  0.71690  1.0000
  C   C861      1.0  0.81168  0.76975  0.64844  1.0000
  C   C862      1.0  0.82284  0.80742  0.71379  1.0000
  H   H1385     1.0  0.70763  0.95094  0.54213  1.0000
  Fe  Fe179     1.0  0.88163  0.52404  0.71558  1.0000
  H   H1386     1.0  0.80393  0.96710  0.52762  1.0000
  N   N87       1.0  0.69441  0.69134  0.59030  1.0000
  H   H1387     1.0  0.87207  0.78597  0.64204  1.0000
  H   H1388     1.0  0.84362  0.71367  0.64357  1.0000
  C   C863      1.0  0.68880  0.90325  0.53361  1.0000
  C   C864      1.0  0.70119  0.93722  0.53309  1.0000
  C   C865      1.0  0.70525  0.95347  0.52093  1.0000
  C   C866      1.0  0.69684  0.93563  0.50929  1.0000
  C   C867      1.0  0.78991  0.85068  0.71916  1.0000
  H   H1389     1.0  0.77352  0.79058  0.73126  1.0000
  H   H1390     1.0  0.83665  0.81746  0.72191  1.0000
  H   H1391     1.0  0.80710  0.78896  0.62281  1.0000
  H   H1392     1.0  0.82090  0.82608  0.63215  1.0000
  C   C868      1.0  0.67481  0.61260  0.50901  1.0000
  C   C869      1.0  0.69016  0.60016  0.52051  1.0000
  H   H1393     1.0  0.67019  0.90222  0.72154  1.0000
  H   H1394     1.0  0.82835  0.77789  0.71213  1.0000
  H   H1395     1.0  0.82064  0.72320  0.62932  1.0000
  C   C870      1.0  0.68870  0.61860  0.53245  1.0000
  H   H1396     1.0  0.70271  0.57583  0.52029  1.0000
  H   H1397     1.0  0.69978  0.64315  0.57879  1.0000
  C   C871      1.0  0.70441  0.71673  0.58078  1.0000
  C   C872      1.0  0.73596  0.83274  0.61811  1.0000
  C   C873      1.0  0.71233  0.83136  0.62292  1.0000
  C   C874      1.0  0.69041  0.82184  0.61452  1.0000
  C   C875      1.0  0.69170  0.81412  0.60119  1.0000
  C   C876      1.0  0.71531  0.81562  0.59634  1.0000
  C   C877      1.0  0.73732  0.82463  0.60479  1.0000
  H   H1398     1.0  0.71095  0.83740  0.63313  1.0000
  H   H1399     1.0  0.77609  0.98763  0.51798  1.0000
  H   H1400     1.0  0.71664  0.80993  0.58611  1.0000
  H   H1401     1.0  0.75547  0.82574  0.60094  1.0000
  C   C878      1.0  0.71033  0.89797  0.69772  1.0000
  H   H1402     1.0  0.82736  0.57251  0.51508  1.0000
  H   H1403     1.0  0.86579  0.55454  0.50477  1.0000
  C   C879      1.0  0.70514  0.65332  0.58896  1.0000
  H   H1404     1.0  0.85355  0.73405  0.62891  1.0000
  C   C880      1.0  0.69687  0.92271  0.68841  1.0000
  N   N88       1.0  0.83257  0.77142  0.64009  1.0000
  S   S354      1.0  0.72122  0.99571  0.52057  1.0000
  H   H1405     1.0  0.70422  0.92847  0.67919  1.0000
  H   H1406     1.0  0.79171  0.86853  0.71031  1.0000
  C   C881      1.0  0.83377  0.68854  0.69854  1.0000
  C   C882      1.0  0.81261  0.70905  0.69202  1.0000
  C   C883      1.0  0.81557  0.74404  0.68608  1.0000
  C   C884      1.0  0.83977  0.75891  0.68666  1.0000
  C   C885      1.0  0.86100  0.73827  0.69303  1.0000
  C   C886      1.0  0.85803  0.70323  0.69898  1.0000
  H   H1407     1.0  0.79381  0.69772  0.69157  1.0000
  H   H1408     1.0  0.79913  0.75947  0.68110  1.0000
  H   H1409     1.0  0.87982  0.74956  0.69352  1.0000
  H   H1410     1.0  0.87447  0.68765  0.70396  1.0000
  C   C887      1.0  0.67751  0.90801  0.71230  1.0000
  C   C888      1.0  0.68457  0.90168  0.50981  1.0000
  S   S355      1.0  0.95210  0.60450  0.73589  1.0000
  H   H1411     1.0  0.72555  0.71801  0.58261  1.0000
  C   C889      1.0  0.68058  0.88534  0.52194  1.0000
  H   H1412     1.0  0.68578  0.89086  0.54300  1.0000
  H   H1413     1.0  0.86183  0.76591  0.65671  1.0000
  H   H1414     1.0  0.85246  0.81285  0.65176  1.0000
  C   C890      1.0  0.77871  0.79820  0.70563  1.0000
  H   H1415     1.0  0.78225  0.76818  0.70387  1.0000
  C   C891      1.0  0.66397  0.93265  0.70300  1.0000
  C   C892      1.0  0.67233  0.65010  0.53295  1.0000
  H   H1416     1.0  0.72275  0.70537  0.60619  1.0000
  H   H1417     1.0  0.80767  0.79741  0.65245  1.0000
  H   H1418     1.0  0.82552  0.82375  0.70470  1.0000
  S   S356      1.0  0.66509  0.84268  0.52189  1.0000
  H   H1419     1.0  0.69443  0.68585  0.61129  1.0000
  N   N89       1.0  0.79624  0.81120  0.71684  1.0000
  H   H1420     1.0  0.82770  0.00343  0.54517  1.0000
  C   C893      1.0  0.78732  0.98676  0.52792  1.0000
  H   H1421     1.0  0.69995  0.94784  0.49988  1.0000
  H   H1422     1.0  0.72635  0.65241  0.59086  1.0000
  S   S357      1.0  0.90072  0.52520  0.73649  1.0000
  Fe  Fe180     1.0  0.91165  0.58359  0.73157  1.0000
  H   H1423     1.0  0.79964  0.54469  0.51286  1.0000
  H   H1424     1.0  0.69358  0.73292  0.60503  1.0000
  H   H1425     1.0  0.94512  0.00856  0.70603  1.0000
  H   H1426     1.0  0.67225  0.82069  0.61839  1.0000
  H   H1427     1.0  0.84010  0.79935  0.62219  1.0000
  S   S358      1.0  0.82372  0.97778  0.66007  1.0000
  S   S359      1.0  0.74772  0.54810  0.49762  1.0000
  C   C894      1.0  0.70167  0.70429  0.60382  1.0000
  C   C895      1.0  0.85579  0.78454  0.64795  1.0000
  H   H1428     1.0  0.78093  0.81402  0.69640  1.0000
  H   H1429     1.0  0.70025  0.60831  0.54133  1.0000
  C   C896      1.0  0.67369  0.93992  0.69105  1.0000
  H   H1430     1.0  0.76981  0.85469  0.72128  1.0000
  C   C897      1.0  0.83784  0.73390  0.63524  1.0000
  H   H1431     1.0  0.67830  0.88791  0.50075  1.0000
  Fe  Fe181     1.0  0.70622  0.54805  0.48971  1.0000
  H   H1432     1.0  0.69641  0.74555  0.58141  1.0000
  S   S360      1.0  0.67441  0.58864  0.49399  1.0000
  N   N90       1.0  0.83156  0.52347  0.50375  1.0000
  H   H1433     1.0  0.75836  0.80216  0.70732  1.0000
  H   H1434     1.0  0.80772  0.57300  0.49940  1.0000
  H   H1435     1.0  0.77471  0.97479  0.53479  1.0000
  S   S361      1.0  0.66355  0.80065  0.59131  1.0000
  H   H1436     1.0  0.79812  0.75846  0.72726  1.0000
  H   H1437     1.0  0.68658  0.68710  0.73271  1.0000
  H   H1438     1.0  0.84660  0.55655  0.48895  1.0000
  C   C898      1.0  0.66628  0.69116  0.58756  1.0000
  C   C899      1.0  0.85335  0.53805  0.49769  1.0000
  H   H1439     1.0  0.66332  0.95897  0.68381  1.0000
  H   H1440     1.0  0.79875  0.01054  0.55257  1.0000
  H   H1441     1.0  0.86536  0.51507  0.49425  1.0000
  S   S362      1.0  0.67025  0.67162  0.54827  1.0000
  H   H1442     1.0  0.69937  0.70768  0.57047  1.0000
  H   H1443     1.0  0.80868  0.01022  0.68426  1.0000
  C   C900      1.0  0.66899  0.67718  0.73646  1.0000
  S   S363      1.0  0.76034  0.01317  0.49088  1.0000
  H   H1444     1.0  0.83790  0.83355  0.86341  1.0000
  H   H1445     1.0  0.71176  0.55260  0.82537  1.0000
  H   H1446     1.0  0.80655  0.64957  0.81969  1.0000
  Fe  Fe182     1.0  0.86193  0.73553  0.91032  1.0000
  S   S364      1.0  0.83059  0.77819  0.90317  1.0000
  S   S365      1.0  0.90218  0.73605  0.90393  1.0000
  Fe  Fe183     1.0  0.82307  0.68051  0.91877  1.0000
  S   S366      1.0  0.78957  0.71880  0.91172  1.0000
  S   S367      1.0  0.81910  0.62089  0.92574  1.0000
  Fe  Fe184     1.0  0.80929  0.73020  0.89390  1.0000
  S   S368      1.0  0.79010  0.73978  0.87274  1.0000
  Fe  Fe185     1.0  0.81342  0.76355  0.92162  1.0000
  S   S369      1.0  0.78900  0.80088  0.93333  1.0000
  S   S370      1.0  0.84103  0.68849  0.90016  1.0000
  S   S371      1.0  0.84633  0.72402  0.92965  1.0000
  Fe  Fe186     1.0  0.76693  0.98264  0.96957  1.0000
  S   S372      1.0  0.72455  0.97475  0.96704  1.0000
  S   S373      1.0  0.79801  0.96173  0.95771  1.0000
  C   C901      1.0  0.66960  0.96093  0.77894  1.0000
  Fe  Fe187     1.0  0.72802  0.62207  0.81248  1.0000
  S   S374      1.0  0.68594  0.62159  0.81387  1.0000
  S   S375      1.0  0.75897  0.61719  0.83009  1.0000
  Fe  Fe188     1.0  0.71989  0.61079  0.78289  1.0000
  C   C902      1.0  0.74485  0.84921  0.97198  1.0000
  S   S376      1.0  0.73767  0.61463  0.76395  1.0000
  Fe  Fe189     1.0  0.68113  0.65727  0.79531  1.0000
  C   C903      1.0  0.96520  0.63836  0.77391  1.0000
  Fe  Fe190     1.0  0.68539  0.57217  0.80068  1.0000
  H   H1447     1.0  0.80871  0.57157  0.79678  1.0000
  S   S377      1.0  0.72340  0.66210  0.79502  1.0000
  S   S378      1.0  0.72788  0.57082  0.80017  1.0000
  H   H1448     1.0  0.80635  0.58423  0.81354  1.0000
  C   C904      1.0  0.80079  0.65755  0.80912  1.0000
  H   H1449     1.0  0.77991  0.59338  0.80108  1.0000
  C   C905      1.0  0.80108  0.59317  0.80303  1.0000
  C   C906      1.0  0.81420  0.55526  0.75954  1.0000
  C   C907      1.0  0.80036  0.54447  0.76978  1.0000
  C   C908      1.0  0.77668  0.56217  0.77118  1.0000
  C   C909      1.0  0.76673  0.59063  0.76228  1.0000
  C   C910      1.0  0.78044  0.60103  0.75196  1.0000
  C   C911      1.0  0.80414  0.58353  0.75061  1.0000
  S   S379      1.0  0.66349  0.52420  0.80836  1.0000
  H   H1450     1.0  0.76606  0.55358  0.77905  1.0000
  H   H1451     1.0  0.84710  0.60797  0.79596  1.0000
  C   C912      1.0  0.78057  0.70478  0.86137  1.0000
  C   C913      1.0  0.78952  0.66777  0.86332  1.0000
  C   C914      1.0  0.78258  0.64130  0.85368  1.0000
  C   C915      1.0  0.76632  0.65135  0.84211  1.0000
  C   C916      1.0  0.75711  0.68823  0.84022  1.0000
  C   C917      1.0  0.76440  0.71483  0.84976  1.0000
  H   H1452     1.0  0.80204  0.65966  0.87218  1.0000
  H   H1453     1.0  0.78991  0.61289  0.85523  1.0000
  H   H1454     1.0  0.74459  0.69642  0.83138  1.0000
  H   H1455     1.0  0.75736  0.74338  0.84817  1.0000
  C   C918      1.0  0.79193  0.84761  0.93826  1.0000
  C   C919      1.0  0.76997  0.86698  0.94136  1.0000
  C   C920      1.0  0.77157  0.90204  0.94718  1.0000
  C   C921      1.0  0.79520  0.91850  0.94976  1.0000
  C   C922      1.0  0.81709  0.89987  0.94618  1.0000
  C   C923      1.0  0.81552  0.86444  0.94052  1.0000
  H   H1456     1.0  0.75160  0.85447  0.93937  1.0000
  H   H1457     1.0  0.75451  0.91639  0.94962  1.0000
  H   H1458     1.0  0.83544  0.91250  0.94804  1.0000
  H   H1459     1.0  0.83260  0.84977  0.93824  1.0000
  C   C924      1.0  0.78073  0.59402  0.96251  1.0000
  C   C925      1.0  0.79258  0.56577  0.95601  1.0000
  C   C926      1.0  0.80460  0.57447  0.94485  1.0000
  C   C927      1.0  0.80486  0.61141  0.94012  1.0000
  C   C928      1.0  0.79318  0.63969  0.94669  1.0000
  C   C929      1.0  0.78121  0.63100  0.95787  1.0000
  H   H1460     1.0  0.79278  0.53732  0.95969  1.0000
  H   H1461     1.0  0.81382  0.55254  0.93987  1.0000
  H   H1462     1.0  0.79330  0.66822  0.94311  1.0000
  H   H1463     1.0  0.77213  0.65300  0.96287  1.0000
  C   C930      1.0  0.95360  0.62275  0.76224  1.0000
  H   H1464     1.0  0.95501  0.82543  0.93012  1.0000
  H   H1465     1.0  0.85851  0.99222  0.96962  1.0000
  H   H1466     1.0  0.95656  0.63530  0.78291  1.0000
  H   H1467     1.0  0.77034  0.78441  0.96952  1.0000
  C   C931      1.0  0.97805  0.75329  0.91367  1.0000
  C   C932      1.0  0.95458  0.73823  0.90867  1.0000
  C   C933      1.0  0.93119  0.75398  0.91158  1.0000
  C   C934      1.0  0.93155  0.78519  0.91951  1.0000
  C   C935      1.0  0.95499  0.80084  0.92421  1.0000
  H   H1468     1.0  0.80770  0.68588  0.80739  1.0000
  H   H1469     1.0  0.95452  0.71400  0.90259  1.0000
  H   H1470     1.0  0.91377  0.79785  0.92176  1.0000
  N   N91       1.0  0.86136  0.78364  0.86802  1.0000
  C   C936      1.0  0.85801  0.74443  0.87184  1.0000
  C   C937      1.0  0.87255  0.78504  0.85548  1.0000
  C   C938      1.0  0.87863  0.80110  0.87842  1.0000
  C   C939      1.0  0.83625  0.80385  0.86633  1.0000
  H   H1471     1.0  0.84918  0.74260  0.88110  1.0000
  H   H1472     1.0  0.87656  0.72837  0.87365  1.0000
  H   H1473     1.0  0.84512  0.73014  0.86427  1.0000
  H   H1474     1.0  0.87544  0.81424  0.85231  1.0000
  H   H1475     1.0  0.89140  0.76974  0.85642  1.0000
  H   H1476     1.0  0.85989  0.77215  0.84745  1.0000
  H   H1477     1.0  0.87095  0.80003  0.88807  1.0000
  H   H1478     1.0  0.88149  0.83082  0.87598  1.0000
  H   H1479     1.0  0.89769  0.78634  0.88003  1.0000
  H   H1480     1.0  0.82720  0.80322  0.87560  1.0000
  H   H1481     1.0  0.82259  0.79095  0.85873  1.0000
  H   H1482     1.0  0.77282  0.62293  0.74500  1.0000
  N   N92       1.0  0.81080  0.63021  0.80027  1.0000
  H   H1483     1.0  0.78109  0.64223  0.78420  1.0000
  H   H1484     1.0  0.79349  0.84065  0.96615  1.0000
  H   H1485     1.0  0.77953  0.65941  0.80767  1.0000
  H   H1486     1.0  0.96736  0.77588  0.86975  1.0000
  C   C940      1.0  0.80231  0.64157  0.78640  1.0000
  H   H1487     1.0  0.69545  0.93395  0.80153  1.0000
  C   C941      1.0  0.68671  0.68719  0.75889  1.0000
  H   H1488     1.0  0.81463  0.59199  0.74265  1.0000
  H   H1489     1.0  0.81000  0.62195  0.77945  1.0000
  C   C942      1.0  0.83902  0.62839  0.80253  1.0000
  H   H1490     1.0  0.69710  0.80904  0.77707  1.0000
  C   C943      1.0  0.71690  0.53212  0.83361  1.0000
  H   H1491     1.0  0.66930  0.51847  0.83833  1.0000
  H   H1492     1.0  0.80882  0.66972  0.78401  1.0000
  H   H1493     1.0  0.67872  0.74802  0.74294  1.0000
  C   C944      1.0  0.96485  0.62593  0.75059  1.0000
  H   H1494     1.0  0.72682  0.83985  0.97540  1.0000
  H   H1495     1.0  0.84610  0.61969  0.81289  1.0000
  H   H1496     1.0  0.84706  0.65585  0.80053  1.0000
  H   H1497     1.0  0.79004  0.88050  0.97611  1.0000
  C   C945      1.0  0.73615  0.56844  0.92786  1.0000
  H   H1498     1.0  0.70461  0.69836  0.75592  1.0000
  H   H1499     1.0  0.74392  0.88021  0.97179  1.0000
  S   S380      1.0  0.84407  0.53328  0.75816  1.0000
  N   N93       1.0  0.70490  0.54298  0.84534  1.0000
  H   H1500     1.0  0.75140  0.78074  0.98293  1.0000
  H   H1501     1.0  0.69008  0.65669  0.76058  1.0000
  H   H1502     1.0  0.70424  0.57078  0.94620  1.0000
  C   C946      1.0  0.67856  0.79733  0.77733  1.0000
  H   H1503     1.0  0.93618  0.60779  0.76229  1.0000
  H   H1504     1.0  0.73488  0.55342  0.95383  1.0000
  N   N94       1.0  0.72500  0.53613  0.93394  1.0000
  H   H1505     1.0  0.69390  0.74682  0.78769  1.0000
  C   C947      1.0  0.97837  0.78511  0.92131  1.0000
  S   S381      1.0  0.71110  0.51982  0.98027  1.0000
  H   H1506     1.0  0.68368  0.69914  0.76853  1.0000
  H   H1507     1.0  0.70864  0.52298  0.95159  1.0000
  H   H1508     1.0  0.67097  0.56651  0.83392  1.0000
  H   H1509     1.0  0.73811  0.53066  0.83567  1.0000
  H   H1510     1.0  0.70942  0.60150  0.84190  1.0000
  C   C948      1.0  0.67595  0.92340  0.79898  1.0000
  C   C949      1.0  0.67681  0.76204  0.78332  1.0000
  C   C950      1.0  0.71413  0.57955  0.84976  1.0000
  H   H1511     1.0  0.72220  0.59248  0.92621  1.0000
  S   S382      1.0  0.76484  0.58408  0.97631  1.0000
  C   C951      1.0  0.70199  0.52502  0.92542  1.0000
  H   H1512     1.0  0.75303  0.57818  0.93429  1.0000
  Fe  Fe191     1.0  0.86408  0.55333  0.74107  1.0000
  H   H1513     1.0  0.70547  0.58881  0.85858  1.0000
  S   S383      1.0  0.67723  0.60793  0.78222  1.0000
  Fe  Fe192     1.0  0.75330  0.52523  0.98047  1.0000
  C   C952      1.0  0.98153  0.78805  0.87725  1.0000
  H   H1514     1.0  0.67769  0.99446  0.97720  1.0000
  H   H1515     1.0  0.80797  0.52233  0.77663  1.0000
  H   H1516     1.0  0.70659  0.51712  0.91551  1.0000
  H   H1517     1.0  0.74494  0.84010  0.96168  1.0000
  C   C953      1.0  0.76880  0.79316  0.97981  1.0000
  H   H1518     1.0  0.97525  0.78262  0.88711  1.0000
  C   C954      1.0  0.71787  0.54634  0.94695  1.0000
  H   H1519     1.0  0.68879  0.97284  0.78097  1.0000
  H   H1520     1.0  0.98071  0.81878  0.87556  1.0000
  H   H1521     1.0  0.67538  0.99802  0.80153  1.0000
  H   H1522     1.0  0.74265  0.56151  0.91824  1.0000
  H   H1523     1.0  0.80829  0.83987  0.98286  1.0000
  C   C955      1.0  0.67683  0.54544  0.84195  1.0000
  H   H1524     1.0  0.73528  0.57881  0.85229  1.0000
  N   N95       1.0  0.76754  0.83416  0.98061  1.0000
  H   H1525     1.0  0.67782  0.89747  0.79331  1.0000
  H   H1526     1.0  0.66702  0.55332  0.85056  1.0000
  H   H1527     1.0  0.66846  0.91549  0.80832  1.0000
  C   C956      1.0  0.79086  0.84949  0.97628  1.0000
  S   S384      1.0  0.87643  0.61166  0.73786  1.0000
  H   H1528     1.0  0.67157  0.93597  0.77285  1.0000
  H   H1529     1.0  0.68710  0.54790  0.92412  1.0000
  H   H1530     1.0  0.99454  0.71786  0.87135  1.0000
  C   C957      1.0  0.86842  0.00654  0.97826  1.0000
  C   C958      1.0  0.98794  0.65766  0.77402  1.0000
  C   C959      1.0  0.98754  0.64537  0.75070  1.0000
  H   H1531     1.0  0.70303  0.52195  0.86502  1.0000
  H   H1532     1.0  0.82926  0.96627  0.98430  1.0000
  H   H1533     1.0  0.88452  0.98781  0.98273  1.0000
  H   H1534     1.0  0.67148  0.64642  0.73797  1.0000
  C   C960      1.0  0.71177  0.51470  0.85600  1.0000
  N   N96       1.0  0.66459  0.69550  0.74882  1.0000
  H   H1535     1.0  0.80640  0.79746  0.73740  1.0000
  H   H1536     1.0  0.78571  0.78078  0.98619  1.0000
