data_image0
_chemical_formula_structural       Fe2HCHFeSHFeS2FeSFeS5H3C2H2C3SHC2H2C6H5CHC4H6C2HCH2SH3CFeH3CH2SH5CSC2NH2CH2CH2NFeHCH3SH2SH2SHCNC3H3C2NCH2C4H3CH4SCH2NH3CSCSHSCH2SH7CHCNC4SC2H2FeH2C2NSC2HCHSH5FeH6SHCNCHCHSHCHFeHC5HCHSH2CH2CH2SCH2SHNH4FeCFeCS2HNHSNSFeHFeSFeSH2FeSCH2C3H5C4H3C3H2FeCH3C6H9S2CHCH4SH3CHS2HCH2CHSH2CSH5C2FeH2CSCNC5H2CH4C3HCHSHC3SH4CH2FeCH2C2NHCHNC2H4CHCH4NH5FeHCH3SFeS2FeSFeHS2FeS2FeHFeS3HS2FeS2HFeSFeCS2HC6H4C6H7FeHSC4HCHC6H4C2FeH3CH5C3HCH3CSC2H4NC3H2CSCH2FeCSH3SCH5FeC3H3NSFeCNH3CH3C3H2CH2NH5CSHCHSH2CHCH6FeSHS2HSH4SHSFeS2HCNFeSHSC6H4C6H8C6H4C4HCH3CHCHCHCH6CHSN2H2C2HCH2CH2CH2FeCH3SH3NHCHNCHCHSCHSH5Fe2HCHSH3CH2CH2CNFeC2HSCHCSCSHS2H2SHFeSFeSCHSHNHC6H5C3SH2CFeH6C7H3C7NH2CHNC4HCH5FeH3C2H4CH3C2H7NFeH2FeH4CHSH3SCH7CH2CH5FeHSHSH3C2SNSH3SHFeSH3FeHSFeS2FeSCS2FeS2FeSHFeS3C6H4C6H7CSC2H3C6HCH2NSC2HCHSC5NCHSH3SHSHFe2CHC2HFeHC2H2CSH2CNC4H7CHC2H2CH5SH4NCH3FeH3CHCH2CH2C2HCH3FeHCH2CH2SH4CNHSC5SHCSNSH3FeS2FeS2FeSFeS3H3C3HCH3C4SCH4C5H8C7H5NC4H12CFeHCFeNSFeH4FeCFeNC2H2S2H3CH2CH2CH2CSHCH4SH9CSFeSHSHFe2SCH2SH2SHC3SFeH2C2HC3H3C6H4S2H3CNHCSCHNCH7SHCH2C2HCHCH2CHFe2CH5CH3CHCHC2FeSCFeHSCSHCFeSCFeSFeCHCHC7H3CHC4H2FeH4SH3CHNH4NH2C2HCSH6SH4SH4SCSH2FeC2H2CH3CSC2SNCH2SFeS2FeS2FeSFeS3HSHSCFeHSHFeSHSHCHC7FeNH2C2HC3HCH4C7H4C4H5CFeHC2HSHSH2C2HSH2NC4H13NFeH6CSH4C3SH2CH3NHCH2CH6CHFeS2FeS2FeSFeS3HSFeS2FeSFeSFeHS2FeHSHCSHNC2HCH3CH3C6H4C6H4C6H4FeHCH2CHC2HC5H3C2HNHCHFeH2CHCH4CH4CH2CH5C3H2CH3NHC2NC4H12SHC4SHSH3CH4SN2H6CH3CSHCFeSH3CH4CFeS2Fe2H2SCH3C6H4C2HCH5SCH5C4H2CHCHC2HNCSH3FeS2HFeCS2NHCH4FeH3SH2FeSNCSFeSFeSCHNHS2CHC4H3SCH2C6H3SCHCFeHSCFeSH2CSH2CSFeH2CH4C2H2CH4CH7CHCSC2FeH2FeS2FeSCS2HSHCFeS2FeS2FeSFeS3FeSC6H4CHCH3CHC6H4C6H4C3NC3HC4HC2SHCH2S2H2CHCHCH2SH2C2HNH2C2HSNHNSH2FeHFe2HCHCH5C2H4C2H7SHCHSH4CFeH15NHSC2H3CS2FeSNHSCFeS2FeSHFeS2FeSFeS3C2HC4H3CFe2HC7H4SC6H4C6H4C6H4SH2CHSH2N2C4H13FeHSH3CH5Fe2CH2NCH4SH2C3SH5CHCHFeSHCSH7FeCHC2SH6C2H2CH4SHNC2H3FeS2H3FeSHSFeS2H2FeSHS3HCHCFeSHSH3SFeSC6H5NHCH4C2HC6H3SC6H4CH4NH2CNHC3H3CH2CH2CH2C3H2NH2SNC4H3CH2FeH2SHCH2FeSNHFeCHC3H3CSC4FeSHCSH2SHFeSFeSHNSHCFeCSFeH2SHFeHSCHS2C6H3C6H9C6H4CH2CHNH2CSNH4CHCS2CHC4H2CHCH3SH4CH3FeH3FeH7NC4H2FeH3SHSHC3H2NH4NHCHS2HCH5FeS3FeS2FeS2FeHFeS3HS2FeSH2SCSCHC6H3C6FeH3C6HFeH9SC6HCHC6H5SH2C2HNH2SHFeSHFeC2HNC4H13C3Fe2SHCSNH2CHCH10SH2CH2CHSCH2CH3SNFeCSC3HFeSHCHSC3H3C3S2H2SHC3H2CH3NC4H13CSCH2FeC2FeSHCHCHCHSHSH6CSC3H4FeHCHFeCHC2HC2HS2CHSFeS2H2CSFeS2FeHCH3C3HCHCHC2HCHCSC2H4CNHCHNCHCH3CHNH3FeH4SCHCH12SCHFeSHCHFeSH4CHSH2CHCHCHC2HSC2HNC4H6C2HSC2FeH2FeC2S2HSH4FeHCHNH2C2NHCH4CH4CHSH2NHS2HCHCSH2C6H3C7H5CH2SH4CSHCH4C3FeH2CH2C2H2Fe2H6C2HCH2CHCSHCHSFeHC3NCHCH4C2SHNH2NH2SFeH3NSH4FeCHSH2CHCH2CHCH2
_chemical_formula_sum              "Fe192 H1536 C960 S384 N96"
_cell_length_a       54.2468
_cell_length_b       100.879
_cell_length_c       34.8956
_cell_angle_alpha    90.5603
_cell_angle_beta     89.9643
_cell_angle_gamma    89.2074

_space_group_name_H-M_alt    "P 1"
_space_group_IT_number       1

loop_
  _space_group_symop_operation_xyz
  'x, y, z'

loop_
  _atom_site_type_symbol
  _atom_site_label
  _atom_site_symmetry_multiplicity
  _atom_site_fract_x
  _atom_site_fract_y
  _atom_site_fract_z
  _atom_site_occupancy
  Fe  Fe1       1.0  0.31671  0.04618  0.02009  1.0000
  Fe  Fe2       1.0  0.03966  0.17606  0.03587  1.0000
  H   H1        1.0  0.26469  0.19142  0.19937  1.0000
  C   C1        1.0  0.32166  0.09973  0.11220  1.0000
  H   H2        1.0  0.21514  0.19482  0.12644  1.0000
  Fe  Fe3       1.0  0.27390  0.17947  0.07610  1.0000
  S   S1        1.0  0.29858  0.18327  0.12713  1.0000
  H   H3        1.0  0.31778  0.07440  0.13447  1.0000
  Fe  Fe4       1.0  0.22056  0.17582  0.05085  1.0000
  S   S2        1.0  0.18370  0.17726  0.08228  1.0000
  S   S3        1.0  0.24846  0.16211  0.07820  1.0000
  Fe  Fe5       1.0  0.28494  0.06462  0.07112  1.0000
  S   S4        1.0  0.26476  0.08398  0.08487  1.0000
  Fe  Fe6       1.0  0.28301  0.03466  0.08116  1.0000
  S   S5        1.0  0.32362  0.03231  0.06904  1.0000
  S   S6        1.0  0.26334  0.01515  0.09048  1.0000
  S   S7        1.0  0.32704  0.23984  0.19345  1.0000
  S   S8        1.0  0.28871  0.05146  0.12284  1.0000
  S   S9        1.0  0.28953  0.17365  0.01875  1.0000
  H   H4        1.0  0.28949  0.09030  0.01275  1.0000
  H   H5        1.0  0.19812  0.20081  0.20746  1.0000
  H   H6        1.0  0.06423  0.13695  0.09284  1.0000
  C   C2        1.0  0.03889  0.03100  0.19078  1.0000
  C   C3        1.0  0.04923  0.01876  0.20193  1.0000
  H   H7        1.0  0.05086  0.03891  0.18209  1.0000
  H   H8        1.0  0.06903  0.01729  0.20177  1.0000
  C   C4        1.0  0.23461  0.01458  0.11447  1.0000
  C   C5        1.0  0.19976  0.02533  0.14636  1.0000
  C   C6        1.0  0.22275  0.02611  0.12786  1.0000
  S   S10       1.0  0.01159  0.16251  0.00925  1.0000
  H   H9        1.0  0.23120  0.03564  0.12368  1.0000
  C   C7        1.0  0.26760  0.09878  0.05849  1.0000
  C   C8        1.0  0.28088  0.09924  0.02417  1.0000
  H   H10       1.0  0.33887  0.04332  0.44829  1.0000
  H   H11       1.0  0.27368  0.01852  0.01174  1.0000
  C   C9        1.0  0.01322  0.03303  0.19090  1.0000
  C   C10       1.0  0.07272  0.12921  0.07378  1.0000
  C   C11       1.0  0.10637  0.17739  0.02735  1.0000
  C   C12       1.0  0.10922  0.17864  0.06706  1.0000
  C   C13       1.0  0.13300  0.17860  0.08337  1.0000
  C   C14       1.0  0.15419  0.17739  0.06022  1.0000
  H   H12       1.0  0.30276  0.10339  0.11960  1.0000
  H   H13       1.0  0.08657  0.12358  0.09083  1.0000
  H   H14       1.0  0.09310  0.17962  0.08520  1.0000
  H   H15       1.0  0.22210  0.01468  0.31364  1.0000
  H   H16       1.0  0.24456  0.18629  0.23720  1.0000
  C   C15       1.0  0.31929  0.22406  0.17545  1.0000
  H   H17       1.0  0.11240  0.14906  0.02636  1.0000
  C   C16       1.0  0.32547  0.20020  0.17160  1.0000
  C   C17       1.0  0.30634  0.19913  0.14473  1.0000
  C   C18       1.0  0.29361  0.21058  0.13330  1.0000
  C   C19       1.0  0.29994  0.22298  0.14891  1.0000
  H   H18       1.0  0.24993  0.17314  0.15879  1.0000
  H   H19       1.0  0.28874  0.21498  0.04277  1.0000
  H   H20       1.0  0.27883  0.20992  0.11270  1.0000
  H   H21       1.0  0.19063  0.03433  0.15631  1.0000
  H   H22       1.0  0.22914  0.16792  0.19554  1.0000
  H   H23       1.0  0.30218  0.23372  0.00301  1.0000
  C   C20       1.0  0.25853  0.12251  0.05325  1.0000
  C   C21       1.0  0.31892  0.08195  0.15765  1.0000
  H   H24       1.0  0.13498  0.17957  0.11410  1.0000
  C   C22       1.0  0.03391  0.00858  0.21400  1.0000
  H   H25       1.0  0.24623  0.11019  0.09950  1.0000
  H   H26       1.0  0.16334  0.01630  0.25899  1.0000
  S   S11       1.0  0.01216  0.19290  0.04213  1.0000
  H   H27       1.0  0.31703  0.10661  0.18652  1.0000
  H   H28       1.0  0.31961  0.09265  0.08775  1.0000
  H   H29       1.0  0.09693  0.15209  0.07098  1.0000
  C   C23       1.0  0.25653  0.11047  0.07297  1.0000
  Fe  Fe7       1.0  0.26136  0.15748  0.01853  1.0000
  H   H30       1.0  0.24972  0.13140  0.06454  1.0000
  H   H31       1.0  0.29965  0.08498  0.16494  1.0000
  H   H32       1.0  0.24326  0.20309  0.22033  1.0000
  C   C24       1.0  0.06494  0.14286  0.01873  1.0000
  H   H33       1.0  0.11894  0.13869  0.06679  1.0000
  H   H34       1.0  0.04606  0.08961  0.20105  1.0000
  S   S12       1.0  0.27568  0.04782  0.03038  1.0000
  H   H35       1.0  0.18757  0.18748  0.17740  1.0000
  H   H36       1.0  0.28990  0.23181  0.14034  1.0000
  H   H37       1.0  0.18406  0.02552  0.28884  1.0000
  H   H38       1.0  0.21761  0.17159  0.14848  1.0000
  H   H39       1.0  0.19946  0.18403  0.22442  1.0000
  C   C25       1.0  0.18840  0.01305  0.15162  1.0000
  S   S13       1.0  0.24561  0.19347  0.05229  1.0000
  C   C26       1.0  0.02957  0.09632  0.20176  1.0000
  C   C27       1.0  0.22040  0.00717  0.29026  1.0000
  N   N1        1.0  0.32630  0.21890  0.02727  1.0000
  H   H40       1.0  0.32653  0.04661  0.20398  1.0000
  H   H41       1.0  0.02933  0.10154  0.23001  1.0000
  C   C28       1.0  0.33503  0.02386  0.39444  1.0000
  H   H42       1.0  0.03206  0.10394  0.17923  1.0000
  H   H43       1.0  0.05764  0.15114  0.03681  1.0000
  C   C29       1.0  0.15134  0.17620  0.02051  1.0000
  H   H44       1.0  0.33414  0.01328  0.38526  1.0000
  H   H45       1.0  0.24766  0.19592  0.13508  1.0000
  N   N2        1.0  0.08394  0.13517  0.03953  1.0000
  Fe  Fe8       1.0  0.32867  0.05026  0.10654  1.0000
  H   H46       1.0  0.02333  0.07469  0.15634  1.0000
  C   C30       1.0  0.33559  0.10296  0.17733  1.0000
  H   H47       1.0  0.10835  0.11857  0.02898  1.0000
  H   H48       1.0  0.01969  0.07154  0.22552  1.0000
  H   H49       1.0  0.19249  0.02119  0.24032  1.0000
  S   S14       1.0  0.32517  0.06410  0.05665  1.0000
  H   H50       1.0  0.22689  0.20793  0.15616  1.0000
  H   H51       1.0  0.33737  0.02990  0.36805  1.0000
  S   S15       1.0  0.15956  0.01270  0.17530  1.0000
  H   H52       1.0  0.05768  0.12231  0.06572  1.0000
  H   H53       1.0  0.31696  0.02671  0.40742  1.0000
  S   S16       1.0  0.03393  0.16860  0.09545  1.0000
  H   H54       1.0  0.33061  0.04537  0.27489  1.0000
  C   C31       1.0  0.20193  0.19033  0.19875  1.0000
  N   N3        1.0  0.22695  0.18871  0.18243  1.0000
  C   C32       1.0  0.22924  0.19725  0.14854  1.0000
  C   C33       1.0  0.24563  0.19254  0.21118  1.0000
  C   C34       1.0  0.23107  0.17472  0.17085  1.0000
  H   H55       1.0  0.18101  0.00772  0.33784  1.0000
  H   H56       1.0  0.32913  0.00997  0.01261  1.0000
  H   H57       1.0  0.31449  0.23241  0.07200  1.0000
  C   C35       1.0  0.18313  0.01758  0.26662  1.0000
  C   C36       1.0  0.27143  0.12294  0.01859  1.0000
  N   N4        1.0  0.19433  0.00501  0.28006  1.0000
  C   C37       1.0  0.28263  0.11126  0.00419  1.0000
  H   H58       1.0  0.31068  0.20242  0.05710  1.0000
  H   H59       1.0  0.33532  0.19138  0.18073  1.0000
  C   C38       1.0  0.33207  0.21263  0.18672  1.0000
  C   C39       1.0  0.10397  0.14410  0.05147  1.0000
  C   C40       1.0  0.12756  0.17621  0.00421  1.0000
  C   C41       1.0  0.33110  0.22661  0.06269  1.0000
  H   H60       1.0  0.01039  0.08923  0.13410  1.0000
  H   H61       1.0  0.30157  0.20381  0.00786  1.0000
  H   H62       1.0  0.33640  0.22002  0.08688  1.0000
  C   C42       1.0  0.30596  0.20962  0.03413  1.0000
  H   H63       1.0  0.33232  0.10831  0.10171  1.0000
  H   H64       1.0  0.32724  0.07691  0.18289  1.0000
  H   H65       1.0  0.04896  0.13663  0.01049  1.0000
  H   H66       1.0  0.23105  0.01076  0.26516  1.0000
  S   S17       1.0  0.07690  0.17655  0.00543  1.0000
  C   C43       1.0  0.09401  0.12462  0.01413  1.0000
  H   H67       1.0  0.30527  0.00427  0.04389  1.0000
  H   H68       1.0  0.33464  0.02064  0.47145  1.0000
  N   N5        1.0  0.33373  0.09333  0.14533  1.0000
  H   H69       1.0  0.07926  0.11781  0.00432  1.0000
  H   H70       1.0  0.16745  0.17529  0.00234  1.0000
  H   H71       1.0  0.32412  0.00894  0.94325  1.0000
  C   C44       1.0  0.31956  0.02335  0.84777  1.0000
  S   S18       1.0  0.27350  0.13781  0.99222  1.0000
  C   C45       1.0  0.30639  0.03413  0.90790  1.0000
  S   S19       1.0  0.26460  0.20078  0.94623  1.0000
  H   H72       1.0  0.27693  0.21831  0.88519  1.0000
  S   S20       1.0  0.23155  0.16985  0.99076  1.0000
  C   C46       1.0  0.27643  0.17519  0.85977  1.0000
  H   H73       1.0  0.29100  0.15551  0.93523  1.0000
  H   H74       1.0  0.24116  0.16680  0.90647  1.0000
  S   S21       1.0  0.31947  0.24523  0.70299  1.0000
  H   H75       1.0  0.12556  0.17527  0.97346  1.0000
  H   H76       1.0  0.28124  0.17257  0.93570  1.0000
  H   H77       1.0  0.29176  0.03812  0.92581  1.0000
  H   H78       1.0  0.30848  0.15474  0.85205  1.0000
  H   H79       1.0  0.26676  0.18331  0.87592  1.0000
  H   H80       1.0  0.30965  0.16773  0.91258  1.0000
  H   H81       1.0  0.33415  0.23524  0.99012  1.0000
  C   C47       1.0  0.33090  0.03498  0.92001  1.0000
  H   H82       1.0  0.24056  0.15673  0.86382  1.0000
  C   C48       1.0  0.25120  0.15880  0.89041  1.0000
  N   N6        1.0  0.27675  0.16270  0.88168  1.0000
  C   C49       1.0  0.29030  0.16472  0.91789  1.0000
  C   C50       1.0  0.29261  0.20317  0.92137  1.0000
  C   C51       1.0  0.31399  0.19592  0.93008  1.0000
  C   C52       1.0  0.31934  0.22801  0.99600  1.0000
  S   S22       1.0  0.33911  0.04142  0.96587  1.0000
  C   C53       1.0  0.31531  0.21481  0.87165  1.0000
  C   C54       1.0  0.29338  0.21263  0.89213  1.0000
  H   H83       1.0  0.31382  0.18872  0.95278  1.0000
  H   H84       1.0  0.31567  0.22210  0.84911  1.0000
  Fe  Fe9       1.0  0.25919  0.18630  0.99470  1.0000
  H   H85       1.0  0.31585  0.22251  0.96874  1.0000
  H   H86       1.0  0.28176  0.02757  0.86315  1.0000
  C   C55       1.0  0.30078  0.02823  0.87218  1.0000
  C   C56       1.0  0.33662  0.20746  0.88009  1.0000
  N   N7        1.0  0.29624  0.00363  0.98391  1.0000
  S   S23       1.0  0.31120  0.01556  0.80382  1.0000
  C   C57       1.0  0.33583  0.19799  0.90933  1.0000
  C   C58       1.0  0.28912  0.15210  0.85898  1.0000
  H   H87       1.0  0.28133  0.25237  0.65032  1.0000
  C   C59       1.0  0.28454  0.01693  0.98502  1.0000
  H   H88       1.0  0.28972  0.14258  0.87499  1.0000
  S   S24       1.0  0.31330  0.00712  0.69663  1.0000
  H   H89       1.0  0.25084  0.14973  0.90849  1.0000
  H   H90       1.0  0.29545  0.17869  0.85381  1.0000
  H   H91       1.0  0.29262  0.11150  0.97737  1.0000
  H   H92       1.0  0.26679  0.17401  0.83184  1.0000
  H   H93       1.0  0.29860  0.02482  0.98408  1.0000
  Fe  Fe10      1.0  0.33461  0.00907  0.75206  1.0000
  H   H94       1.0  0.27938  0.15025  0.83142  1.0000
  H   H95       1.0  0.10267  0.12888  0.98813  1.0000
  H   H96       1.0  0.07248  0.14740  0.99229  1.0000
  H   H97       1.0  0.27180  0.01845  0.96044  1.0000
  H   H98       1.0  0.29630  0.00295  0.92212  1.0000
  H   H99       1.0  0.33387  0.26853  0.49229  1.0000
  S   S25       1.0  0.33440  0.48122  0.20730  1.0000
  H   H100      1.0  0.17209  0.35710  0.45319  1.0000
  C   C60       1.0  0.33200  0.46964  0.38804  1.0000
  N   N8        1.0  0.28093  0.49758  0.28004  1.0000
  C   C61       1.0  0.32988  0.45984  0.41642  1.0000
  H   H101      1.0  0.24401  0.49826  0.30238  1.0000
  C   C62       1.0  0.27276  0.49893  0.23982  1.0000
  H   H102      1.0  0.29904  0.47873  0.27039  1.0000
  S   S26       1.0  0.27386  0.27727  0.45235  1.0000
  H   H103      1.0  0.32068  0.46213  0.44324  1.0000
  C   C63       1.0  0.28465  0.48340  0.28904  1.0000
  H   H104      1.0  0.18146  0.33551  0.42168  1.0000
  Fe  Fe11      1.0  0.26173  0.29326  0.49521  1.0000
  H   H105      1.0  0.14083  0.33911  0.45430  1.0000
  C   C64       1.0  0.32455  0.26575  0.37266  1.0000
  C   C65       1.0  0.30312  0.26685  0.39531  1.0000
  C   C66       1.0  0.30070  0.27683  0.42351  1.0000
  C   C67       1.0  0.32000  0.28569  0.42907  1.0000
  C   C68       1.0  0.14953  0.33554  0.48122  1.0000
  H   H106      1.0  0.14636  0.32466  0.48298  1.0000
  C   C69       1.0  0.33961  0.44710  0.40993  1.0000
  H   H107      1.0  0.31819  0.29353  0.45024  1.0000
  S   S27       1.0  0.25197  0.34326  0.49278  1.0000
  H   H108      1.0  0.26744  0.47768  0.28513  1.0000
  H   H109      1.0  0.28819  0.26001  0.39068  1.0000
  C   C70       1.0  0.18866  0.33188  0.44955  1.0000
  H   H110      1.0  0.19985  0.35539  0.48086  1.0000
  H   H111      1.0  0.25835  0.37050  0.47201  1.0000
  C   C71       1.0  0.34172  0.28437  0.40707  1.0000
  H   H112      1.0  0.32441  0.47945  0.39343  1.0000
  H   H113      1.0  0.29100  0.48203  0.31914  1.0000
  S   S28       1.0  0.33832  0.43443  0.44510  1.0000
  C   C72       1.0  0.17982  0.35297  0.48014  1.0000
  H   H114      1.0  0.18610  0.32094  0.45012  1.0000
  H   H115      1.0  0.20890  0.33369  0.44998  1.0000
  S   S29       1.0  0.23074  0.30742  0.48222  1.0000
  H   H116      1.0  0.26756  0.50247  0.33643  1.0000
  N   N9        1.0  0.17615  0.33850  0.48231  1.0000
  H   H117      1.0  0.31910  0.50054  0.26667  1.0000
  H   H118      1.0  0.28693  0.49501  0.21943  1.0000
  H   H119      1.0  0.25540  0.49350  0.23425  1.0000
  H   H120      1.0  0.32599  0.25813  0.35072  1.0000
  Fe  Fe12      1.0  0.30063  0.41373  0.56344  1.0000
  C   C73       1.0  0.27482  0.38042  0.52057  1.0000
  Fe  Fe13      1.0  0.27994  0.44191  0.56237  1.0000
  C   C74       1.0  0.30448  0.27439  0.55151  1.0000
  S   S30       1.0  0.24341  0.45313  0.56522  1.0000
  S   S31       1.0  0.29619  0.42944  0.60946  1.0000
  H   H121      1.0  0.07465  0.28635  0.69755  1.0000
  N   N10       1.0  0.04330  0.42723  0.63287  1.0000
  H   H122      1.0  0.07260  0.48365  0.89430  1.0000
  S   S32       1.0  0.08725  0.46956  0.72108  1.0000
  N   N11       1.0  0.07193  0.48421  0.83270  1.0000
  S   S33       1.0  0.14118  0.48789  0.76017  1.0000
  Fe  Fe14      1.0  0.16622  0.49421  0.71318  1.0000
  H   H123      1.0  0.16077  0.31840  0.58058  1.0000
  Fe  Fe15      1.0  0.03232  0.31728  0.55937  1.0000
  S   S34       1.0  0.07139  0.32497  0.56730  1.0000
  Fe  Fe16      1.0  0.21363  0.30130  0.53777  1.0000
  S   S35       1.0  0.23245  0.31719  0.57251  1.0000
  H   H124      1.0  0.21286  0.49157  0.58643  1.0000
  H   H125      1.0  0.20892  0.49936  0.54085  1.0000
  Fe  Fe17      1.0  0.26373  0.30231  0.57862  1.0000
  S   S36       1.0  0.28692  0.30064  0.63260  1.0000
  C   C75       1.0  0.14537  0.30356  0.54334  1.0000
  H   H126      1.0  0.33322  0.29506  0.56704  1.0000
  H   H127      1.0  0.08425  0.28288  0.57633  1.0000
  C   C76       1.0  0.09954  0.31651  0.55743  1.0000
  C   C77       1.0  0.12143  0.32134  0.57362  1.0000
  C   C78       1.0  0.14421  0.31485  0.56690  1.0000
  H   H128      1.0  0.17714  0.33792  0.54392  1.0000
  H   H129      1.0  0.33133  0.44020  0.68486  1.0000
  H   H130      1.0  0.12070  0.33005  0.59198  1.0000
  H   H131      1.0  0.03925  0.43107  0.69328  1.0000
  H   H132      1.0  0.03415  0.40787  0.61113  1.0000
  C   C79       1.0  0.28261  0.27359  0.64348  1.0000
  C   C80       1.0  0.29430  0.28532  0.65433  1.0000
  C   C81       1.0  0.31334  0.28478  0.68159  1.0000
  C   C82       1.0  0.32115  0.27258  0.69706  1.0000
  H   H133      1.0  0.07977  0.30637  0.63364  1.0000
  H   H134      1.0  0.26760  0.27389  0.62313  1.0000
  H   H135      1.0  0.10849  0.28961  0.60526  1.0000
  C   C83       1.0  0.26447  0.35686  0.51835  1.0000
  C   C84       1.0  0.05605  0.46975  0.70732  1.0000
  C   C85       1.0  0.04562  0.48042  0.68759  1.0000
  H   H136      1.0  0.29696  0.27715  0.52306  1.0000
  H   H137      1.0  0.28983  0.36538  0.60424  1.0000
  Fe  Fe18      1.0  0.33270  0.43707  0.58960  1.0000
  C   C86       1.0  0.04151  0.45877  0.71592  1.0000
  H   H138      1.0  0.05668  0.48894  0.68094  1.0000
  H   H139      1.0  0.08276  0.49893  0.87406  1.0000
  H   H140      1.0  0.04945  0.45063  0.73189  1.0000
  C   C87       1.0  0.23308  0.46150  0.60699  1.0000
  C   C88       1.0  0.20798  0.46494  0.61029  1.0000
  C   C89       1.0  0.19925  0.47229  0.64208  1.0000
  C   C90       1.0  0.21566  0.47649  0.67044  1.0000
  C   C91       1.0  0.24072  0.47293  0.66735  1.0000
  C   C92       1.0  0.24941  0.46539  0.63584  1.0000
  H   H141      1.0  0.19526  0.46185  0.58819  1.0000
  H   H142      1.0  0.25350  0.47612  0.68927  1.0000
  H   H143      1.0  0.26878  0.46282  0.63348  1.0000
  H   H144      1.0  0.10001  0.47372  0.80056  1.0000
  H   H145      1.0  0.33964  0.45771  0.95700  1.0000
  H   H146      1.0  0.10317  0.29124  0.67592  1.0000
  H   H147      1.0  0.06178  0.26522  0.63633  1.0000
  H   H148      1.0  0.05568  0.46839  0.80023  1.0000
  H   H149      1.0  0.33185  0.47182  0.92833  1.0000
  S   S37       1.0  0.13726  0.49230  0.66768  1.0000
  S   S38       1.0  0.01876  0.29731  0.53992  1.0000
  C   C93       1.0  0.29039  0.26141  0.65896  1.0000
  H   H150      1.0  0.30643  0.40160  0.70948  1.0000
  C   C94       1.0  0.34088  0.26985  0.58914  1.0000
  H   H151      1.0  0.19182  0.50094  0.64406  1.0000
  H   H152      1.0  0.06970  0.48954  0.77332  1.0000
  H   H153      1.0  0.07980  0.42566  0.60900  1.0000
  H   H154      1.0  0.10113  0.47111  0.85133  1.0000
  S   S39       1.0  0.33815  0.42062  0.54668  1.0000
  H   H155      1.0  0.31068  0.45833  0.93194  1.0000
  H   H156      1.0  0.03462  0.47728  0.83115  1.0000
  H   H157      1.0  0.33174  0.46976  0.85709  1.0000
  C   C95       1.0  0.28300  0.36654  0.57535  1.0000
  H   H158      1.0  0.07875  0.43050  0.65863  1.0000
  S   S40       1.0  0.28209  0.42566  0.51737  1.0000
  S   S41       1.0  0.20571  0.48666  0.70911  1.0000
  H   H159      1.0  0.03232  0.41442  0.67860  1.0000
  C   C96       1.0  0.10065  0.30520  0.53405  1.0000
  H   H160      1.0  0.05094  0.30118  0.65382  1.0000
  H   H161      1.0  0.33596  0.27226  0.71780  1.0000
  C   C97       1.0  0.16609  0.50072  0.57906  1.0000
  H   H162      1.0  0.11128  0.48647  0.83190  1.0000
  S   S42       1.0  0.29613  0.39255  0.58412  1.0000
  H   H163      1.0  0.01096  0.37641  0.64778  1.0000
  H   H164      1.0  0.04803  0.44316  0.59298  1.0000
  C   C98       1.0  0.33055  0.46083  0.92981  1.0000
  S   S43       1.0  0.28402  0.30873  0.52564  1.0000
  H   H165      1.0  0.27295  0.34594  0.56944  1.0000
  H   H166      1.0  0.04116  0.41983  0.57486  1.0000
  H   H167      1.0  0.02020  0.44425  0.62087  1.0000
  H   H168      1.0  0.29703  0.26451  0.55889  1.0000
  H   H169      1.0  0.30306  0.40374  0.65881  1.0000
  C   C99       1.0  0.06925  0.49075  0.87060  1.0000
  C   C100      1.0  0.01682  0.45824  0.70380  1.0000
  Fe  Fe19      1.0  0.11125  0.48773  0.71596  1.0000
  H   H170      1.0  0.20651  0.33611  0.52113  1.0000
  H   H171      1.0  0.04464  0.27642  0.60633  1.0000
  C   C101      1.0  0.04004  0.44127  0.62175  1.0000
  S   S44       1.0  0.17339  0.29486  0.53416  1.0000
  C   C102      1.0  0.03232  0.41852  0.60332  1.0000
  N   N12       1.0  0.07523  0.28521  0.63603  1.0000
  C   C103      1.0  0.09317  0.28235  0.60502  1.0000
  C   C104      1.0  0.08768  0.28414  0.67355  1.0000
  C   C105      1.0  0.05491  0.27561  0.63390  1.0000
  C   C106      1.0  0.06510  0.29878  0.63161  1.0000
  C   C107      1.0  0.09716  0.47862  0.82897  1.0000
  H   H172      1.0  0.33591  0.43798  0.75538  1.0000
  H   H173      1.0  0.17986  0.47470  0.64460  1.0000
  C   C108      1.0  0.31583  0.40527  0.68340  1.0000
  H   H174      1.0  0.01284  0.48820  0.66037  1.0000
  H   H175      1.0  0.29689  0.28172  0.57244  1.0000
  H   H176      1.0  0.32037  0.43677  0.90006  1.0000
  H   H177      1.0  0.07302  0.41359  0.64498  1.0000
  C   C109      1.0  0.02084  0.47996  0.67586  1.0000
  C   C110      1.0  0.30976  0.26084  0.68561  1.0000
  C   C111      1.0  0.03097  0.42501  0.67000  1.0000
  H   H178      1.0  0.05667  0.46577  0.85111  1.0000
  C   C112      1.0  0.18674  0.33356  0.51851  1.0000
  H   H179      1.0  0.04117  0.27738  0.65723  1.0000
  S   S45       1.0  0.31617  0.45101  0.54600  1.0000
  H   H180      1.0  0.32320  0.38199  0.64709  1.0000
  C   C113      1.0  0.05390  0.47343  0.82874  1.0000
  C   C114      1.0  0.27342  0.35550  0.55569  1.0000
  C   C115      1.0  0.28379  0.37904  0.55791  1.0000
  S   S46       1.0  0.24338  0.28598  0.54878  1.0000
  H   H181      1.0  0.09544  0.27400  0.67796  1.0000
  H   H182      1.0  0.04924  0.44807  0.64240  1.0000
  H   H183      1.0  0.01225  0.42059  0.59993  1.0000
  H   H184      1.0  0.32237  0.29382  0.69034  1.0000
  C   C116      1.0  0.12346  0.29875  0.52714  1.0000
  H   H185      1.0  0.10156  0.27228  0.60770  1.0000
  H   H186      1.0  0.05049  0.49516  0.87445  1.0000
  Fe  Fe20      1.0  0.25140  0.32244  0.51740  1.0000
  C   C117      1.0  0.34001  0.43979  0.89931  1.0000
  H   H187      1.0  0.05614  0.30001  0.60320  1.0000
  H   H188      1.0  0.16732  0.49076  0.59244  1.0000
  C   C118      1.0  0.06989  0.42409  0.63651  1.0000
  C   C119      1.0  0.33556  0.38401  0.67192  1.0000
  N   N13       1.0  0.33168  0.27440  0.55155  1.0000
  H   H189      1.0  0.33352  0.25995  0.59668  1.0000
  C   C120      1.0  0.06749  0.49406  0.80233  1.0000
  H   H190      1.0  0.31821  0.41615  0.68692  1.0000
  N   N14       1.0  0.34230  0.45433  0.89617  1.0000
  C   C121      1.0  0.34088  0.26541  0.52091  1.0000
  C   C122      1.0  0.33014  0.45885  0.86062  1.0000
  H   H191      1.0  0.31019  0.45642  0.86043  1.0000
  H   H192      1.0  0.18553  0.32259  0.52023  1.0000
  H   H193      1.0  0.08398  0.30145  0.52109  1.0000
  H   H194      1.0  0.33515  0.27681  0.61249  1.0000
  C   C123      1.0  0.21037  0.50133  0.57219  1.0000
  H   H195      1.0  0.16333  0.49918  0.54775  1.0000
  C   C124      1.0  0.34027  0.28802  0.54457  1.0000
  H   H196      1.0  0.33359  0.29176  0.51647  1.0000
  H   H197      1.0  0.32672  0.37971  0.69767  1.0000
  H   H198      1.0  0.33867  0.45403  0.83481  1.0000
  H   H199      1.0  0.33989  0.40186  0.61624  1.0000
  N   N15       1.0  0.33973  0.39838  0.67690  1.0000
  H   H200      1.0  0.04857  0.49840  0.80404  1.0000
  H   H201      1.0  0.33463  0.25508  0.52560  1.0000
  H   H202      1.0  0.12418  0.28999  0.50896  1.0000
  H   H203      1.0  0.27534  0.38998  0.50682  1.0000
  H   H204      1.0  0.17091  0.35828  0.50470  1.0000
  Fe  Fe21      1.0  0.31947  0.43403  0.50399  1.0000
  H   H205      1.0  0.13951  0.34026  0.50578  1.0000
  C   C125      1.0  0.26516  0.36937  0.50093  1.0000
  H   H206      1.0  0.01097  0.42761  0.66860  1.0000
  H   H207      1.0  0.08065  0.50239  0.80455  1.0000
  H   H208      1.0  0.24388  0.56893  0.11376  1.0000
  S   S47       1.0  0.05116  0.53454  0.37860  1.0000
  Fe  Fe22      1.0  0.05746  0.57064  0.41673  1.0000
  S   S48       1.0  0.08836  0.55547  0.42011  1.0000
  S   S49       1.0  0.06504  0.59050  0.44581  1.0000
  Fe  Fe23      1.0  0.07793  0.55002  0.35946  1.0000
  S   S50       1.0  0.10744  0.54364  0.31620  1.0000
  Fe  Fe24      1.0  0.05920  0.54140  0.43874  1.0000
  H   H209      1.0  0.30779  0.50456  0.12554  1.0000
  S   S51       1.0  0.04932  0.56626  0.35454  1.0000
  S   S52       1.0  0.02892  0.55682  0.43916  1.0000
  Fe  Fe25      1.0  0.15402  0.55482  0.10231  1.0000
  S   S53       1.0  0.19272  0.55661  0.12456  1.0000
  S   S54       1.0  0.11920  0.55702  0.13887  1.0000
  Fe  Fe26      1.0  0.19768  0.57177  0.07816  1.0000
  H   H210      1.0  0.27863  0.58394  0.10787  1.0000
  Fe  Fe27      1.0  0.20264  0.54161  0.07878  1.0000
  S   S55       1.0  0.22976  0.52427  0.08197  1.0000
  S   S56       1.0  0.15841  0.57096  0.05871  1.0000
  S   S57       1.0  0.16336  0.53858  0.05922  1.0000
  H   H211      1.0  0.07656  0.53179  0.23553  1.0000
  S   S58       1.0  0.11094  0.73099  0.23102  1.0000
  S   S59       1.0  0.18243  0.73858  0.20527  1.0000
  Fe  Fe28      1.0  0.11054  0.73181  0.29552  1.0000
  S   S60       1.0  0.10714  0.71344  0.33221  1.0000
  S   S61       1.0  0.14719  0.74188  0.30010  1.0000
  H   H212      1.0  0.05925  0.51986  0.20900  1.0000
  Fe  Fe29      1.0  0.22441  0.68234  0.06125  1.0000
  S   S62       1.0  0.19259  0.68679  0.10182  1.0000
  Fe  Fe30      1.0  0.27998  0.68048  0.04331  1.0000
  C   C126      1.0  0.27287  0.51300  0.10744  1.0000
  S   S63       1.0  0.25308  0.66624  0.06955  1.0000
  S   S64       1.0  0.25170  0.69701  0.04052  1.0000
  H   H213      1.0  0.17345  0.61399  0.03550  1.0000
  C   C127      1.0  0.07927  0.71063  0.35706  1.0000
  C   C128      1.0  0.07909  0.70182  0.38806  1.0000
  C   C129      1.0  0.05697  0.69910  0.40753  1.0000
  C   C130      1.0  0.03477  0.70489  0.39541  1.0000
  C   C131      1.0  0.03500  0.71368  0.36445  1.0000
  C   C132      1.0  0.05715  0.71664  0.34556  1.0000
  H   H214      1.0  0.09617  0.69722  0.39734  1.0000
  H   H215      1.0  0.05708  0.69254  0.43184  1.0000
  H   H216      1.0  0.04521  0.64902  0.31877  1.0000
  H   H217      1.0  0.05702  0.72340  0.32167  1.0000
  C   C133      1.0  0.18475  0.72507  0.17277  1.0000
  C   C134      1.0  0.16408  0.71764  0.16307  1.0000
  C   C135      1.0  0.16674  0.70607  0.14066  1.0000
  C   C136      1.0  0.18995  0.70204  0.12674  1.0000
  C   C137      1.0  0.21053  0.70976  0.13507  1.0000
  C   C138      1.0  0.20794  0.72121  0.15823  1.0000
  H   H218      1.0  0.14605  0.72069  0.17323  1.0000
  H   H219      1.0  0.15073  0.70018  0.13406  1.0000
  H   H220      1.0  0.22853  0.70668  0.12461  1.0000
  H   H221      1.0  0.22404  0.72692  0.16548  1.0000
  H   H222      1.0  0.27723  0.53528  0.19801  1.0000
  H   H223      1.0  0.30849  0.57767  0.09359  1.0000
  H   H224      1.0  0.29609  0.57354  0.13975  1.0000
  Fe  Fe31      1.0  0.02314  0.55103  0.37755  1.0000
  H   H225      1.0  0.03836  0.51660  0.31045  1.0000
  S   S65       1.0  0.32112  0.51926  0.19471  1.0000
  C   C139      1.0  0.25536  0.53008  0.14860  1.0000
  C   C140      1.0  0.25405  0.52235  0.11524  1.0000
  C   C141      1.0  0.29328  0.51170  0.13206  1.0000
  C   C142      1.0  0.17674  0.70432  0.30448  1.0000
  H   H226      1.0  0.24042  0.53687  0.15575  1.0000
  C   C143      1.0  0.27327  0.56588  0.05173  1.0000
  H   H227      1.0  0.01369  0.59334  0.42160  1.0000
  C   C144      1.0  0.11163  0.54864  0.26796  1.0000
  C   C145      1.0  0.09512  0.55726  0.24956  1.0000
  C   C146      1.0  0.09786  0.55984  0.21013  1.0000
  C   C147      1.0  0.11754  0.55421  0.18897  1.0000
  C   C148      1.0  0.13451  0.54598  0.20770  1.0000
  C   C149      1.0  0.13141  0.54312  0.24686  1.0000
  H   H228      1.0  0.08009  0.56181  0.26548  1.0000
  H   H229      1.0  0.08472  0.56628  0.19591  1.0000
  H   H230      1.0  0.14966  0.54153  0.19174  1.0000
  H   H231      1.0  0.14430  0.53645  0.26078  1.0000
  C   C150      1.0  0.04312  0.60359  0.45002  1.0000
  C   C151      1.0  0.03796  0.54086  0.27875  1.0000
  Fe  Fe32      1.0  0.24425  0.66050  0.00867  1.0000
  H   H232      1.0  0.05144  0.53721  0.20602  1.0000
  H   H233      1.0  0.05625  0.66953  0.40598  1.0000
  H   H234      1.0  0.05364  0.50820  0.27127  1.0000
  C   C152      1.0  0.05478  0.66655  0.37526  1.0000
  H   H235      1.0  0.17894  0.59647  0.03185  1.0000
  H   H236      1.0  0.16539  0.67850  0.24389  1.0000
  H   H237      1.0  0.25958  0.57419  0.04937  1.0000
  H   H238      1.0  0.07080  0.65992  0.36853  1.0000
  H   H239      1.0  0.26949  0.50950  0.23231  1.0000
  C   C153      1.0  0.29667  0.55175  0.09429  1.0000
  C   C154      1.0  0.25694  0.56039  0.11373  1.0000
  C   C155      1.0  0.03292  0.62604  0.47281  1.0000
  H   H240      1.0  0.31396  0.55345  0.07805  1.0000
  C   C156      1.0  0.01913  0.60240  0.43592  1.0000
  H   H241      1.0  0.30240  0.51539  0.27848  1.0000
  H   H242      1.0  0.04443  0.64077  0.38571  1.0000
  H   H243      1.0  0.24716  0.55180  0.10090  1.0000
  C   C157      1.0  0.23450  0.62599  0.01696  1.0000
  S   S66       1.0  0.31678  0.68624  0.07046  1.0000
  C   C158      1.0  0.22866  0.60218  0.02526  1.0000
  C   C159      1.0  0.27607  0.52904  0.17269  1.0000
  H   H244      1.0  0.05582  0.54411  0.29099  1.0000
  H   H245      1.0  0.15436  0.71481  0.24336  1.0000
  H   H246      1.0  0.22147  0.61874  0.10987  1.0000
  H   H247      1.0  0.02455  0.54034  0.30284  1.0000
  N   N16       1.0  0.27961  0.56329  0.09219  1.0000
  C   C160      1.0  0.29130  0.57513  0.10909  1.0000
  C   C161      1.0  0.16495  0.60442  0.02686  1.0000
  C   C162      1.0  0.29846  0.71797  0.00499  1.0000
  H   H248      1.0  0.02995  0.65064  0.42259  1.0000
  H   H249      1.0  0.01227  0.65106  0.31977  1.0000
  C   C163      1.0  0.29513  0.51989  0.16439  1.0000
  S   S67       1.0  0.21378  0.67570  0.00183  1.0000
  C   C164      1.0  0.19493  0.69959  0.24245  1.0000
  H   H250      1.0  0.14752  0.69942  0.21959  1.0000
  H   H251      1.0  0.03836  0.63509  0.48718  1.0000
  Fe  Fe33      1.0  0.14613  0.74237  0.23583  1.0000
  C   C165      1.0  0.22388  0.60421  0.06428  1.0000
  S   S68       1.0  0.08888  0.75093  0.29837  1.0000
  H   H252      1.0  0.15166  0.68201  0.28990  1.0000
  H   H253      1.0  0.18423  0.67859  0.28621  1.0000
  H   H254      1.0  0.28805  0.54263  0.08224  1.0000
  S   S69       1.0  0.21666  0.59097  0.09498  1.0000
  C   C166      1.0  0.15129  0.70407  0.24801  1.0000
  H   H255      1.0  0.03128  0.54876  0.25917  1.0000
  H   H256      1.0  0.16020  0.70339  0.32324  1.0000
  H   H257      1.0  0.19278  0.69988  0.31977  1.0000
  H   H258      1.0  0.30179  0.54948  0.12448  1.0000
  H   H259      1.0  0.06907  0.52116  0.29713  1.0000
  Fe  Fe34      1.0  0.09229  0.75107  0.23401  1.0000
  C   C167      1.0  0.23004  0.62797  0.05607  1.0000
  C   C168      1.0  0.22496  0.61710  0.07965  1.0000
  C   C169      1.0  0.16834  0.68360  0.27196  1.0000
  H   H260      1.0  0.23036  0.63788  0.06812  1.0000
  H   H261      1.0  0.21156  0.69481  0.25520  1.0000
  H   H262      1.0  0.18017  0.71512  0.30139  1.0000
  N   N17       1.0  0.17287  0.69788  0.26675  1.0000
  S   S70       1.0  0.21066  0.55694  0.03424  1.0000
  Fe  Fe35      1.0  0.17087  0.55488  0.01736  1.0000
  C   C170      1.0  0.02921  0.64803  0.39154  1.0000
  N   N18       1.0  0.04066  0.52794  0.25875  1.0000
  H   H263      1.0  0.19232  0.69519  0.21330  1.0000
  H   H264      1.0  0.01791  0.71824  0.35497  1.0000
  H   H265      1.0  0.12103  0.61257  0.00002  1.0000
  C   C171      1.0  0.05085  0.51802  0.28556  1.0000
  H   H266      1.0  0.13431  0.70319  0.26572  1.0000
  H   H267      1.0  0.19905  0.71028  0.23845  1.0000
  H   H268      1.0  0.05665  0.67573  0.35801  1.0000
  C   C172      1.0  0.30434  0.50469  0.28554  1.0000
  C   C173      1.0  0.05763  0.52926  0.22585  1.0000
  C   C174      1.0  0.04990  0.61544  0.46855  1.0000
  H   H269      1.0  0.30161  0.72840  0.01408  1.0000
  H   H270      1.0  0.01149  0.64283  0.38667  1.0000
  C   C175      1.0  0.26195  0.50336  0.30586  1.0000
  H   H271      1.0  0.14937  0.60253  0.04675  1.0000
  H   H272      1.0  0.29932  0.71174  0.03122  1.0000
  N   N19       1.0  0.03113  0.65995  0.36743  1.0000
  H   H273      1.0  0.01741  0.51385  0.23014  1.0000
  H   H274      1.0  0.31121  0.50384  0.31549  1.0000
  H   H275      1.0  0.25876  0.51407  0.29992  1.0000
  H   H276      1.0  0.26100  0.55810  0.14421  1.0000
  H   H277      1.0  0.03137  0.66483  0.30764  1.0000
  C   C176      1.0  0.02996  0.65604  0.32656  1.0000
  S   S71       1.0  0.02669  0.67166  0.48874  1.0000
  H   H278      1.0  0.27179  0.50683  0.08195  1.0000
  C   C177      1.0  0.01622  0.52365  0.24502  1.0000
  H   H279      1.0  0.22823  0.59226  0.01321  1.0000
  S   S72       1.0  0.05998  0.52641  0.48691  1.0000
  H   H280      1.0  0.26505  0.55698  0.03783  1.0000
  H   H281      1.0  0.06842  0.61642  0.47962  1.0000
  C   C178      1.0  0.01053  0.66920  0.37645  1.0000
  H   H282      1.0  0.33757  0.67363  0.00089  1.0000
  C   C179      1.0  0.23407  0.61304  0.00177  1.0000
  H   H283      1.0  0.28980  0.56855  0.03476  1.0000
  H   H284      1.0  0.01132  0.67836  0.35891  1.0000
  H   H285      1.0  0.01108  0.67248  0.40691  1.0000
  H   H286      1.0  0.07580  0.56632  0.49637  1.0000
  H   H287      1.0  0.17251  0.60794  0.93074  1.0000
  H   H288      1.0  0.10378  0.68526  0.66276  1.0000
  Fe  Fe36      1.0  0.12848  0.51364  0.68211  1.0000
  S   S73       1.0  0.12779  0.52921  0.63521  1.0000
  H   H289      1.0  0.20803  0.51599  0.63629  1.0000
  S   S74       1.0  0.12411  0.51376  0.83328  1.0000
  S   S75       1.0  0.08186  0.74748  0.86531  1.0000
  H   H290      1.0  0.13273  0.74517  0.89924  1.0000
  S   S76       1.0  0.16277  0.55709  0.95331  1.0000
  H   H291      1.0  0.14584  0.70872  0.95788  1.0000
  H   H292      1.0  0.02990  0.55667  0.56850  1.0000
  H   H293      1.0  0.32554  0.69556  0.94441  1.0000
  H   H294      1.0  0.11855  0.70645  0.69069  1.0000
  S   S77       1.0  0.24045  0.70588  0.93759  1.0000
  H   H295      1.0  0.11767  0.70930  0.90213  1.0000
  S   S78       1.0  0.09994  0.50897  0.72701  1.0000
  Fe  Fe37      1.0  0.14321  0.72547  0.78236  1.0000
  S   S79       1.0  0.10192  0.72392  0.78094  1.0000
  S   S80       1.0  0.16237  0.70647  0.80127  1.0000
  H   H296      1.0  0.27932  0.71736  0.99349  1.0000
  C   C180      1.0  0.14734  0.59131  0.97584  1.0000
  N   N20       1.0  0.18839  0.50854  0.58707  1.0000
  Fe  Fe38      1.0  0.10404  0.73458  0.72483  1.0000
  S   S81       1.0  0.08555  0.73156  0.66705  1.0000
  H   H297      1.0  0.13161  0.58844  0.99435  1.0000
  S   S82       1.0  0.14547  0.73458  0.72373  1.0000
  C   C181      1.0  0.04841  0.69404  0.62012  1.0000
  C   C182      1.0  0.05190  0.70503  0.59675  1.0000
  C   C183      1.0  0.06304  0.71650  0.61170  1.0000
  C   C184      1.0  0.07056  0.71714  0.65020  1.0000
  C   C185      1.0  0.06636  0.70632  0.67392  1.0000
  C   C186      1.0  0.05555  0.69476  0.65883  1.0000
  H   H298      1.0  0.04645  0.70461  0.56693  1.0000
  H   H299      1.0  0.06599  0.72487  0.59319  1.0000
  H   H300      1.0  0.07123  0.70694  0.70388  1.0000
  H   H301      1.0  0.05253  0.68636  0.67720  1.0000
  C   C187      1.0  0.21795  0.70594  0.90083  1.0000
  C   C188      1.0  0.21328  0.71772  0.88069  1.0000
  C   C189      1.0  0.19593  0.71808  0.85069  1.0000
  C   C190      1.0  0.18353  0.70657  0.83994  1.0000
  C   C191      1.0  0.18806  0.69481  0.86021  1.0000
  C   C192      1.0  0.20500  0.69453  0.89082  1.0000
  H   H302      1.0  0.22326  0.72659  0.88817  1.0000
  H   H303      1.0  0.19272  0.72717  0.83515  1.0000
  H   H304      1.0  0.17853  0.68586  0.85217  1.0000
  H   H305      1.0  0.20848  0.68540  0.90605  1.0000
  H   H306      1.0  0.16943  0.68136  0.69186  1.0000
  H   H307      1.0  0.16206  0.73678  0.89466  1.0000
  H   H308      1.0  0.12588  0.51438  0.91541  1.0000
  H   H309      1.0  0.31880  0.73246  0.94935  1.0000
  C   C193      1.0  0.13709  0.52543  0.86591  1.0000
  C   C194      1.0  0.14834  0.53705  0.85367  1.0000
  C   C195      1.0  0.15642  0.54653  0.88079  1.0000
  C   C196      1.0  0.15387  0.54439  0.92043  1.0000
  C   C197      1.0  0.14318  0.53262  0.93265  1.0000
  C   C198      1.0  0.13460  0.52329  0.90554  1.0000
  H   H310      1.0  0.15025  0.53889  0.82334  1.0000
  H   H311      1.0  0.16459  0.55560  0.87097  1.0000
  H   H312      1.0  0.14097  0.53085  0.96298  1.0000
  H   H313      1.0  0.29636  0.72149  0.92896  1.0000
  C   C199      1.0  0.11369  0.53654  0.56289  1.0000
  C   C200      1.0  0.10969  0.52778  0.59331  1.0000
  C   C201      1.0  0.09123  0.51832  0.58993  1.0000
  C   C202      1.0  0.07646  0.51787  0.55681  1.0000
  H   H314      1.0  0.12809  0.54381  0.56518  1.0000
  C   C203      1.0  0.15370  0.71819  0.94768  1.0000
  H   H315      1.0  0.11753  0.66981  0.67698  1.0000
  H   H316      1.0  0.07051  0.58572  0.58721  1.0000
  H   H317      1.0  0.16955  0.52718  0.57905  1.0000
  C   C204      1.0  0.17799  0.60762  0.96144  1.0000
  H   H318      1.0  0.31179  0.69305  0.99039  1.0000
  C   C205      1.0  0.31512  0.72191  0.94202  1.0000
  H   H319      1.0  0.15353  0.74466  0.93919  1.0000
  C   C206      1.0  0.19095  0.51055  0.62887  1.0000
  H   H320      1.0  0.04498  0.58964  0.52912  1.0000
  C   C207      1.0  0.08017  0.52676  0.52666  1.0000
  H   H321      1.0  0.22753  0.50699  0.57743  1.0000
  H   H322      1.0  0.12217  0.69105  0.76440  1.0000
  H   H323      1.0  0.10249  0.54261  0.50604  1.0000
  H   H324      1.0  0.11153  0.72464  0.87802  1.0000
  H   H325      1.0  0.14463  0.70623  0.72237  1.0000
  H   H326      1.0  0.14867  0.70238  0.67248  1.0000
  C   C208      1.0  0.15584  0.68057  0.71561  1.0000
  H   H327      1.0  0.17508  0.51628  0.64101  1.0000
  S   S83       1.0  0.23972  0.63943  0.98591  1.0000
  N   N21       1.0  0.05704  0.57053  0.54939  1.0000
  N   N22       1.0  0.13205  0.68700  0.70569  1.0000
  H   H328      1.0  0.09662  0.69053  0.73183  1.0000
  H   H329      1.0  0.02091  0.57967  0.54898  1.0000
  C   C209      1.0  0.11487  0.68593  0.73839  1.0000
  C   C210      1.0  0.12144  0.68042  0.67154  1.0000
  H   H330      1.0  0.14109  0.59087  0.94550  1.0000
  C   C211      1.0  0.13613  0.70113  0.69738  1.0000
  H   H331      1.0  0.20246  0.52779  0.57404  1.0000
  H   H332      1.0  0.16955  0.71556  0.92865  1.0000
  C   C212      1.0  0.14637  0.73878  0.91457  1.0000
  H   H333      1.0  0.19290  0.59998  0.96393  1.0000
  H   H334      1.0  0.15354  0.66987  0.72194  1.0000
  C   C213      1.0  0.09916  0.53594  0.52949  1.0000
  H   H335      1.0  0.11167  0.67541  0.74597  1.0000
  H   H336      1.0  0.04376  0.55258  0.52311  1.0000
  Fe  Fe39      1.0  0.13138  0.50938  0.76958  1.0000
  C   C214      1.0  0.03822  0.57932  0.53189  1.0000
  H   H337      1.0  0.23781  0.61143  0.97160  1.0000
  H   H338      1.0  0.12046  0.73516  0.97914  1.0000
  H   H339      1.0  0.04653  0.57572  0.60707  1.0000
  S   S84       1.0  0.27316  0.67364  0.98279  1.0000
  H   H340      1.0  0.18609  0.61740  0.96908  1.0000
  H   H341      1.0  0.16125  0.72352  0.97309  1.0000
  H   H342      1.0  0.14920  0.50579  0.59051  1.0000
  N   N23       1.0  0.31679  0.71342  0.97621  1.0000
  H   H343      1.0  0.08800  0.51151  0.61314  1.0000
  C   C215      1.0  0.12589  0.71889  0.89373  1.0000
  H   H344      1.0  0.16187  0.58349  0.97903  1.0000
  N   N24       1.0  0.13506  0.72633  0.92738  1.0000
  C   C216      1.0  0.07954  0.57042  0.52547  1.0000
  H   H345      1.0  0.08671  0.58060  0.52139  1.0000
  C   C217      1.0  0.06309  0.57550  0.58821  1.0000
  H   H346      1.0  0.06186  0.51069  0.55473  1.0000
  S   S85       1.0  0.03673  0.67897  0.60154  1.0000
  C   C218      1.0  0.18607  0.52157  0.56830  1.0000
  H   H347      1.0  0.14095  0.71664  0.87301  1.0000
  S   S86       1.0  0.15904  0.51583  0.72564  1.0000
  H   H348      1.0  0.10514  0.72036  0.96351  1.0000
  H   H349      1.0  0.07726  0.56906  0.60217  1.0000
  H   H350      1.0  0.16419  0.68530  0.74148  1.0000
  H   H351      1.0  0.06078  0.55015  0.56646  1.0000
  H   H352      1.0  0.13412  0.68087  0.64650  1.0000
  Fe  Fe40      1.0  0.24321  0.68934  0.98142  1.0000
  Fe  Fe41      1.0  0.10212  0.74414  0.80897  1.0000
  H   H353      1.0  0.09449  0.56429  0.53841  1.0000
  C   C219      1.0  0.31160  0.69960  0.96499  1.0000
  H   H354      1.0  0.32862  0.71867  0.91968  1.0000
  S   S87       1.0  0.14339  0.74504  0.81323  1.0000
  H   H355      1.0  0.09992  0.73568  0.93880  1.0000
  H   H356      1.0  0.03342  0.57591  0.50243  1.0000
  H   H357      1.0  0.13072  0.61500  0.95135  1.0000
  C   C220      1.0  0.04742  0.55692  0.55200  1.0000
  H   H358      1.0  0.14397  0.62471  0.98944  1.0000
  H   H359      1.0  0.29312  0.69876  0.95134  1.0000
  C   C221      1.0  0.11424  0.72951  0.95342  1.0000
  H   H360      1.0  0.18404  0.52046  0.53671  1.0000
  H   H361      1.0  0.12514  0.74691  0.63555  1.0000
  C   C222      1.0  0.13725  0.61466  0.98156  1.0000
  N   N25       1.0  0.15686  0.60451  0.98642  1.0000
  Fe  Fe42      1.0  0.01323  0.67827  0.54745  1.0000
  C   C223      1.0  0.34180  0.71411  0.99289  1.0000
  C   C224      1.0  0.12719  0.90864  0.01761  1.0000
  H   H362      1.0  0.17372  0.99351  0.23991  1.0000
  S   S88       1.0  0.13070  0.77955  0.33367  1.0000
  C   C225      1.0  0.08039  0.78722  0.25349  1.0000
  H   H363      1.0  0.04168  0.79680  0.21550  1.0000
  C   C226      1.0  0.18928  0.78515  0.26840  1.0000
  S   S89       1.0  0.05150  0.80518  0.08566  1.0000
  C   C227      1.0  0.19304  0.99493  0.24918  1.0000
  S   S90       1.0  0.23257  0.79206  0.41482  1.0000
  H   H364      1.0  0.01943  0.76567  0.15011  1.0000
  S   S91       1.0  0.04607  0.99310  0.22836  1.0000
  S   S92       1.0  0.15152  0.97333  0.19524  1.0000
  H   H365      1.0  0.14730  0.90928  0.01170  1.0000
  H   H366      1.0  0.13987  0.91323  0.45927  1.0000
  S   S93       1.0  0.09678  0.96633  0.22829  1.0000
  H   H367      1.0  0.04842  0.77173  0.29099  1.0000
  Fe  Fe43      1.0  0.13229  0.97392  0.25278  1.0000
  S   S94       1.0  0.15630  0.96818  0.30415  1.0000
  Fe  Fe44      1.0  0.11475  0.96762  0.17035  1.0000
  S   S95       1.0  0.10587  0.95063  0.12952  1.0000
  C   C228      1.0  0.20725  0.76312  0.27047  1.0000
  H   H368      1.0  0.04708  0.97400  0.06162  1.0000
  S   S96       1.0  0.12684  0.94168  0.46352  1.0000
  H   H369      1.0  0.32323  0.99255  0.01603  1.0000
  N   N26       1.0  0.05648  0.79123  0.27050  1.0000
  H   H370      1.0  0.17887  0.76875  0.20959  1.0000
  C   C229      1.0  0.14728  0.96119  0.34860  1.0000
  C   C230      1.0  0.12334  0.95677  0.35537  1.0000
  C   C231      1.0  0.11732  0.95101  0.39084  1.0000
  C   C232      1.0  0.13504  0.94967  0.42006  1.0000
  C   C233      1.0  0.15891  0.95421  0.41338  1.0000
  C   C234      1.0  0.16500  0.95984  0.37782  1.0000
  H   H371      1.0  0.10949  0.95775  0.33324  1.0000
  H   H372      1.0  0.09877  0.94758  0.39566  1.0000
  H   H373      1.0  0.17271  0.95341  0.43561  1.0000
  H   H374      1.0  0.18355  0.96324  0.37300  1.0000
  H   H375      1.0  0.10255  0.97579  0.00962  1.0000
  C   C235      1.0  0.08030  0.94485  0.06379  1.0000
  C   C236      1.0  0.09573  0.95392  0.08247  1.0000
  C   C237      1.0  0.10310  0.96528  0.06318  1.0000
  S   S97       1.0  0.12758  0.76240  0.23390  1.0000
  H   H376      1.0  0.07416  0.93618  0.07890  1.0000
  H   H377      1.0  0.11493  0.97235  0.07735  1.0000
  C   C238      1.0  0.20033  0.00148  0.13857  1.0000
  Fe  Fe45      1.0  0.12565  0.76093  0.29800  1.0000
  H   H378      1.0  0.20986  0.76573  0.19441  1.0000
  H   H379      1.0  0.08134  0.91832  0.02290  1.0000
  H   H380      1.0  0.09495  0.77517  0.17303  1.0000
  H   H381      1.0  0.16654  0.88910  0.38926  1.0000
  H   H382      1.0  0.19690  0.78225  0.19231  1.0000
  H   H383      1.0  0.07282  0.80563  0.30809  1.0000
  C   C239      1.0  0.05043  0.78209  0.30192  1.0000
  C   C240      1.0  0.15810  0.78210  0.36011  1.0000
  C   C241      1.0  0.16075  0.79387  0.38146  1.0000
  C   C242      1.0  0.18309  0.79669  0.40020  1.0000
  C   C243      1.0  0.20314  0.78787  0.39702  1.0000
  C   C244      1.0  0.20032  0.77598  0.37627  1.0000
  C   C245      1.0  0.17774  0.77299  0.35849  1.0000
  H   H384      1.0  0.14562  0.80095  0.38305  1.0000
  H   H385      1.0  0.18511  0.80591  0.41592  1.0000
  H   H386      1.0  0.21570  0.76908  0.37408  1.0000
  C   C246      1.0  0.04738  0.97125  0.13788  1.0000
  C   C247      1.0  0.05740  0.76914  0.16491  1.0000
  C   C248      1.0  0.07768  0.77726  0.15879  1.0000
  C   C249      1.0  0.07560  0.78821  0.13426  1.0000
  C   C250      1.0  0.05342  0.79099  0.11497  1.0000
  C   C251      1.0  0.03326  0.78272  0.12047  1.0000
  C   C252      1.0  0.03523  0.77188  0.14552  1.0000
  N   N27       1.0  0.03265  0.98093  0.11573  1.0000
  H   H387      1.0  0.09129  0.79453  0.12995  1.0000
  H   H388      1.0  0.17570  0.76376  0.34293  1.0000
  C   C253      1.0  0.03704  0.79065  0.24082  1.0000
  H   H389      1.0  0.22939  0.99782  0.30013  1.0000
  N   N28       1.0  0.16447  0.90891  0.41239  1.0000
  C   C254      1.0  0.17877  0.89747  0.39700  1.0000
  C   C255      1.0  0.15105  0.90485  0.44712  1.0000
  C   C256      1.0  0.14662  0.91366  0.38342  1.0000
  C   C257      1.0  0.18150  0.91971  0.42228  1.0000
  H   H390      1.0  0.26712  0.99485  0.01632  1.0000
  C   C258      1.0  0.08132  0.95792  0.00571  1.0000
  H   H391      1.0  0.19230  0.89373  0.41859  1.0000
  H   H392      1.0  0.01083  0.98681  0.16453  1.0000
  H   H393      1.0  0.13545  0.92221  0.39470  1.0000
  H   H394      1.0  0.06378  0.99255  0.09905  1.0000
  H   H395      1.0  0.19138  0.92339  0.39663  1.0000
  Fe  Fe46      1.0  0.23597  0.80254  0.47247  1.0000
  H   H396      1.0  0.15607  0.91711  0.35709  1.0000
  H   H397      1.0  0.19560  0.91643  0.44346  1.0000
  H   H398      1.0  0.17135  0.92828  0.43515  1.0000
  C   C259      1.0  0.05819  0.80490  0.28576  1.0000
  C   C260      1.0  0.09607  0.96720  0.02482  1.0000
  H   H399      1.0  0.23838  0.78346  0.27726  1.0000
  H   H400      1.0  0.16400  0.90143  0.46988  1.0000
  H   H401      1.0  0.09557  0.78771  0.27490  1.0000
  H   H402      1.0  0.04972  0.97450  0.16818  1.0000
  C   C261      1.0  0.22336  0.00226  0.12004  1.0000
  H   H403      1.0  0.20020  0.98510  0.25869  1.0000
  H   H404      1.0  0.03278  0.78497  0.31620  1.0000
  H   H405      1.0  0.23242  0.99329  0.10977  1.0000
  C   C262      1.0  0.19766  0.77305  0.20960  1.0000
  C   C263      1.0  0.23131  0.78138  0.24782  1.0000
  H   H406      1.0  0.18864  0.75869  0.27258  1.0000
  H   H407      1.0  0.06275  0.81200  0.26265  1.0000
  H   H408      1.0  0.17050  0.78095  0.27151  1.0000
  H   H409      1.0  0.21939  0.75560  0.25603  1.0000
  H   H410      1.0  0.12351  0.91398  0.04520  1.0000
  H   H411      1.0  0.07982  0.77685  0.24258  1.0000
  H   H412      1.0  0.13352  0.90577  0.37499  1.0000
  N   N29       1.0  0.20637  0.77568  0.24906  1.0000
  Fe  Fe47      1.0  0.13776  0.99433  0.18943  1.0000
  H   H413      1.0  0.13820  0.89661  0.44094  1.0000
  H   H414      1.0  0.11663  0.93414  0.00863  1.0000
  Fe  Fe48      1.0  0.08626  0.98768  0.21840  1.0000
  H   H415      1.0  0.23134  0.79090  0.23195  1.0000
  H   H416      1.0  0.06520  0.78190  0.32415  1.0000
  H   H417      1.0  0.19175  0.99197  0.14243  1.0000
  H   H418      1.0  0.18931  0.90021  0.37094  1.0000
  C   C264      1.0  0.04576  0.99367  0.11414  1.0000
  H   H419      1.0  0.18738  0.79456  0.25226  1.0000
  S   S98       1.0  0.12009  0.99524  0.24782  1.0000
  H   H420      1.0  0.04050  0.80827  0.29904  1.0000
  H   H421      1.0  0.21428  0.76464  0.30012  1.0000
  H   H422      1.0  0.08537  0.79364  0.22898  1.0000
  S   S99       1.0  0.10267  0.98861  0.15956  1.0000
  C   C265      1.0  0.07280  0.94695  0.02567  1.0000
  H   H423      1.0  0.03455  0.78032  0.23005  1.0000
  H   H424      1.0  0.33055  0.80586  0.48790  1.0000
  H   H425      1.0  0.12276  0.89801  0.02195  1.0000
  H   H426      1.0  0.01606  0.78480  0.10590  1.0000
  H   H427      1.0  0.19583  0.78777  0.29773  1.0000
  H   H428      1.0  0.06614  0.96996  0.12567  1.0000
  H   H429      1.0  0.24469  0.77449  0.23348  1.0000
  C   C266      1.0  0.02906  0.97577  0.07634  1.0000
  H   H430      1.0  0.20356  0.99793  0.22335  1.0000
  H   H431      1.0  0.04961  0.99758  0.14342  1.0000
  C   C267      1.0  0.18073  0.00034  0.31399  1.0000
  H   H432      1.0  0.06080  0.93998  0.01147  1.0000
  H   H433      1.0  0.03873  0.96132  0.13824  1.0000
  H   H434      1.0  0.01890  0.79415  0.25213  1.0000
  H   H435      1.0  0.22994  0.87640  0.47175  1.0000
  H   H436      1.0  0.18862  0.99083  0.32486  1.0000
  Fe  Fe49      1.0  0.02033  0.80905  0.04353  1.0000
  H   H437      1.0  0.16106  0.99838  0.30700  1.0000
  S   S100      1.0  0.05841  0.75608  0.19851  1.0000
  H   H438      1.0  0.22237  0.85276  0.48672  1.0000
  S   S101      1.0  0.24899  0.82340  0.48483  1.0000
  H   H439      1.0  0.01823  0.98287  0.05862  1.0000
  H   H440      1.0  0.03476  0.00138  0.09897  1.0000
  H   H441      1.0  0.01924  0.96616  0.07633  1.0000
  C   C268      1.0  0.21789  0.87393  0.49526  1.0000
  C   C269      1.0  0.31426  0.00252  0.01551  1.0000
  S   S102      1.0  0.19528  0.84062  0.54956  1.0000
  N   N30       1.0  0.31983  0.78181  0.59556  1.0000
  S   S103      1.0  0.15979  0.77330  0.73763  1.0000
  H   H442      1.0  0.08024  0.90277  0.99742  1.0000
  H   H443      1.0  0.15247  0.95191  0.65739  1.0000
  H   H444      1.0  0.07429  0.91788  0.97258  1.0000
  S   S104      1.0  0.24547  0.81521  0.57606  1.0000
  H   H445      1.0  0.11265  0.89637  0.95235  1.0000
  Fe  Fe50      1.0  0.23334  0.79515  0.55659  1.0000
  S   S105      1.0  0.22968  0.77663  0.59225  1.0000
  H   H446      1.0  0.28103  0.84371  0.53403  1.0000
  H   H447      1.0  0.15894  0.96251  0.73976  1.0000
  H   H448      1.0  0.15909  0.94541  0.72506  1.0000
  Fe  Fe51      1.0  0.05225  0.93628  0.83439  1.0000
  H   H449      1.0  0.13607  0.75795  0.67220  1.0000
  S   S106      1.0  0.06122  0.94296  0.77352  1.0000
  Fe  Fe52      1.0  0.05583  0.94491  0.91930  1.0000
  S   S107      1.0  0.02807  0.93018  0.93895  1.0000
  S   S108      1.0  0.07468  0.96020  0.95672  1.0000
  Fe  Fe53      1.0  0.04776  0.91597  0.89902  1.0000
  S   S109      1.0  0.06074  0.89542  0.91732  1.0000
  C   C270      1.0  0.33261  0.79302  0.61418  1.0000
  S   S110      1.0  0.07740  0.93042  0.88268  1.0000
  S   S111      1.0  0.03292  0.95207  0.86981  1.0000
  Fe  Fe54      1.0  0.19484  0.94650  0.56569  1.0000
  S   S112      1.0  0.15354  0.94802  0.57129  1.0000
  S   S113      1.0  0.21443  0.96533  0.58292  1.0000
  Fe  Fe55      1.0  0.19270  0.91776  0.53606  1.0000
  S   S114      1.0  0.15161  0.91732  0.54168  1.0000
  H   H450      1.0  0.17245  0.96383  0.63584  1.0000
  Fe  Fe56      1.0  0.15684  0.92795  0.59826  1.0000
  S   S115      1.0  0.14389  0.92137  0.65736  1.0000
  S   S116      1.0  0.19833  0.92681  0.59446  1.0000
  S   S117      1.0  0.31711  0.96792  0.67015  1.0000
  C   C271      1.0  0.24309  0.96574  0.60687  1.0000
  C   C272      1.0  0.25274  0.97808  0.61753  1.0000
  C   C273      1.0  0.27534  0.97888  0.63707  1.0000
  C   C274      1.0  0.28847  0.96732  0.64613  1.0000
  C   C275      1.0  0.27876  0.95495  0.63566  1.0000
  C   C276      1.0  0.25612  0.95415  0.61609  1.0000
  H   H451      1.0  0.24275  0.98709  0.61048  1.0000
  H   H452      1.0  0.28264  0.98845  0.64491  1.0000
  H   H453      1.0  0.28884  0.94596  0.64255  1.0000
  H   H454      1.0  0.24888  0.94460  0.60790  1.0000
  C   C277      1.0  0.08468  0.93699  0.74199  1.0000
  C   C278      1.0  0.10041  0.92645  0.75167  1.0000
  C   C279      1.0  0.11840  0.92185  0.72535  1.0000
  C   C280      1.0  0.12090  0.92770  0.68914  1.0000
  C   C281      1.0  0.10537  0.93835  0.67961  1.0000
  C   C282      1.0  0.08734  0.94294  0.70592  1.0000
  H   H455      1.0  0.09857  0.92176  0.77925  1.0000
  H   H456      1.0  0.13031  0.91360  0.73298  1.0000
  H   H457      1.0  0.10697  0.94291  0.65180  1.0000
  H   H458      1.0  0.07526  0.95110  0.69812  1.0000
  H   H459      1.0  0.31177  0.85527  0.57154  1.0000
  H   H460      1.0  0.26607  0.85856  0.51801  1.0000
  H   H461      1.0  0.15140  0.96894  0.67292  1.0000
  C   C283      1.0  0.19874  0.85723  0.53482  1.0000
  S   S118      1.0  0.26350  0.79330  0.51279  1.0000
  C   C284      1.0  0.19098  0.88083  0.54720  1.0000
  C   C285      1.0  0.18699  0.86743  0.55594  1.0000
  H   H462      1.0  0.18221  0.88859  0.56420  1.0000
  H   H463      1.0  0.17517  0.86496  0.57977  1.0000
  H   H464      1.0  0.18478  0.95192  0.75141  1.0000
  C   C286      1.0  0.17987  0.77410  0.69796  1.0000
  C   C287      1.0  0.19008  0.76264  0.68126  1.0000
  C   C288      1.0  0.20535  0.76359  0.64886  1.0000
  C   C289      1.0  0.21030  0.77597  0.63273  1.0000
  C   C290      1.0  0.20011  0.78744  0.64941  1.0000
  C   C291      1.0  0.18515  0.78651  0.68221  1.0000
  H   H465      1.0  0.04455  0.84388  0.83550  1.0000
  C   C292      1.0  0.11639  0.76564  0.58272  1.0000
  H   H466      1.0  0.20395  0.79703  0.63731  1.0000
  H   H467      1.0  0.17739  0.79543  0.69515  1.0000
  N   N31       1.0  0.27265  0.85788  0.57877  1.0000
  S   S119      1.0  0.31045  0.82193  0.55149  1.0000
  C   C293      1.0  0.04024  0.88402  0.93808  1.0000
  C   C294      1.0  0.04936  0.87169  0.95059  1.0000
  H   H468      1.0  0.04072  0.85289  0.97650  1.0000
  C   C295      1.0  0.03346  0.86231  0.96669  1.0000
  H   H469      1.0  0.27566  0.85260  0.63818  1.0000
  S   S120      1.0  0.19360  0.93753  0.50655  1.0000
  C   C296      1.0  0.04109  0.77598  0.91998  1.0000
  C   C297      1.0  0.05598  0.76476  0.91189  1.0000
  C   C298      1.0  0.06369  0.76188  0.87423  1.0000
  C   C299      1.0  0.05628  0.77028  0.84461  1.0000
  C   C300      1.0  0.04101  0.78137  0.85259  1.0000
  N   N32       1.0  0.11245  0.91436  0.98606  1.0000
  C   C301      1.0  0.08595  0.91331  0.99526  1.0000
  H   H470      1.0  0.06203  0.76813  0.81549  1.0000
  S   S121      1.0  0.20518  0.80315  0.51543  1.0000
  H   H471      1.0  0.31330  0.79239  0.54356  1.0000
  H   H472      1.0  0.10509  0.77369  0.56956  1.0000
  H   H473      1.0  0.28422  0.79150  0.59781  1.0000
  S   S122      1.0  0.10042  0.75473  0.75273  1.0000
  H   H474      1.0  0.02391  0.96302  0.77903  1.0000
  S   S123      1.0  0.03008  0.82009  0.98971  1.0000
  H   H475      1.0  0.25451  0.87614  0.56263  1.0000
  Fe  Fe57      1.0  0.15264  0.93748  0.51397  1.0000
  Fe  Fe58      1.0  0.27386  0.81403  0.52914  1.0000
  C   C302      1.0  0.29779  0.86329  0.57704  1.0000
  H   H476      1.0  0.31233  0.77475  0.53837  1.0000
  C   C303      1.0  0.02703  0.83826  0.83443  1.0000
  C   C304      1.0  0.11886  0.92846  0.98133  1.0000
  H   H477      1.0  0.03547  0.77815  0.94915  1.0000
  Fe  Fe59      1.0  0.14179  0.75411  0.75453  1.0000
  H   H478      1.0  0.10692  0.93340  0.95958  1.0000
  C   C305      1.0  0.01510  0.88694  0.94198  1.0000
  C   C306      1.0  0.21373  0.86053  0.50381  1.0000
  H   H479      1.0  0.25243  0.84382  0.61188  1.0000
  H   H480      1.0  0.25856  0.87408  0.61338  1.0000
  C   C307      1.0  0.27125  0.84807  0.60988  1.0000
  S   S124      1.0  0.21367  0.90077  0.50694  1.0000
  H   H481      1.0  0.18638  0.75306  0.69344  1.0000
  H   H482      1.0  0.13763  0.90741  0.94229  1.0000
  C   C308      1.0  0.13095  0.78038  0.63252  1.0000
  N   N33       1.0  0.18304  0.95781  0.69242  1.0000
  C   C309      1.0  0.19861  0.94657  0.67900  1.0000
  C   C310      1.0  0.19858  0.96960  0.69816  1.0000
  C   C311      1.0  0.17097  0.95428  0.72884  1.0000
  C   C312      1.0  0.16398  0.96076  0.66339  1.0000
  H   H483      1.0  0.20756  0.94882  0.65116  1.0000
  H   H484      1.0  0.18754  0.93745  0.67475  1.0000
  H   H485      1.0  0.21337  0.96773  0.71960  1.0000
  H   H486      1.0  0.20782  0.97245  0.67093  1.0000
  H   H487      1.0  0.18747  0.97832  0.70816  1.0000
  H   H488      1.0  0.28511  0.98332  0.98786  1.0000
  H   H489      1.0  0.21354  0.94421  0.69976  1.0000
  C   C313      1.0  0.32186  0.78297  0.55352  1.0000
  H   H490      1.0  0.03510  0.78771  0.82945  1.0000
  C   C314      1.0  0.26690  0.85133  0.54188  1.0000
  C   C315      1.0  0.29351  0.78210  0.60665  1.0000
  H   H491      1.0  0.32370  0.80266  0.60684  1.0000
  H   H492      1.0  0.30283  0.86834  0.60437  1.0000
  C   C316      1.0  0.34082  0.81700  0.53820  1.0000
  H   H493      1.0  0.34147  0.78293  0.54394  1.0000
  H   H494      1.0  0.13476  0.76555  0.56840  1.0000
  H   H495      1.0  0.32215  0.76054  0.59399  1.0000
  H   H496      1.0  0.08435  0.75823  0.63693  1.0000
  H   H497      1.0  0.10701  0.91111  0.92573  1.0000
  S   S125      1.0  0.02407  0.92077  0.84791  1.0000
  H   H498      1.0  0.04335  0.84220  0.90639  1.0000
  H   H499      1.0  0.09536  0.76895  0.67420  1.0000
  H   H500      1.0  0.33004  0.76794  0.63930  1.0000
  H   H501      1.0  0.24890  0.84623  0.54322  1.0000
  N   N34       1.0  0.11880  0.76762  0.62458  1.0000
  C   C317      1.0  0.02588  0.83664  0.90321  1.0000
  H   H502      1.0  0.23551  0.86485  0.58827  1.0000
  H   H503      1.0  0.12038  0.78887  0.62036  1.0000
  H   H504      1.0  0.06882  0.86938  0.94787  1.0000
  Fe  Fe60      1.0  0.22000  0.82334  0.53095  1.0000
  H   H505      1.0  0.03197  0.82753  0.83162  1.0000
  H   H506      1.0  0.06164  0.75832  0.93497  1.0000
  H   H507      1.0  0.29945  0.87063  0.55357  1.0000
  C   C318      1.0  0.03342  0.78428  0.89028  1.0000
  H   H508      1.0  0.31760  0.99158  0.94447  1.0000
  C   C319      1.0  0.20674  0.88412  0.51716  1.0000
  H   H509      1.0  0.13279  0.78221  0.66395  1.0000
  H   H510      1.0  0.33232  0.79222  0.64593  1.0000
  C   C320      1.0  0.33134  0.76918  0.60771  1.0000
  H   H511      1.0  0.29105  0.78121  0.63817  1.0000
  H   H512      1.0  0.01986  0.94855  0.72188  1.0000
  C   C321      1.0  0.11778  0.90699  0.95010  1.0000
  C   C322      1.0  0.09409  0.76771  0.64251  1.0000
  H   H513      1.0  0.28439  0.83964  0.60488  1.0000
  C   C323      1.0  0.25459  0.86872  0.58612  1.0000
  H   H514      1.0  0.14987  0.78054  0.62007  1.0000
  H   H515      1.0  0.13832  0.92959  0.97202  1.0000
  H   H516      1.0  0.08228  0.77591  0.63142  1.0000
  Fe  Fe61      1.0  0.33320  0.98764  0.68924  1.0000
  H   H517      1.0  0.28322  0.77385  0.59282  1.0000
  C   C324      1.0  0.30907  0.00164  0.94684  1.0000
  H   H518      1.0  0.02285  0.86119  0.87620  1.0000
  H   H519      1.0  0.01704  0.84122  0.80794  1.0000
  C   C325      1.0  0.27704  0.99351  0.98846  1.0000
  H   H520      1.0  0.03072  0.82588  0.90190  1.0000
  H   H521      1.0  0.21334  0.75469  0.63619  1.0000
  S   S126      1.0  0.01362  0.79805  0.89895  1.0000
  H   H522      1.0  0.01488  0.83839  0.92971  1.0000
  H   H523      1.0  0.26304  0.99419  0.96521  1.0000
  H   H524      1.0  0.15258  0.75630  0.62776  1.0000
  H   H525      1.0  0.10740  0.75604  0.57586  1.0000
  C   C326      1.0  0.13382  0.75670  0.64068  1.0000
  N   N35       1.0  0.01192  0.84085  0.86902  1.0000
  H   H526      1.0  0.51530  0.22375  0.21827  1.0000
  S   S127      1.0  0.42137  0.03606  0.48765  1.0000
  C   C327      1.0  0.46782  0.22379  0.19652  1.0000
  C   C328      1.0  0.34599  0.04865  0.25789  1.0000
  C   C329      1.0  0.46243  0.21105  0.25405  1.0000
  C   C330      1.0  0.39335  0.23660  0.46044  1.0000
  C   C331      1.0  0.38086  0.22016  0.41382  1.0000
  S   S128      1.0  0.50502  0.20411  0.41836  1.0000
  H   H527      1.0  0.39499  0.02389  0.42260  1.0000
  C   C332      1.0  0.35867  0.08861  0.13420  1.0000
  S   S129      1.0  0.35860  0.23902  0.29764  1.0000
  N   N36       1.0  0.35550  0.02605  0.42161  1.0000
  S   S130      1.0  0.53940  0.17343  0.46804  1.0000
  H   H528      1.0  0.37050  0.09691  0.12493  1.0000
  H   H529      1.0  0.47829  0.23174  0.18199  1.0000
  H   H530      1.0  0.45766  0.23747  0.26093  1.0000
  Fe  Fe62      1.0  0.42882  0.07922  0.40723  1.0000
  S   S131      1.0  0.39681  0.06583  0.41875  1.0000
  S   S132      1.0  0.42562  0.10159  0.41534  1.0000
  Fe  Fe63      1.0  0.46042  0.05677  0.37442  1.0000
  S   S133      1.0  0.43118  0.04162  0.38256  1.0000
  S   S134      1.0  0.49970  0.05376  0.35349  1.0000
  Fe  Fe64      1.0  0.40455  0.05700  0.36034  1.0000
  S   S135      1.0  0.37054  0.05073  0.32668  1.0000
  Fe  Fe65      1.0  0.42502  0.05124  0.44025  1.0000
  S   S136      1.0  0.47960  0.17551  0.48639  1.0000
  S   S137      1.0  0.43438  0.07150  0.34701  1.0000
  S   S138      1.0  0.45656  0.06539  0.43384  1.0000
  H   H531      1.0  0.35204  0.24015  0.38782  1.0000
  H   H532      1.0  0.48417  0.23203  0.28766  1.0000
  H   H533      1.0  0.36812  0.08347  0.15834  1.0000
  C   C333      1.0  0.51198  0.03756  0.34702  1.0000
  C   C334      1.0  0.53767  0.03561  0.34717  1.0000
  C   C335      1.0  0.54808  0.02292  0.34074  1.0000
  H   H534      1.0  0.34631  0.23375  0.05871  1.0000
  C   C336      1.0  0.49673  0.02672  0.34013  1.0000
  H   H535      1.0  0.54960  0.04393  0.35247  1.0000
  H   H536      1.0  0.56789  0.02154  0.34115  1.0000
  H   H537      1.0  0.47694  0.02812  0.33962  1.0000
  C   C337      1.0  0.36350  0.05344  0.19540  1.0000
  C   C338      1.0  0.38557  0.05699  0.21369  1.0000
  C   C339      1.0  0.38792  0.05633  0.25384  1.0000
  C   C340      1.0  0.36818  0.05208  0.27613  1.0000
  S   S139      1.0  0.36177  0.05442  0.14476  1.0000
  C   C341      1.0  0.64071  0.18247  0.48465  1.0000
  H   H538      1.0  0.40107  0.06014  0.19667  1.0000
  H   H539      1.0  0.40510  0.05896  0.26746  1.0000
  H   H540      1.0  0.44826  0.22727  0.19777  1.0000
  H   H541      1.0  0.60089  0.18382  0.48083  1.0000
  C   C342      1.0  0.48505  0.12812  0.46816  1.0000
  C   C343      1.0  0.46624  0.13358  0.44567  1.0000
  C   C344      1.0  0.44796  0.12534  0.43009  1.0000
  C   C345      1.0  0.44843  0.11161  0.43660  1.0000
  C   C346      1.0  0.46697  0.10621  0.45969  1.0000
  H   H542      1.0  0.46189  0.20169  0.23696  1.0000
  H   H543      1.0  0.46598  0.14409  0.43976  1.0000
  H   H544      1.0  0.43358  0.12960  0.41236  1.0000
  H   H545      1.0  0.37329  0.21827  0.38461  1.0000
  H   H546      1.0  0.49963  0.11016  0.49296  1.0000
  H   H547      1.0  0.40249  0.25100  0.39616  1.0000
  H   H548      1.0  0.50470  0.20695  0.21537  1.0000
  H   H549      1.0  0.64338  0.18378  0.45418  1.0000
  C   C347      1.0  0.53284  0.01214  0.33314  1.0000
  C   C348      1.0  0.43366  0.21007  0.34962  1.0000
  C   C349      1.0  0.45154  0.21991  0.35066  1.0000
  C   C350      1.0  0.47323  0.21800  0.37214  1.0000
  C   C351      1.0  0.47694  0.20640  0.39349  1.0000
  C   C352      1.0  0.45871  0.19673  0.39328  1.0000
  C   C353      1.0  0.43726  0.19852  0.37116  1.0000
  H   H550      1.0  0.44885  0.22890  0.33454  1.0000
  H   H551      1.0  0.48724  0.22554  0.37233  1.0000
  H   H552      1.0  0.46146  0.18772  0.40936  1.0000
  H   H553      1.0  0.42352  0.19085  0.37047  1.0000
  H   H554      1.0  0.35760  0.04665  0.40717  1.0000
  N   N37       1.0  0.51433  0.09278  0.37448  1.0000
  C   C354      1.0  0.51913  0.10696  0.38213  1.0000
  C   C355      1.0  0.48882  0.09131  0.36038  1.0000
  C   C356      1.0  0.51755  0.08516  0.41016  1.0000
  C   C357      1.0  0.53178  0.08764  0.34516  1.0000
  H   H555      1.0  0.53788  0.10844  0.39420  1.0000
  H   H556      1.0  0.50567  0.11124  0.40304  1.0000
  H   H557      1.0  0.51752  0.11293  0.35558  1.0000
  H   H558      1.0  0.48540  0.09720  0.33410  1.0000
  H   H559      1.0  0.48488  0.08080  0.35322  1.0000
  H   H560      1.0  0.47504  0.09462  0.38223  1.0000
  H   H561      1.0  0.51373  0.07444  0.40543  1.0000
  H   H562      1.0  0.50478  0.08877  0.43299  1.0000
  H   H563      1.0  0.53666  0.08589  0.42142  1.0000
  H   H564      1.0  0.52873  0.07691  0.33909  1.0000
  H   H565      1.0  0.55123  0.08865  0.35471  1.0000
  H   H566      1.0  0.52959  0.09297  0.31758  1.0000
  C   C358      1.0  0.50715  0.01409  0.33274  1.0000
  Fe  Fe66      1.0  0.51010  0.16042  0.49326  1.0000
  H   H567      1.0  0.48769  0.24153  0.24454  1.0000
  C   C359      1.0  0.34361  0.04936  0.21770  1.0000
  Fe  Fe67      1.0  0.39678  0.23049  0.28957  1.0000
  N   N38       1.0  0.38368  0.23452  0.42130  1.0000
  S   S140      1.0  0.65383  0.02114  0.38173  1.0000
  Fe  Fe68      1.0  0.41216  0.25226  0.23420  1.0000
  H   H568      1.0  0.41989  0.23565  0.39653  1.0000
  H   H569      1.0  0.38230  0.02830  0.37683  1.0000
  H   H570      1.0  0.46969  0.20852  0.28295  1.0000
  H   H571      1.0  0.36820  0.21558  0.43479  1.0000
  Fe  Fe69      1.0  0.50923  0.18916  0.46643  1.0000
  C   C360      1.0  0.50339  0.21633  0.23237  1.0000
  Fe  Fe70      1.0  0.35937  0.24248  0.23398  1.0000
  N   N39       1.0  0.47762  0.22117  0.23528  1.0000
  C   C361      1.0  0.35950  0.24132  0.41740  1.0000
  C   C362      1.0  0.37909  0.02230  0.40297  1.0000
  H   H572      1.0  0.38057  0.23268  0.48243  1.0000
  H   H573      1.0  0.51132  0.21433  0.26124  1.0000
  S   S141      1.0  0.39577  0.23207  0.22542  1.0000
  S   S142      1.0  0.40687  0.21167  0.32121  1.0000
  H   H574      1.0  0.44301  0.21458  0.25793  1.0000
  H   H575      1.0  0.39498  0.23786  0.36353  1.0000
  H   H576      1.0  0.39613  0.24732  0.46661  1.0000
  C   C363      1.0  0.47683  0.23356  0.25823  1.0000
  H   H577      1.0  0.46856  0.21476  0.17799  1.0000
  H   H578      1.0  0.46709  0.09571  0.46568  1.0000
  C   C364      1.0  0.48525  0.11443  0.47529  1.0000
  H   H579      1.0  0.36743  0.01936  0.47689  1.0000
  H   H580      1.0  0.37182  0.04233  0.45189  1.0000
  C   C365      1.0  0.35205  0.01792  0.45618  1.0000
  H   H581      1.0  0.57140  0.00487  0.25274  1.0000
  H   H582      1.0  0.39893  0.21480  0.41534  1.0000
  C   C366      1.0  0.35593  0.04021  0.43276  1.0000
  S   S143      1.0  0.50890  0.13787  0.48759  1.0000
  H   H583      1.0  0.36098  0.25217  0.42291  1.0000
  C   C367      1.0  0.40108  0.24002  0.39326  1.0000
  H   H584      1.0  0.37949  0.01169  0.39406  1.0000
  H   H585      1.0  0.35790  0.08131  0.11006  1.0000
  H   H586      1.0  0.41150  0.23145  0.46424  1.0000
  H   H587      1.0  0.57395  0.01036  0.20416  1.0000
  S   S144      1.0  0.41596  0.24975  0.29792  1.0000
  H   H588      1.0  0.34691  0.21336  0.20730  1.0000
  H   H589      1.0  0.34561  0.23733  0.43755  1.0000
  H   H590      1.0  0.49526  0.00581  0.32680  1.0000
  H   H591      1.0  0.34655  0.11172  0.16900  1.0000
  H   H592      1.0  0.35148  0.00717  0.44892  1.0000
  H   H593      1.0  0.34468  0.09839  0.20271  1.0000
  H   H594      1.0  0.35442  0.20428  0.03917  1.0000
  H   H595      1.0  0.60009  0.00283  0.22743  1.0000
  H   H596      1.0  0.36452  0.21800  0.01086  1.0000
  C   C368      1.0  0.34877  0.21132  0.01629  1.0000
  S   S145      1.0  0.51848  0.16677  0.55358  1.0000
  Fe  Fe71      1.0  0.48973  0.18268  0.54563  1.0000
  S   S146      1.0  0.45744  0.18436  0.58737  1.0000
  H   H597      1.0  0.45662  0.12643  0.53785  1.0000
  S   S147      1.0  0.40738  0.23546  0.81032  1.0000
  H   H598      1.0  0.36873  0.03089  0.90441  1.0000
  Fe  Fe72      1.0  0.37006  0.22587  0.81079  1.0000
  Fe  Fe73      1.0  0.40530  0.23391  0.74587  1.0000
  S   S148      1.0  0.43999  0.23105  0.70946  1.0000
  C   C369      1.0  0.38264  0.04580  0.53237  1.0000
  H   H599      1.0  0.47315  0.15685  0.59194  1.0000
  H   H600      1.0  0.45052  0.02425  0.70758  1.0000
  S   S149      1.0  0.34410  0.03250  0.62398  1.0000
  H   H601      1.0  0.44507  0.01212  0.64761  1.0000
  H   H602      1.0  0.66612  0.20799  0.52871  1.0000
  S   S150      1.0  0.36592  0.01965  0.72372  1.0000
  H   H603      1.0  0.41236  0.01478  0.64843  1.0000
  C   C370      1.0  0.36549  0.04472  0.56251  1.0000
  C   C371      1.0  0.36457  0.03316  0.58464  1.0000
  C   C372      1.0  0.38050  0.02257  0.57581  1.0000
  S   S151      1.0  0.36453  0.20966  0.85493  1.0000
  Fe  Fe74      1.0  0.35127  0.24281  0.74476  1.0000
  H   H604      1.0  0.48508  0.14305  0.56443  1.0000
  H   H605      1.0  0.45595  0.03932  0.61075  1.0000
  C   C373      1.0  0.43511  0.03103  0.69916  1.0000
  C   C374      1.0  0.44228  0.13005  0.55844  1.0000
  H   H606      1.0  0.39466  0.03693  0.65725  1.0000
  C   C375      1.0  0.61279  0.18107  0.53900  1.0000
  C   C376      1.0  0.63342  0.17936  0.56304  1.0000
  C   C377      1.0  0.65755  0.17915  0.54797  1.0000
  H   H607      1.0  0.42746  0.14314  0.62240  1.0000
  H   H608      1.0  0.63061  0.17815  0.59351  1.0000
  H   H609      1.0  0.47284  0.03173  0.64921  1.0000
  C   C378      1.0  0.45278  0.19758  0.62060  1.0000
  C   C379      1.0  0.47008  0.20760  0.62557  1.0000
  C   C380      1.0  0.46585  0.21779  0.65283  1.0000
  C   C381      1.0  0.44427  0.21810  0.67521  1.0000
  C   C382      1.0  0.42688  0.20814  0.67002  1.0000
  C   C383      1.0  0.43117  0.19791  0.64291  1.0000
  H   H610      1.0  0.48681  0.20744  0.60865  1.0000
  H   H611      1.0  0.47943  0.22543  0.65666  1.0000
  H   H612      1.0  0.41021  0.20826  0.68706  1.0000
  H   H613      1.0  0.41767  0.19022  0.63930  1.0000
  S   S152      1.0  0.34889  0.24517  0.80898  1.0000
  S   S153      1.0  0.36987  0.22266  0.74667  1.0000
  H   H614      1.0  0.34583  0.20542  0.98962  1.0000
  H   H615      1.0  0.44375  0.12385  0.58453  1.0000
  H   H616      1.0  0.42402  0.12820  0.54501  1.0000
  C   C384      1.0  0.41243  0.04114  0.64731  1.0000
  N   N40       1.0  0.44549  0.14426  0.56764  1.0000
  H   H617      1.0  0.45986  0.04812  0.65534  1.0000
  C   C385      1.0  0.44329  0.15205  0.53216  1.0000
  S   S154      1.0  0.51757  0.19736  0.52538  1.0000
  C   C386      1.0  0.39892  0.03528  0.52418  1.0000
  H   H618      1.0  0.45837  0.14948  0.51169  1.0000
  N   N41       1.0  0.43356  0.03239  0.65708  1.0000
  C   C387      1.0  0.43010  0.01919  0.63929  1.0000
  H   H619      1.0  0.38352  0.05484  0.51600  1.0000
  H   H620      1.0  0.65597  0.22369  0.54788  1.0000
  H   H621      1.0  0.35875  0.02075  0.84111  1.0000
  H   H622      1.0  0.43789  0.04075  0.71368  1.0000
  H   H623      1.0  0.37976  0.01357  0.59227  1.0000
  H   H624      1.0  0.41797  0.02673  0.71103  1.0000
  H   H625      1.0  0.35319  0.05296  0.56919  1.0000
  S   S155      1.0  0.58291  0.18182  0.55969  1.0000
  H   H626      1.0  0.41411  0.05112  0.66080  1.0000
  C   C388      1.0  0.66131  0.18094  0.50870  1.0000
  H   H627      1.0  0.42547  0.15030  0.51732  1.0000
  H   H628      1.0  0.41001  0.01542  0.53932  1.0000
  C   C389      1.0  0.39762  0.02365  0.54578  1.0000
  C   C390      1.0  0.66464  0.21403  0.55557  1.0000
  H   H629      1.0  0.47257  0.14049  0.61143  1.0000
  C   C391      1.0  0.34410  0.02445  0.85952  1.0000
  H   H630      1.0  0.43000  0.01974  0.60750  1.0000
  C   C392      1.0  0.45659  0.03816  0.64248  1.0000
  H   H631      1.0  0.40753  0.14758  0.58317  1.0000
  H   H632      1.0  0.45373  0.24688  0.76981  1.0000
  C   C393      1.0  0.42637  0.14877  0.59520  1.0000
  H   H633      1.0  0.42855  0.15948  0.60267  1.0000
  Fe  Fe75      1.0  0.54588  0.18072  0.52822  1.0000
  Fe  Fe76      1.0  0.34633  0.01603  0.66797  1.0000
  C   C394      1.0  0.47014  0.14622  0.58463  1.0000
  H   H634      1.0  0.41090  0.04253  0.61578  1.0000
  H   H635      1.0  0.35228  0.19227  0.91596  1.0000
  H   H636      1.0  0.67312  0.17758  0.56675  1.0000
  H   H637      1.0  0.67391  0.21959  0.62967  1.0000
  H   H638      1.0  0.65942  0.14101  0.54906  1.0000
  C   C395      1.0  0.66579  0.14254  0.51911  1.0000
  H   H639      1.0  0.65167  0.20881  0.57487  1.0000
  H   H640      1.0  0.44438  0.16287  0.53831  1.0000
  H   H641      1.0  0.66159  0.15304  0.51176  1.0000
  C   C396      1.0  0.34969  0.03021  0.89545  1.0000
  H   H642      1.0  0.65438  0.13623  0.49993  1.0000
  C   C397      1.0  0.61658  0.18249  0.49964  1.0000
  H   H643      1.0  0.66662  0.30918  0.07102  1.0000
  C   C398      1.0  0.35359  0.45414  0.34638  1.0000
  C   C399      1.0  0.45388  0.45920  0.08331  1.0000
  Fe  Fe77      1.0  0.36639  0.47428  0.17057  1.0000
  S   S156      1.0  0.37764  0.49481  0.15429  1.0000
  C   C400      1.0  0.35156  0.44435  0.37484  1.0000
  Fe  Fe78      1.0  0.40201  0.49348  0.20625  1.0000
  H   H644      1.0  0.59927  0.36435  0.08173  1.0000
  S   S157      1.0  0.39183  0.47258  0.22143  1.0000
  C   C401      1.0  0.60690  0.30846  0.03912  1.0000
  S   S158      1.0  0.36480  0.45706  0.12793  1.0000
  H   H645      1.0  0.35916  0.43453  0.36948  1.0000
  C   C402      1.0  0.55371  0.35667  0.06181  1.0000
  Fe  Fe79      1.0  0.54091  0.30811  0.02609  1.0000
  S   S159      1.0  0.51625  0.32369  0.05299  1.0000
  C   C403      1.0  0.62772  0.30576  0.06189  1.0000
  Fe  Fe80      1.0  0.48546  0.30927  0.04525  1.0000
  S   S160      1.0  0.45445  0.30641  0.08817  1.0000
  Fe  Fe81      1.0  0.34779  0.50169  0.19528  1.0000
  C   C404      1.0  0.44528  0.48217  0.09916  1.0000
  H   H646      1.0  0.41087  0.27095  0.05120  1.0000
  C   C405      1.0  0.40861  0.28130  0.04094  1.0000
  H   H647      1.0  0.54819  0.36516  0.04337  1.0000
  C   C406      1.0  0.39555  0.47024  0.02902  1.0000
  C   C407      1.0  0.44785  0.27034  0.16718  1.0000
  C   C408      1.0  0.42954  0.28023  0.16676  1.0000
  C   C409      1.0  0.43200  0.29129  0.14277  1.0000
  C   C410      1.0  0.45266  0.29252  0.11878  1.0000
  C   C411      1.0  0.47083  0.28255  0.11884  1.0000
  C   C412      1.0  0.46846  0.27154  0.14305  1.0000
  H   H648      1.0  0.65428  0.49929  0.02705  1.0000
  H   H649      1.0  0.41785  0.29895  0.14294  1.0000
  H   H650      1.0  0.48685  0.28339  0.10061  1.0000
  C   C413      1.0  0.34406  0.27443  0.37871  1.0000
  H   H651      1.0  0.36269  0.45182  0.31950  1.0000
  C   C414      1.0  0.65088  0.31107  0.05277  1.0000
  C   C415      1.0  0.38371  0.46994  0.06488  1.0000
  C   C416      1.0  0.37775  0.45783  0.08136  1.0000
  C   C417      1.0  0.38297  0.44603  0.06090  1.0000
  H   H652      1.0  0.37829  0.43661  0.07335  1.0000
  H   H653      1.0  0.37935  0.47909  0.07994  1.0000
  Fe  Fe82      1.0  0.36089  0.48142  0.25703  1.0000
  H   H654      1.0  0.49153  0.47339  0.11146  1.0000
  H   H655      1.0  0.46653  0.46222  0.05994  1.0000
  H   H656      1.0  0.45829  0.48557  0.07679  1.0000
  H   H657      1.0  0.40695  0.46008  0.45590  1.0000
  S   S161      1.0  0.51058  0.29312  0.02348  1.0000
  H   H658      1.0  0.41363  0.27946  0.18527  1.0000
  H   H659      1.0  0.62581  0.29973  0.08717  1.0000
  H   H660      1.0  0.47712  0.47781  0.15630  1.0000
  C   C418      1.0  0.39484  0.44632  0.02493  1.0000
  H   H661      1.0  0.35667  0.29119  0.41169  1.0000
  N   N42       1.0  0.57741  0.35066  0.04922  1.0000
  H   H662      1.0  0.38856  0.28350  0.03792  1.0000
  H   H663      1.0  0.60195  0.33484  0.06626  1.0000
  H   H664      1.0  0.53850  0.34942  0.05987  1.0000
  H   H665      1.0  0.46014  0.44933  0.09377  1.0000
  N   N43       1.0  0.45287  0.46915  0.11469  1.0000
  H   H666      1.0  0.58465  0.34231  0.10477  1.0000
  H   H667      1.0  0.43540  0.45781  0.07027  1.0000
  C   C419      1.0  0.59707  0.36062  0.05183  1.0000
  C   C420      1.0  0.43486  0.46496  0.14380  1.0000
  H   H668      1.0  0.45085  0.26924  0.01747  1.0000
  C   C421      1.0  0.58374  0.33932  0.07407  1.0000
  S   S162      1.0  0.37564  0.26291  0.23933  1.0000
  H   H669      1.0  0.48276  0.26397  0.14325  1.0000
  H   H670      1.0  0.40049  0.47967  0.01688  1.0000
  H   H671      1.0  0.41563  0.28794  0.06403  1.0000
  H   H672      1.0  0.42668  0.48177  0.08602  1.0000
  H   H673      1.0  0.44441  0.48993  0.12201  1.0000
  H   H674      1.0  0.37856  0.43022  0.49675  1.0000
  S   S163      1.0  0.57765  0.30284  0.05409  1.0000
  H   H675      1.0  0.43430  0.47194  0.16861  1.0000
  H   H676      1.0  0.55455  0.36027  0.09199  1.0000
  H   H677      1.0  0.43933  0.45493  0.15503  1.0000
  H   H678      1.0  0.41589  0.46461  0.13190  1.0000
  S   S164      1.0  0.37224  0.27259  0.35345  1.0000
  H   H679      1.0  0.56989  0.33130  0.07159  1.0000
  H   H680      1.0  0.48363  0.46070  0.14510  1.0000
  H   H681      1.0  0.45680  0.28586  0.03274  1.0000
  H   H682      1.0  0.38870  0.44580  0.44580  1.0000
  S   S165      1.0  0.44585  0.25638  0.19748  1.0000
  C   C422      1.0  0.47743  0.47029  0.13262  1.0000
  S   S166      1.0  0.44309  0.49715  0.19983  1.0000
  H   H683      1.0  0.56151  0.33793  0.00642  1.0000
  H   H684      1.0  0.42090  0.44377  0.45602  1.0000
  Fe  Fe83      1.0  0.37768  0.25853  0.30265  1.0000
  C   C423      1.0  0.65332  0.31932  0.02104  1.0000
  C   C424      1.0  0.40405  0.44957  0.46396  1.0000
  H   H685      1.0  0.59299  0.36927  0.03319  1.0000
  H   H686      1.0  0.35990  0.45294  0.49680  1.0000
  C   C425      1.0  0.40153  0.45845  0.00916  1.0000
  H   H687      1.0  0.39937  0.43716  0.00998  1.0000
  H   H688      1.0  0.61522  0.35632  0.04261  1.0000
  H   H689      1.0  0.42743  0.30409  0.01610  1.0000
  C   C426      1.0  0.44828  0.27982  0.00961  1.0000
  S   S167      1.0  0.37348  0.50223  0.24580  1.0000
  C   C427      1.0  0.57517  0.34602  0.00909  1.0000
  C   C428      1.0  0.60960  0.31619  0.00642  1.0000
  S   S168      1.0  0.34575  0.47973  0.31830  1.0000
  N   N44       1.0  0.42196  0.28336  0.00457  1.0000
  C   C429      1.0  0.34380  0.46687  0.35281  1.0000
  H   H690      1.0  0.36974  0.39885  0.63655  1.0000
  H   H691      1.0  0.35313  0.37849  0.66648  1.0000
  S   S169      1.0  0.36785  0.44124  0.62331  1.0000
  Fe  Fe84      1.0  0.42776  0.44285  0.92360  1.0000
  S   S170      1.0  0.46085  0.42912  0.92511  1.0000
  S   S171      1.0  0.41888  0.45948  0.96637  1.0000
  Fe  Fe85      1.0  0.41194  0.43351  0.84305  1.0000
  S   S172      1.0  0.44389  0.41918  0.83812  1.0000
  S   S173      1.0  0.37776  0.43562  0.80494  1.0000
  Fe  Fe86      1.0  0.43610  0.41376  0.89917  1.0000
  S   S174      1.0  0.43311  0.39174  0.91162  1.0000
  Fe  Fe87      1.0  0.46683  0.43545  0.86416  1.0000
  S   S175      1.0  0.50683  0.43728  0.84597  1.0000
  S   S176      1.0  0.40235  0.42697  0.90277  1.0000
  S   S177      1.0  0.43553  0.45029  0.86409  1.0000
  H   H692      1.0  0.45442  0.27688  0.70808  1.0000
  S   S178      1.0  0.55609  0.49235  0.80560  1.0000
  H   H693      1.0  0.47337  0.26129  0.89619  1.0000
  S   S179      1.0  0.62970  0.48680  0.77966  1.0000
  C   C430      1.0  0.41901  0.45325  0.52853  1.0000
  Fe  Fe88      1.0  0.50224  0.30140  0.96529  1.0000
  H   H694      1.0  0.63439  0.32806  0.97304  1.0000
  S   S180      1.0  0.49569  0.28551  0.92008  1.0000
  H   H695      1.0  0.56882  0.35413  0.98989  1.0000
  Fe  Fe89      1.0  0.59717  0.49614  0.81013  1.0000
  S   S181      1.0  0.53474  0.31516  0.96606  1.0000
  H   H696      1.0  0.42274  0.46386  0.52260  1.0000
  S   S182      1.0  0.39496  0.27401  0.83487  1.0000
  H   H697      1.0  0.45906  0.28152  0.98299  1.0000
  C   C431      1.0  0.41130  0.27492  0.97413  1.0000
  H   H698      1.0  0.43623  0.44747  0.52265  1.0000
  C   C432      1.0  0.49465  0.37684  0.96420  1.0000
  C   C433      1.0  0.46646  0.28235  0.90023  1.0000
  C   C434      1.0  0.46051  0.26928  0.88999  1.0000
  C   C435      1.0  0.43806  0.26649  0.87170  1.0000
  C   C436      1.0  0.42184  0.27682  0.86210  1.0000
  C   C437      1.0  0.42750  0.28985  0.87324  1.0000
  C   C438      1.0  0.44969  0.29261  0.89244  1.0000
  Fe  Fe90      1.0  0.38625  0.25456  0.80442  1.0000
  N   N45       1.0  0.46474  0.26696  0.76008  1.0000
  H   H699      1.0  0.41495  0.29789  0.86612  1.0000
  H   H700      1.0  0.45422  0.30273  0.89989  1.0000
  C   C439      1.0  0.45521  0.38105  0.93309  1.0000
  C   C440      1.0  0.47697  0.38580  0.94933  1.0000
  H   H701      1.0  0.37412  0.39544  0.70651  1.0000
  C   C441      1.0  0.49049  0.36310  0.96373  1.0000
  C   C442      1.0  0.46852  0.35839  0.94815  1.0000
  C   C443      1.0  0.45103  0.36732  0.93280  1.0000
  H   H702      1.0  0.34906  0.43602  0.92578  1.0000
  C   C444      1.0  0.44740  0.26931  0.72813  1.0000
  H   H703      1.0  0.46507  0.34785  0.94762  1.0000
  H   H704      1.0  0.43418  0.36356  0.92050  1.0000
  H   H705      1.0  0.51149  0.38059  0.97652  1.0000
  H   H706      1.0  0.42909  0.27286  0.73890  1.0000
  C   C445      1.0  0.36864  0.45782  0.89503  1.0000
  C   C446      1.0  0.52030  0.45283  0.83681  1.0000
  C   C447      1.0  0.50589  0.46428  0.83174  1.0000
  C   C448      1.0  0.51715  0.47633  0.82242  1.0000
  C   C449      1.0  0.54289  0.47709  0.81872  1.0000
  C   C450      1.0  0.55736  0.46572  0.82472  1.0000
  C   C451      1.0  0.54606  0.45362  0.83337  1.0000
  H   H707      1.0  0.48605  0.46379  0.83409  1.0000
  H   H708      1.0  0.50581  0.48506  0.81763  1.0000
  H   H709      1.0  0.57719  0.46618  0.82178  1.0000
  H   H710      1.0  0.55736  0.44481  0.83715  1.0000
  C   C452      1.0  0.37034  0.43965  0.67384  1.0000
  C   C453      1.0  0.39384  0.43874  0.69076  1.0000
  C   C454      1.0  0.39652  0.43745  0.73079  1.0000
  C   C455      1.0  0.37567  0.43717  0.75437  1.0000
  H   H711      1.0  0.34760  0.39709  0.73722  1.0000
  H   H712      1.0  0.64379  0.47900  0.93882  1.0000
  H   H713      1.0  0.41009  0.43907  0.67283  1.0000
  H   H714      1.0  0.41471  0.43678  0.74341  1.0000
  H   H715      1.0  0.63745  0.48031  0.98930  1.0000
  C   C456      1.0  0.35605  0.40064  0.71019  1.0000
  Fe  Fe91      1.0  0.50823  0.33010  0.99257  1.0000
  H   H716      1.0  0.48007  0.39636  0.95056  1.0000
  C   C457      1.0  0.39395  0.43428  0.51418  1.0000
  C   C458      1.0  0.48889  0.26252  0.74466  1.0000
  H   H717      1.0  0.47523  0.28740  0.76497  1.0000
  S   S183      1.0  0.66860  0.47023  0.86346  1.0000
  H   H718      1.0  0.39155  0.27745  0.96896  1.0000
  S   S184      1.0  0.51359  0.35221  0.98173  1.0000
  H   H719      1.0  0.36073  0.28850  0.54464  1.0000
  H   H720      1.0  0.46674  0.25497  0.81066  1.0000
  C   C459      1.0  0.64098  0.48617  0.96307  1.0000
  C   C460      1.0  0.37586  0.45627  0.51424  1.0000
  H   H721      1.0  0.44420  0.26003  0.71132  1.0000
  S   S185      1.0  0.61495  0.49538  0.86796  1.0000
  H   H722      1.0  0.49698  0.27011  0.72568  1.0000
  H   H723      1.0  0.59307  0.34218  0.99777  1.0000
  N   N46       1.0  0.51207  0.39602  0.84620  1.0000
  C   C461      1.0  0.53510  0.38805  0.84408  1.0000
  C   C462      1.0  0.51260  0.40459  0.88078  1.0000
  C   C463      1.0  0.49073  0.38709  0.84828  1.0000
  C   C464      1.0  0.50992  0.40439  0.81177  1.0000
  H   H724      1.0  0.53536  0.38148  0.81826  1.0000
  H   H725      1.0  0.53723  0.38160  0.86966  1.0000
  H   H726      1.0  0.55155  0.39451  0.84269  1.0000
  H   H727      1.0  0.49511  0.41040  0.88397  1.0000
  H   H728      1.0  0.51519  0.39869  0.90723  1.0000
  H   H729      1.0  0.52776  0.41191  0.87939  1.0000
  H   H730      1.0  0.47306  0.39275  0.85156  1.0000
  H   H731      1.0  0.49219  0.38033  0.87323  1.0000
  H   H732      1.0  0.48917  0.38079  0.82210  1.0000
  H   H733      1.0  0.49283  0.41060  0.81261  1.0000
  H   H734      1.0  0.50949  0.39832  0.78501  1.0000
  H   H735      1.0  0.52557  0.41139  0.80963  1.0000
  H   H736      1.0  0.37125  0.46873  0.89391  1.0000
  N   N47       1.0  0.39825  0.44835  0.50518  1.0000
  Fe  Fe92      1.0  0.64873  0.48785  0.83698  1.0000
  H   H737      1.0  0.41052  0.42800  0.50808  1.0000
  H   H738      1.0  0.59386  0.31803  0.98814  1.0000
  H   H739      1.0  0.35994  0.41137  0.71421  1.0000
  H   H740      1.0  0.37847  0.45416  0.92083  1.0000
  H   H741      1.0  0.42114  0.27619  0.94650  1.0000
  H   H742      1.0  0.43350  0.25637  0.86446  1.0000
  C   C465      1.0  0.46760  0.27933  0.78266  1.0000
  S   S186      1.0  0.38666  0.25383  0.73997  1.0000
  H   H743      1.0  0.36137  0.26529  0.51964  1.0000
  H   H744      1.0  0.62397  0.49204  0.95674  1.0000
  H   H745      1.0  0.48010  0.27784  0.80765  1.0000
  H   H746      1.0  0.40007  0.30047  0.98932  1.0000
  C   C466      1.0  0.45490  0.25657  0.78505  1.0000
  C   C467      1.0  0.34950  0.43929  0.69740  1.0000
  C   C468      1.0  0.41966  0.29744  0.99358  1.0000
  S   S187      1.0  0.47522  0.31688  0.98667  1.0000
  H   H747      1.0  0.34887  0.43456  0.87451  1.0000
  H   H748      1.0  0.44953  0.28289  0.79436  1.0000
  C   C469      1.0  0.63260  0.32178  0.99782  1.0000
  H   H749      1.0  0.37804  0.45338  0.86954  1.0000
  H   H750      1.0  0.42972  0.29940  0.96647  1.0000
  H   H751      1.0  0.41493  0.45243  0.55977  1.0000
  N   N48       1.0  0.66254  0.49484  0.96793  1.0000
  H   H752      1.0  0.36135  0.26916  0.58980  1.0000
  C   C470      1.0  0.35217  0.43811  0.73743  1.0000
  H   H753      1.0  0.66934  0.49523  0.90738  1.0000
  H   H754      1.0  0.37070  0.45540  0.54504  1.0000
  C   C471      1.0  0.35146  0.40361  0.64203  1.0000
  H   H755      1.0  0.38905  0.43303  0.54495  1.0000
  H   H756      1.0  0.50227  0.26050  0.76815  1.0000
  H   H757      1.0  0.43599  0.25922  0.79501  1.0000
  H   H758      1.0  0.35423  0.41449  0.64433  1.0000
  H   H759      1.0  0.41262  0.26423  0.98149  1.0000
  H   H760      1.0  0.37843  0.46697  0.50815  1.0000
  C   C472      1.0  0.66675  0.50214  0.93209  1.0000
  H   H761      1.0  0.48708  0.25318  0.72751  1.0000
  Fe  Fe93      1.0  0.52930  0.55575  0.16161  1.0000
  S   S188      1.0  0.56205  0.54199  0.16102  1.0000
  S   S189      1.0  0.49351  0.55350  0.19397  1.0000
  Fe  Fe94      1.0  0.55371  0.57591  0.11029  1.0000
  S   S190      1.0  0.58898  0.56385  0.10565  1.0000
  S   S191      1.0  0.54291  0.59322  0.07219  1.0000
  Fe  Fe95      1.0  0.56454  0.54626  0.09786  1.0000
  S   S192      1.0  0.56907  0.52898  0.05592  1.0000
  Fe  Fe96      1.0  0.58418  0.56047  0.16929  1.0000
  S   S193      1.0  0.61731  0.55901  0.20912  1.0000
  S   S194      1.0  0.52963  0.55842  0.09815  1.0000
  S   S195      1.0  0.55111  0.57409  0.17443  1.0000
  H   H762      1.0  0.58313  0.54151  0.29485  1.0000
  S   S196      1.0  0.61912  0.56540  0.39103  1.0000
  Fe  Fe97      1.0  0.50428  0.66923  0.08289  1.0000
  S   S197      1.0  0.47309  0.68312  0.09999  1.0000
  S   S198      1.0  0.51797  0.65267  0.12167  1.0000
  Fe  Fe98      1.0  0.65043  0.55827  0.42981  1.0000
  S   S199      1.0  0.48823  0.70096  0.02457  1.0000
  Fe  Fe99      1.0  0.49961  0.69946  0.08650  1.0000
  S   S200      1.0  0.50713  0.71848  0.11962  1.0000
  Fe  Fe100     1.0  0.46415  0.68337  0.03684  1.0000
  H   H763      1.0  0.48886  0.50561  0.16845  1.0000
  S   S201      1.0  0.53112  0.68565  0.07431  1.0000
  S   S202      1.0  0.64963  0.74752  0.25767  1.0000
  Fe  Fe101     1.0  0.61122  0.73939  0.26219  1.0000
  H   H764      1.0  0.67381  0.51108  0.00390  1.0000
  S   S203      1.0  0.59880  0.72051  0.23269  1.0000
  H   H765      1.0  0.54831  0.55860  0.29105  1.0000
  C   C473      1.0  0.53871  0.55151  0.27178  1.0000
  S   S204      1.0  0.61137  0.73954  0.32658  1.0000
  H   H766      1.0  0.60080  0.63892  0.06400  1.0000
  N   N49       1.0  0.54521  0.53763  0.28104  1.0000
  C   C474      1.0  0.58494  0.66390  0.04867  1.0000
  C   C475      1.0  0.39673  0.68134  0.02649  1.0000
  H   H767      1.0  0.53532  0.51802  0.26209  1.0000
  C   C476      1.0  0.36721  0.68824  0.07563  1.0000
  H   H768      1.0  0.34666  0.72445  0.00087  1.0000
  H   H769      1.0  0.66361  0.69862  0.37582  1.0000
  H   H770      1.0  0.40674  0.69082  0.07962  1.0000
  C   C477      1.0  0.53870  0.72391  0.02122  1.0000
  H   H771      1.0  0.65649  0.72086  0.34798  1.0000
  H   H772      1.0  0.52512  0.72379  0.04512  1.0000
  H   H773      1.0  0.51373  0.72325  0.34374  1.0000
  C   C478      1.0  0.53279  0.71895  0.15067  1.0000
  C   C479      1.0  0.54456  0.70731  0.16274  1.0000
  C   C480      1.0  0.56493  0.70797  0.18756  1.0000
  C   C481      1.0  0.57372  0.72024  0.20047  1.0000
  C   C482      1.0  0.56214  0.73190  0.18804  1.0000
  C   C483      1.0  0.54167  0.73124  0.16334  1.0000
  H   H774      1.0  0.53775  0.69777  0.15350  1.0000
  H   H775      1.0  0.57378  0.69890  0.19709  1.0000
  H   H776      1.0  0.56891  0.74142  0.19748  1.0000
  H   H777      1.0  0.53267  0.74030  0.15406  1.0000
  C   C484      1.0  0.61743  0.56100  0.25962  1.0000
  C   C485      1.0  0.63751  0.55594  0.28061  1.0000
  C   C486      1.0  0.63827  0.55717  0.32084  1.0000
  C   C487      1.0  0.61897  0.56356  0.34047  1.0000
  C   C488      1.0  0.59901  0.56879  0.31947  1.0000
  C   C489      1.0  0.59824  0.56754  0.27919  1.0000
  H   H778      1.0  0.65250  0.55094  0.26567  1.0000
  H   H779      1.0  0.65374  0.55310  0.33662  1.0000
  H   H780      1.0  0.58412  0.57387  0.33443  1.0000
  H   H781      1.0  0.58300  0.57174  0.26323  1.0000
  C   C490      1.0  0.53503  0.60948  0.08734  1.0000
  C   C491      1.0  0.54044  0.61414  0.12418  1.0000
  C   C492      1.0  0.53449  0.62732  0.13456  1.0000
  C   C493      1.0  0.52296  0.63589  0.10836  1.0000
  C   C494      1.0  0.51688  0.63109  0.07192  1.0000
  C   C495      1.0  0.52319  0.61799  0.06132  1.0000
  H   H782      1.0  0.54962  0.60768  0.14440  1.0000
  H   H783      1.0  0.53921  0.63097  0.16286  1.0000
  H   H784      1.0  0.50746  0.63750  0.05182  1.0000
  H   H785      1.0  0.51881  0.61442  0.03282  1.0000
  Fe  Fe102     1.0  0.64788  0.74947  0.32192  1.0000
  H   H786      1.0  0.58389  0.73935  0.07134  1.0000
  C   C496      1.0  0.53903  0.53506  0.32154  1.0000
  H   H787      1.0  0.55405  0.73292  0.32431  1.0000
  H   H788      1.0  0.60048  0.72825  0.01240  1.0000
  C   C497      1.0  0.54745  0.73181  0.29425  1.0000
  H   H789      1.0  0.53531  0.53029  0.22522  1.0000
  C   C498      1.0  0.57194  0.53535  0.27494  1.0000
  C   C499      1.0  0.67062  0.71947  0.36949  1.0000
  H   H790      1.0  0.51284  0.71315  0.30103  1.0000
  C   C500      1.0  0.44353  0.52443  0.20981  1.0000
  C   C501      1.0  0.45514  0.53682  0.20867  1.0000
  C   C502      1.0  0.47875  0.53800  0.19263  1.0000
  C   C503      1.0  0.49062  0.52675  0.17738  1.0000
  C   C504      1.0  0.53108  0.52861  0.25595  1.0000
  H   H791      1.0  0.42544  0.52357  0.22260  1.0000
  H   H792      1.0  0.44586  0.54548  0.22061  1.0000
  H   H793      1.0  0.50870  0.52756  0.16460  1.0000
  C   C505      1.0  0.51342  0.74679  0.30793  1.0000
  C   C506      1.0  0.37694  0.67659  0.00444  1.0000
  H   H794      1.0  0.64949  0.60472  0.32615  1.0000
  N   N50       1.0  0.56409  0.72566  0.03552  1.0000
  H   H795      1.0  0.54385  0.55391  0.24177  1.0000
  C   C507      1.0  0.45575  0.51311  0.19569  1.0000
  H   H796      1.0  0.59733  0.55024  0.02119  1.0000
  Fe  Fe103     1.0  0.51851  0.68610  0.01324  1.0000
  H   H797      1.0  0.51874  0.72351  0.23714  1.0000
  H   H798      1.0  0.54370  0.52467  0.32951  1.0000
  C   C508      1.0  0.39174  0.68709  0.06236  1.0000
  H   H799      1.0  0.49251  0.73400  0.24767  1.0000
  C   C509      1.0  0.65491  0.59765  0.42078  1.0000
  H   H800      1.0  0.60480  0.66360  0.05651  1.0000
  H   H801      1.0  0.63025  0.59441  0.35486  1.0000
  H   H802      1.0  0.52123  0.74120  0.23417  1.0000
  H   H803      1.0  0.57056  0.64186  0.08335  1.0000
  C   C510      1.0  0.51286  0.73306  0.25088  1.0000
  H   H804      1.0  0.57121  0.70475  0.04116  1.0000
  H   H805      1.0  0.57764  0.53791  0.24525  1.0000
  H   H806      1.0  0.54939  0.54172  0.34128  1.0000
  H   H807      1.0  0.51850  0.55343  0.27452  1.0000
  C   C511      1.0  0.57134  0.71405  0.05867  1.0000
  H   H808      1.0  0.55840  0.71267  0.08300  1.0000
  H   H809      1.0  0.65722  0.72677  0.48656  1.0000
  C   C512      1.0  0.64320  0.60292  0.35599  1.0000
  H   H810      1.0  0.66549  0.57933  0.36696  1.0000
  H   H811      1.0  0.64190  0.58921  0.42109  1.0000
  H   H812      1.0  0.55731  0.73923  0.27689  1.0000
  H   H813      1.0  0.57420  0.66575  0.07551  1.0000
  H   H814      1.0  0.55220  0.73718  0.08437  1.0000
  C   C513      1.0  0.34742  0.68352  0.05354  1.0000
  C   C514      1.0  0.59774  0.54173  0.00209  1.0000
  C   C515      1.0  0.47930  0.51432  0.17944  1.0000
  H   H815      1.0  0.59014  0.71515  0.07095  1.0000
  H   H816      1.0  0.51900  0.53671  0.32715  1.0000
  C   C516      1.0  0.67473  0.70686  0.38525  1.0000
  H   H817      1.0  0.57732  0.52482  0.27981  1.0000
  H   H818      1.0  0.63054  0.71695  0.49670  1.0000
  H   H819      1.0  0.49334  0.74887  0.30488  1.0000
  N   N51       1.0  0.52044  0.73370  0.29153  1.0000
  H   H820      1.0  0.36355  0.69289  0.10316  1.0000
  C   C517      1.0  0.65785  0.50442  0.99954  1.0000
  C   C518      1.0  0.35247  0.67754  0.01800  1.0000
  N   N52       1.0  0.46987  0.58673  0.11952  1.0000
  C   C519      1.0  0.46175  0.57291  0.12438  1.0000
  C   C520      1.0  0.49135  0.58921  0.14445  1.0000
  C   C521      1.0  0.44958  0.59598  0.13020  1.0000
  C   C522      1.0  0.47690  0.58884  0.07911  1.0000
  H   H821      1.0  0.44574  0.57059  0.10573  1.0000
  H   H822      1.0  0.45631  0.57095  0.15457  1.0000
  H   H823      1.0  0.47680  0.56568  0.11718  1.0000
  H   H824      1.0  0.49718  0.59973  0.14313  1.0000
  H   H825      1.0  0.48738  0.58684  0.17492  1.0000
  H   H826      1.0  0.50744  0.58302  0.13540  1.0000
  H   H827      1.0  0.45512  0.60650  0.12659  1.0000
  H   H828      1.0  0.44407  0.59473  0.16069  1.0000
  H   H829      1.0  0.43298  0.59435  0.11213  1.0000
  H   H830      1.0  0.46115  0.58718  0.05934  1.0000
  H   H831      1.0  0.49220  0.58200  0.07011  1.0000
  H   H832      1.0  0.48353  0.59911  0.07462  1.0000
  S   S205      1.0  0.65670  0.57064  0.48288  1.0000
  H   H833      1.0  0.63251  0.61180  0.36588  1.0000
  C   C523      1.0  0.50809  0.72314  0.31306  1.0000
  C   C524      1.0  0.56507  0.73778  0.05956  1.0000
  C   C525      1.0  0.58543  0.53019  0.01227  1.0000
  C   C526      1.0  0.55103  0.65249  0.01925  1.0000
  S   S206      1.0  0.65369  0.53912  0.46225  1.0000
  H   H834      1.0  0.48768  0.72435  0.31202  1.0000
  S   S207      1.0  0.49401  0.66844  0.02062  1.0000
  H   H835      1.0  0.51082  0.53016  0.25951  1.0000
  H   H836      1.0  0.55347  0.72185  0.28342  1.0000
  H   H837      1.0  0.51799  0.74744  0.33900  1.0000
  C   C527      1.0  0.58105  0.64025  0.05621  1.0000
  H   H838      1.0  0.64494  0.60648  0.43268  1.0000
  H   H839      1.0  0.57460  0.63073  0.04346  1.0000
  H   H840      1.0  0.65559  0.71005  0.46907  1.0000
  H   H841      1.0  0.55975  0.74674  0.04297  1.0000
  S   S208      1.0  0.42705  0.68038  0.00710  1.0000
  N   N53       1.0  0.66422  0.60006  0.38171  1.0000
  N   N54       1.0  0.57734  0.65145  0.02968  1.0000
  H   H842      1.0  0.53949  0.65467  0.04493  1.0000
  H   H843      1.0  0.54427  0.64314  0.00602  1.0000
  H   H844      1.0  0.67170  0.62059  0.39347  1.0000
  H   H845      1.0  0.53306  0.73199  0.00148  1.0000
  H   H846      1.0  0.58177  0.67259  0.02972  1.0000
  H   H847      1.0  0.53692  0.71436  0.00546  1.0000
  C   C528      1.0  0.58115  0.72682  0.00269  1.0000
  H   H848      1.0  0.67028  0.59526  0.44079  1.0000
  H   H849      1.0  0.61217  0.64842  0.00122  1.0000
  H   H850      1.0  0.34325  0.70807  0.01938  1.0000
  C   C529      1.0  0.65097  0.71664  0.49397  1.0000
  S   S209      1.0  0.60901  0.51705  0.79790  1.0000
  H   H851      1.0  0.59918  0.51131  0.93305  1.0000
  C   C530      1.0  0.65586  0.72052  0.56215  1.0000
  Fe  Fe104     1.0  0.62872  0.51557  0.85439  1.0000
  S   S210      1.0  0.62759  0.53238  0.89821  1.0000
  H   H852      1.0  0.53575  0.50353  0.87963  1.0000
  H   H853      1.0  0.55535  0.75235  0.77696  1.0000
  H   H854      1.0  0.62020  0.55121  0.95953  1.0000
  C   C531      1.0  0.59898  0.51976  0.95217  1.0000
  H   H855      1.0  0.66460  0.71706  0.58927  1.0000
  H   H856      1.0  0.66343  0.69420  0.56369  1.0000
  H   H857      1.0  0.63445  0.69769  0.54089  1.0000
  H   H858      1.0  0.56140  0.53573  0.91367  1.0000
  C   C532      1.0  0.51639  0.52809  0.89112  1.0000
  Fe  Fe105     1.0  0.59588  0.73624  0.81319  1.0000
  S   S211      1.0  0.63222  0.72542  0.81557  1.0000
  S   S212      1.0  0.56080  0.73296  0.84748  1.0000
  Fe  Fe106     1.0  0.64913  0.74571  0.81579  1.0000
  Fe  Fe107     1.0  0.63301  0.72723  0.75124  1.0000
  H   H859      1.0  0.50927  0.53784  0.88096  1.0000
  H   H860      1.0  0.65083  0.50874  0.92517  1.0000
  S   S213      1.0  0.59495  0.73629  0.74861  1.0000
  C   C533      1.0  0.54885  0.51157  0.88712  1.0000
  H   H861      1.0  0.67494  0.57307  0.56803  1.0000
  H   H862      1.0  0.58090  0.71775  0.98425  1.0000
  H   H863      1.0  0.62595  0.53265  0.70066  1.0000
  C   C534      1.0  0.55829  0.72009  0.88145  1.0000
  C   C535      1.0  0.53598  0.71859  0.90136  1.0000
  C   C536      1.0  0.53331  0.70853  0.92869  1.0000
  C   C537      1.0  0.55303  0.69990  0.93658  1.0000
  C   C538      1.0  0.57532  0.70136  0.91660  1.0000
  C   C539      1.0  0.57798  0.71143  0.88923  1.0000
  H   H864      1.0  0.52059  0.72518  0.89535  1.0000
  H   H865      1.0  0.51592  0.70740  0.94343  1.0000
  H   H866      1.0  0.59067  0.69472  0.92237  1.0000
  H   H867      1.0  0.59523  0.71244  0.87405  1.0000
  C   C540      1.0  0.65767  0.52269  0.67636  1.0000
  C   C541      1.0  0.63797  0.53179  0.67599  1.0000
  H   H868      1.0  0.53014  0.53333  0.81883  1.0000
  C   C542      1.0  0.64943  0.53897  0.61136  1.0000
  H   H869      1.0  0.58954  0.65753  0.97404  1.0000
  H   H870      1.0  0.67168  0.58175  0.65179  1.0000
  H   H871      1.0  0.51827  0.52875  0.92288  1.0000
  H   H872      1.0  0.50218  0.52053  0.88459  1.0000
  H   H873      1.0  0.55462  0.52121  0.81605  1.0000
  S   S214      1.0  0.64303  0.70959  0.71312  1.0000
  C   C543      1.0  0.67313  0.52177  0.64395  1.0000
  H   H874      1.0  0.56688  0.50869  0.87413  1.0000
  H   H875      1.0  0.65993  0.69128  0.51307  1.0000
  H   H876      1.0  0.61884  0.54701  0.64402  1.0000
  H   H877      1.0  0.35609  0.71020  0.97264  1.0000
  H   H878      1.0  0.55118  0.51171  0.91879  1.0000
  C   C544      1.0  0.63401  0.53993  0.64379  1.0000
  C   C545      1.0  0.66895  0.52976  0.61153  1.0000
  C   C546      1.0  0.53693  0.52378  0.83076  1.0000
  C   C547      1.0  0.55859  0.53477  0.88216  1.0000
  H   H879      1.0  0.66404  0.56579  0.63277  1.0000
  H   H880      1.0  0.38062  0.67206  0.97676  1.0000
  C   C548      1.0  0.65478  0.69815  0.53710  1.0000
  H   H881      1.0  0.52365  0.51592  0.82250  1.0000
  C   C549      1.0  0.61139  0.53127  0.94206  1.0000
  H   H882      1.0  0.57601  0.73534  0.98413  1.0000
  C   C550      1.0  0.59215  0.64922  0.99458  1.0000
  C   C551      1.0  0.61071  0.54224  0.96716  1.0000
  H   H883      1.0  0.57662  0.51026  0.99483  1.0000
  N   N55       1.0  0.54018  0.52456  0.87278  1.0000
  C   C552      1.0  0.67387  0.69721  0.66149  1.0000
  S   S215      1.0  0.64446  0.55011  0.57265  1.0000
  H   H884      1.0  0.55291  0.54468  0.87133  1.0000
  H   H885      1.0  0.57687  0.53228  0.86916  1.0000
  H   H886      1.0  0.63557  0.72069  0.56690  1.0000
  Fe  Fe108     1.0  0.64308  0.50774  0.77152  1.0000
  S   S216      1.0  0.66459  0.51267  0.71686  1.0000
  S   S217      1.0  0.65250  0.74667  0.75164  1.0000
  H   H887      1.0  0.66233  0.68866  0.66553  1.0000
  Fe  Fe109     1.0  0.66340  0.55143  0.51414  1.0000
  C   C553      1.0  0.58614  0.51922  0.98715  1.0000
  S   S218      1.0  0.66407  0.50807  0.82755  1.0000
  S   S219      1.0  0.55102  0.68754  0.97223  1.0000
  N   N56       1.0  0.66283  0.71182  0.52945  1.0000
  H   H888      1.0  0.58673  0.63991  0.97955  1.0000
  C   C554      1.0  0.66837  0.70907  0.68128  1.0000
  H   H889      1.0  0.64149  0.51086  0.99351  1.0000
  H   H890      1.0  0.66187  0.73089  0.55756  1.0000
  H   H891      1.0  0.52542  0.74704  0.79082  1.0000
  H   H892      1.0  0.54760  0.66059  0.99840  1.0000
  Fe  Fe110     1.0  0.63049  0.76740  0.25736  1.0000
  H   H893      1.0  0.51201  0.78863  0.45297  1.0000
  H   H894      1.0  0.66024  0.88109  0.12675  1.0000
  H   H895      1.0  0.60441  0.98582  0.17620  1.0000
  S   S220      1.0  0.64027  0.78442  0.21808  1.0000
  H   H896      1.0  0.60710  0.89775  0.07879  1.0000
  H   H897      1.0  0.52352  0.75495  0.29372  1.0000
  Fe  Fe111     1.0  0.58492  0.99194  0.33897  1.0000
  S   S221      1.0  0.59928  0.97101  0.33081  1.0000
  N   N57       1.0  0.64275  0.89884  0.10565  1.0000
  C   C555      1.0  0.66572  0.78409  0.18611  1.0000
  S   S222      1.0  0.65252  0.98187  0.36095  1.0000
  Fe  Fe112     1.0  0.63262  0.98027  0.30431  1.0000
  S   S223      1.0  0.65412  0.97614  0.24866  1.0000
  Fe  Fe113     1.0  0.61756  0.97439  0.38805  1.0000
  S   S224      1.0  0.61875  0.95803  0.43257  1.0000
  C   C556      1.0  0.60479  0.96016  0.47823  1.0000
  H   H898      1.0  0.57836  0.97623  0.16203  1.0000
  N   N58       1.0  0.57189  0.98920  0.21047  1.0000
  H   H899      1.0  0.51952  0.77004  0.40710  1.0000
  S   S225      1.0  0.60091  0.99468  0.39779  1.0000
  S   S226      1.0  0.63283  0.94016  0.10022  1.0000
  C   C557      1.0  0.64757  0.96611  0.20764  1.0000
  H   H900      1.0  0.60866  0.94252  0.17324  1.0000
  C   C558      1.0  0.58392  0.98611  0.17333  1.0000
  C   C559      1.0  0.63893  0.95041  0.14094  1.0000
  C   C560      1.0  0.62373  0.94943  0.17353  1.0000
  C   C561      1.0  0.62804  0.95719  0.20672  1.0000
  H   H901      1.0  0.58733  0.97893  0.46602  1.0000
  H   H902      1.0  0.61659  0.95604  0.23180  1.0000
  H   H903      1.0  0.62935  0.91385  0.14483  1.0000
  S   S227      1.0  0.59211  0.75913  0.25746  1.0000
  C   C562      1.0  0.57970  0.00240  0.22424  1.0000
  H   H904      1.0  0.56966  0.98073  0.26649  1.0000
  H   H905      1.0  0.59940  0.97922  0.24423  1.0000
  C   C563      1.0  0.55569  0.77651  0.39049  1.0000
  C   C564      1.0  0.53355  0.77743  0.41138  1.0000
  C   C565      1.0  0.52926  0.78794  0.43750  1.0000
  C   C566      1.0  0.54710  0.79766  0.44295  1.0000
  C   C567      1.0  0.56928  0.79671  0.42218  1.0000
  C   C568      1.0  0.57361  0.78617  0.39611  1.0000
  H   H906      1.0  0.57452  0.96890  0.22859  1.0000
  H   H907      1.0  0.58314  0.80422  0.42613  1.0000
  H   H908      1.0  0.59068  0.78561  0.38011  1.0000
  S   S228      1.0  0.61694  0.00096  0.30891  1.0000
  C   C569      1.0  0.54479  0.98921  0.20597  1.0000
  H   H909      1.0  0.53853  0.99671  0.18480  1.0000
  C   C570      1.0  0.67168  0.79565  0.16619  1.0000
  Fe  Fe114     1.0  0.59463  0.75994  0.32186  1.0000
  H   H910      1.0  0.62162  0.91355  0.07529  1.0000
  S   S229      1.0  0.63125  0.77006  0.32168  1.0000
  C   C571      1.0  0.58997  0.97123  0.48700  1.0000
  Fe  Fe115     1.0  0.65358  0.93844  0.04284  1.0000
  S   S230      1.0  0.54272  0.81090  0.47608  1.0000
  H   H911      1.0  0.37346  0.79857  0.47282  1.0000
  H   H912      1.0  0.67617  0.76377  0.19621  1.0000
  C   C572      1.0  0.57921  0.97906  0.23864  1.0000
  S   S231      1.0  0.54535  0.99629  0.32210  1.0000
  H   H913      1.0  0.53815  0.97935  0.19618  1.0000
  H   H914      1.0  0.63235  0.89986  0.04627  1.0000
  C   C573      1.0  0.63256  0.90289  0.14334  1.0000
  S   S232      1.0  0.56016  0.76306  0.35810  1.0000
  Fe  Fe116     1.0  0.63457  0.00194  0.36705  1.0000
  H   H915      1.0  0.66014  0.80443  0.16946  1.0000
  H   H916      1.0  0.54612  0.91434  0.45357  1.0000
  C   C574      1.0  0.54395  0.92521  0.45870  1.0000
  H   H917      1.0  0.66401  0.91653  0.10073  1.0000
  H   H918      1.0  0.64537  0.90026  0.16705  1.0000
  H   H919      1.0  0.50123  0.92510  0.49816  1.0000
  H   H920      1.0  0.56078  0.93006  0.44737  1.0000
  C   C575      1.0  0.65844  0.95932  0.14189  1.0000
  C   C576      1.0  0.66270  0.96711  0.17502  1.0000
  H   H921      1.0  0.67032  0.96019  0.11714  1.0000
  H   H922      1.0  0.67195  0.99987  0.28309  1.0000
  C   C577      1.0  0.62517  0.90265  0.07519  1.0000
  H   H923      1.0  0.56382  0.77293  0.48066  1.0000
  H   H924      1.0  0.52802  0.92880  0.44139  1.0000
  H   H925      1.0  0.55387  0.94804  0.49332  1.0000
  H   H926      1.0  0.61459  0.89809  0.14897  1.0000
  C   C578      1.0  0.64689  0.88433  0.10439  1.0000
  H   H927      1.0  0.62943  0.87890  0.10890  1.0000
  H   H928      1.0  0.53538  0.99161  0.23372  1.0000
  H   H929      1.0  0.52106  0.94676  0.49084  1.0000
  H   H930      1.0  0.57911  0.99363  0.15133  1.0000
  H   H931      1.0  0.67446  0.90291  0.07101  1.0000
  H   H932      1.0  0.59059  0.78109  0.49830  1.0000
  H   H933      1.0  0.65455  0.88109  0.07608  1.0000
  C   C579      1.0  0.66642  0.90556  0.09949  1.0000
  H   H934      1.0  0.66762  0.86532  0.00381  1.0000
  C   C580      1.0  0.36991  0.80483  0.49765  1.0000
  S   S233      1.0  0.63585  0.92490  0.99945  1.0000
  C   C581      1.0  0.58542  0.77301  0.57217  1.0000
  C   C582      1.0  0.57786  0.89243  0.67360  1.0000
  Fe  Fe117     1.0  0.45594  0.80896  0.53818  1.0000
  H   H935      1.0  0.53916  0.76392  0.57567  1.0000
  H   H936      1.0  0.37618  0.93607  0.62776  1.0000
  Fe  Fe118     1.0  0.49578  0.79765  0.59210  1.0000
  S   S234      1.0  0.52165  0.81427  0.58076  1.0000
  S   S235      1.0  0.50511  0.77926  0.62657  1.0000
  Fe  Fe119     1.0  0.48824  0.82759  0.58523  1.0000
  S   S236      1.0  0.48787  0.84573  0.62465  1.0000
  C   C583      1.0  0.41452  0.95069  0.65119  1.0000
  S   S237      1.0  0.46273  0.81098  0.60146  1.0000
  S   S238      1.0  0.48700  0.79412  0.53009  1.0000
  H   H937      1.0  0.50182  0.78118  0.81331  1.0000
  S   S239      1.0  0.36460  0.99638  0.65633  1.0000
  H   H938      1.0  0.59879  0.94369  0.56312  1.0000
  C   C584      1.0  0.53985  0.76624  0.83863  1.0000
  Fe  Fe120     1.0  0.54022  0.91764  0.63127  1.0000
  S   S240      1.0  0.57680  0.92751  0.63895  1.0000
  S   S241      1.0  0.53887  0.90065  0.58810  1.0000
  Fe  Fe121     1.0  0.51408  0.93756  0.68466  1.0000
  S   S242      1.0  0.54866  0.94894  0.69666  1.0000
  S   S243      1.0  0.47671  0.94092  0.71236  1.0000
  Fe  Fe122     1.0  0.55554  0.94658  0.63291  1.0000
  S   S244      1.0  0.56467  0.96379  0.59419  1.0000
  Fe  Fe123     1.0  0.56709  0.92887  0.70188  1.0000
  S   S245      1.0  0.59472  0.92059  0.74540  1.0000
  S   S246      1.0  0.51950  0.93666  0.62096  1.0000
  S   S247      1.0  0.53190  0.91759  0.69411  1.0000
  Fe  Fe124     1.0  0.64691  0.93901  0.95362  1.0000
  S   S248      1.0  0.62179  0.94720  0.90682  1.0000
  C   C585      1.0  0.60200  0.92816  0.79019  1.0000
  C   C586      1.0  0.59154  0.94030  0.80171  1.0000
  C   C587      1.0  0.59777  0.94595  0.83750  1.0000
  C   C588      1.0  0.61439  0.93951  0.86229  1.0000
  C   C589      1.0  0.62497  0.92739  0.85074  1.0000
  C   C590      1.0  0.61880  0.92176  0.81486  1.0000
  H   H939      1.0  0.57859  0.94535  0.78310  1.0000
  H   H940      1.0  0.58946  0.95533  0.84613  1.0000
  H   H941      1.0  0.63780  0.92233  0.86946  1.0000
  H   H942      1.0  0.62704  0.91238  0.80622  1.0000
  C   C591      1.0  0.58104  0.96232  0.55040  1.0000
  H   H943      1.0  0.53329  0.76388  0.52524  1.0000
  C   C592      1.0  0.55345  0.78686  0.54535  1.0000
  H   H944      1.0  0.36377  0.96352  0.69571  1.0000
  H   H945      1.0  0.56030  0.89404  0.65793  1.0000
  H   H946      1.0  0.52931  0.75609  0.74702  1.0000
  C   C593      1.0  0.34557  0.80893  0.50618  1.0000
  H   H947      1.0  0.55984  0.89767  0.74374  1.0000
  C   C594      1.0  0.46388  0.95705  0.71506  1.0000
  C   C595      1.0  0.47297  0.96736  0.69282  1.0000
  C   C596      1.0  0.46088  0.97979  0.69310  1.0000
  C   C597      1.0  0.43961  0.98195  0.71536  1.0000
  C   C598      1.0  0.43111  0.97180  0.73867  1.0000
  C   C599      1.0  0.44309  0.95935  0.73826  1.0000
  H   H948      1.0  0.48909  0.96569  0.67502  1.0000
  H   H949      1.0  0.46789  0.98769  0.67558  1.0000
  H   H950      1.0  0.41524  0.97353  0.75694  1.0000
  H   H951      1.0  0.43620  0.95146  0.75592  1.0000
  C   C600      1.0  0.50206  0.86092  0.61369  1.0000
  C   C601      1.0  0.49975  0.87160  0.63971  1.0000
  C   C602      1.0  0.51084  0.88384  0.63218  1.0000
  C   C603      1.0  0.52443  0.88548  0.59854  1.0000
  C   C604      1.0  0.52682  0.87481  0.57257  1.0000
  C   C605      1.0  0.51569  0.86256  0.58008  1.0000
  H   H952      1.0  0.48909  0.87041  0.66564  1.0000
  H   H953      1.0  0.50860  0.89203  0.65217  1.0000
  H   H954      1.0  0.53729  0.87599  0.54646  1.0000
  H   H955      1.0  0.51758  0.85441  0.55985  1.0000
  C   C606      1.0  0.38977  0.80886  0.52069  1.0000
  C   C607      1.0  0.56770  0.86989  0.68878  1.0000
  C   C608      1.0  0.38368  0.96158  0.69064  1.0000
  N   N59       1.0  0.53178  0.76793  0.79848  1.0000
  C   C609      1.0  0.36066  0.82109  0.56117  1.0000
  C   C610      1.0  0.38503  0.81704  0.55252  1.0000
  C   C611      1.0  0.57828  0.97233  0.52297  1.0000
  H   H956      1.0  0.40016  0.82024  0.57039  1.0000
  C   C612      1.0  0.53778  0.94276  0.50533  1.0000
  C   C613      1.0  0.53302  0.77804  0.65216  1.0000
  C   C614      1.0  0.54034  0.76571  0.66693  1.0000
  C   C615      1.0  0.56261  0.76434  0.68717  1.0000
  H   H957      1.0  0.53892  0.78787  0.52311  1.0000
  C   C616      1.0  0.37326  0.94198  0.65448  1.0000
  C   C617      1.0  0.54815  0.78901  0.65767  1.0000
  S   S249      1.0  0.35279  0.98887  0.74618  1.0000
  H   H958      1.0  0.59182  0.88893  0.65231  1.0000
  C   C618      1.0  0.57761  0.77533  0.69303  1.0000
  H   H959      1.0  0.54259  0.79858  0.64668  1.0000
  H   H960      1.0  0.59662  0.87444  0.75020  1.0000
  S   S250      1.0  0.66122  0.95354  0.99756  1.0000
  S   S251      1.0  0.61271  0.75646  0.81797  1.0000
  H   H961      1.0  0.56488  0.86244  0.71161  1.0000
  H   H962      1.0  0.53647  0.94555  0.53628  1.0000
  C   C619      1.0  0.54640  0.77843  0.78035  1.0000
  H   H963      1.0  0.39159  0.97177  0.62075  1.0000
  C   C620      1.0  0.38060  0.96254  0.62176  1.0000
  H   H964      1.0  0.54432  0.78808  0.57369  1.0000
  C   C621      1.0  0.60799  0.95027  0.50600  1.0000
  H   H965      1.0  0.59560  0.76338  0.57069  1.0000
  H   H966      1.0  0.55252  0.88091  0.75570  1.0000
  S   S252      1.0  0.60499  0.77418  0.72001  1.0000
  H   H967      1.0  0.56623  0.79530  0.54159  1.0000
  H   H968      1.0  0.35122  0.76870  0.59971  1.0000
  C   C622      1.0  0.54826  0.76323  0.54705  1.0000
  C   C623      1.0  0.51795  0.92169  0.51384  1.0000
  H   H969      1.0  0.37819  0.93557  0.67920  1.0000
  N   N60       1.0  0.38803  0.95418  0.65448  1.0000
  H   H970      1.0  0.56677  0.98092  0.52935  1.0000
  H   H971      1.0  0.52876  0.75718  0.66255  1.0000
  C   C624      1.0  0.57791  0.77272  0.50382  1.0000
  C   C625      1.0  0.67328  0.77565  0.86727  1.0000
  H   H972      1.0  0.38319  0.95720  0.59399  1.0000
  S   S253      1.0  0.67080  0.89309  0.99099  1.0000
  N   N61       1.0  0.56632  0.77393  0.54208  1.0000
  H   H973      1.0  0.36082  0.96559  0.62384  1.0000
  N   N62       1.0  0.57475  0.88289  0.70501  1.0000
  S   S254      1.0  0.42425  0.99746  0.71373  1.0000
  H   H974      1.0  0.42615  0.95971  0.65200  1.0000
  H   H975      1.0  0.41869  0.94526  0.62402  1.0000
  Fe  Fe125     1.0  0.38252  0.99931  0.71364  1.0000
  H   H976      1.0  0.35315  0.94438  0.65669  1.0000
  Fe  Fe126     1.0  0.51094  0.81153  0.51886  1.0000
  Fe  Fe127     1.0  0.61432  0.75570  0.75361  1.0000
  H   H977      1.0  0.35723  0.82740  0.58590  1.0000
  C   C626      1.0  0.50536  0.77169  0.79758  1.0000
  H   H978      1.0  0.42078  0.94427  0.67523  1.0000
  C   C627      1.0  0.59615  0.95133  0.54193  1.0000
  H   H979      1.0  0.58386  0.90226  0.68462  1.0000
  H   H980      1.0  0.61345  0.87810  0.70713  1.0000
  H   H981      1.0  0.58190  0.79619  0.68253  1.0000
  H   H982      1.0  0.65899  0.77494  0.84578  1.0000
  H   H983      1.0  0.53719  0.88883  0.71633  1.0000
  C   C628      1.0  0.57039  0.78763  0.67800  1.0000
  C   C629      1.0  0.56198  0.92332  0.52159  1.0000
  H   H984      1.0  0.55018  0.87065  0.67222  1.0000
  H   H985      1.0  0.49382  0.76393  0.81090  1.0000
  H   H986      1.0  0.60379  0.89129  0.73889  1.0000
  H   H987      1.0  0.54444  0.78805  0.79596  1.0000
  C   C630      1.0  0.55522  0.88777  0.73136  1.0000
  C   C631      1.0  0.59821  0.88157  0.72625  1.0000
  H   H988      1.0  0.65832  0.98193  0.85055  1.0000
  H   H989      1.0  0.52947  0.75824  0.85301  1.0000
  H   H990      1.0  0.58201  0.86590  0.66873  1.0000
  H   H991      1.0  0.67323  0.84560  0.87529  1.0000
  H   H992      1.0  0.56641  0.77577  0.77972  1.0000
  H   H993      1.0  0.66404  0.96370  0.91818  1.0000
  H   H994      1.0  0.51490  0.92376  0.54488  1.0000
  S   S255      1.0  0.41993  0.80318  0.50891  1.0000
  H   H995      1.0  0.39065  0.95598  0.71581  1.0000
  C   C632      1.0  0.53555  0.75532  0.77729  1.0000
  H   H996      1.0  0.49878  0.77303  0.76758  1.0000
  S   S256      1.0  0.47944  0.82639  0.52210  1.0000
  H   H997      1.0  0.54052  0.78011  0.75019  1.0000
  H   H998      1.0  0.57714  0.77387  0.60132  1.0000
  H   H999      1.0  0.66233  0.96947  0.81369  1.0000
  H   H1000     1.0  0.35221  0.79355  0.60477  1.0000
  C   C633      1.0  0.66113  0.97113  0.84522  1.0000
  Fe  Fe128     1.0  0.67347  0.91562  0.99185  1.0000
  H   H1001     1.0  0.39275  0.97139  0.69029  1.0000
  H   H1002     1.0  0.53730  0.77553  0.85568  1.0000
  H   H1003     1.0  0.64420  0.96606  0.85531  1.0000
  H   H1004     1.0  0.59905  0.78110  0.56957  1.0000
  H   H1005     1.0  0.55971  0.76334  0.84015  1.0000
  H   H1006     1.0  0.66749  0.79661  0.87715  1.0000
  H   H1007     1.0  0.56812  0.75479  0.69824  1.0000
  H   H1008     1.0  0.56055  0.92606  0.55252  1.0000
  H   H1009     1.0  0.55713  0.75327  0.54448  1.0000
  H   H1010     1.0  0.66976  0.94616  0.86829  1.0000
  H   H1011     1.0  0.56370  0.91232  0.51990  1.0000
  H   H1012     1.0  0.57942  0.92747  0.51048  1.0000
  H   H1013     1.0  0.51943  0.91071  0.51062  1.0000
  H   H1014     1.0  0.58857  0.76329  0.50058  1.0000
  H   H1015     1.0  0.61968  0.94176  0.49964  1.0000
  N   N63       1.0  0.54040  0.92825  0.49987  1.0000
  H   H1016     1.0  0.77644  0.24273  0.04929  1.0000
  S   S257      1.0  0.97410  0.17082  0.07932  1.0000
  C   C634      1.0  0.83342  0.11684  0.45642  1.0000
  C   C635      1.0  0.76273  0.11634  0.48508  1.0000
  H   H1017     1.0  0.88195  0.24784  0.39680  1.0000
  H   H1018     1.0  0.85683  0.23666  0.39398  1.0000
  H   H1019     1.0  0.86839  0.08619  0.13959  1.0000
  C   C636      1.0  0.70007  0.14223  0.47502  1.0000
  S   S258      1.0  0.88446  0.23412  0.31402  1.0000
  S   S259      1.0  0.81402  0.24175  0.34257  1.0000
  Fe  Fe129     1.0  0.88837  0.23580  0.25026  1.0000
  S   S260      1.0  0.89590  0.21770  0.21276  1.0000
  N   N64       1.0  0.88516  0.23095  0.43375  1.0000
  H   H1020     1.0  0.95236  0.18681  0.14707  1.0000
  S   S261      1.0  0.81065  0.18910  0.44071  1.0000
  C   C637      1.0  0.72046  0.03356  0.41958  1.0000
  Fe  Fe130     1.0  0.82795  0.05777  0.44042  1.0000
  S   S262      1.0  0.85865  0.06457  0.40032  1.0000
  S   S263      1.0  0.78776  0.05952  0.42610  1.0000
  Fe  Fe131     1.0  0.96056  0.05121  0.16377  1.0000
  S   S264      1.0  0.93087  0.03611  0.15541  1.0000
  H   H1021     1.0  0.68683  0.04239  0.39801  1.0000
  Fe  Fe132     1.0  0.92724  0.07432  0.14003  1.0000
  S   S265      1.0  0.89518  0.06097  0.12838  1.0000
  S   S266      1.0  0.92210  0.09667  0.13926  1.0000
  Fe  Fe133     1.0  0.90581  0.05137  0.18427  1.0000
  S   S267      1.0  0.87373  0.04731  0.22478  1.0000
  Fe  Fe134     1.0  0.92252  0.04697  0.10058  1.0000
  S   S268      1.0  0.92205  0.03641  0.04244  1.0000
  S   S269      1.0  0.93637  0.06548  0.19711  1.0000
  S   S270      1.0  0.95376  0.06128  0.10762  1.0000
  C   C638      1.0  0.87023  0.24119  0.41405  1.0000
  C   C639      1.0  0.85445  0.10610  0.40303  1.0000
  H   H1022     1.0  0.99632  0.00278  0.22356  1.0000
  C   C640      1.0  0.68397  0.02114  0.40085  1.0000
  C   C641      1.0  0.94429  0.20530  0.07321  1.0000
  C   C642      1.0  0.72049  0.00966  0.42453  1.0000
  C   C643      1.0  0.87225  0.03499  0.02430  1.0000
  H   H1023     1.0  0.81009  0.09350  0.45975  1.0000
  H   H1024     1.0  0.86812  0.10248  0.15985  1.0000
  H   H1025     1.0  0.82062  0.12226  0.43697  1.0000
  C   C644      1.0  0.73269  0.02176  0.42912  1.0000
  Fe  Fe135     1.0  0.98374  0.17867  0.02092  1.0000
  Fe  Fe136     1.0  0.00453  0.15576  0.06942  1.0000
  H   H1026     1.0  0.88489  0.21752  0.38549  1.0000
  C   C645      1.0  0.69619  0.03323  0.40542  1.0000
  C   C646      1.0  0.86279  0.05940  0.35179  1.0000
  C   C647      1.0  0.88415  0.06319  0.33199  1.0000
  C   C648      1.0  0.88802  0.05943  0.29334  1.0000
  C   C649      1.0  0.87036  0.05194  0.27388  1.0000
  C   C650      1.0  0.84890  0.04827  0.29357  1.0000
  C   C651      1.0  0.84515  0.05192  0.33232  1.0000
  H   H1027     1.0  0.89798  0.06891  0.34681  1.0000
  H   H1028     1.0  0.90470  0.06224  0.27873  1.0000
  H   H1029     1.0  0.83514  0.04247  0.27886  1.0000
  H   H1030     1.0  0.82863  0.04893  0.34710  1.0000
  S   S271      1.0  0.76165  0.08926  0.47859  1.0000
  C   C652      1.0  0.81228  0.22684  0.36856  1.0000
  C   C653      1.0  0.79498  0.22576  0.39828  1.0000
  C   C654      1.0  0.79402  0.21418  0.42045  1.0000
  C   C655      1.0  0.81027  0.20359  0.41277  1.0000
  C   C656      1.0  0.82738  0.20465  0.38278  1.0000
  C   C657      1.0  0.82843  0.21623  0.36082  1.0000
  H   H1031     1.0  0.78241  0.23392  0.40440  1.0000
  H   H1032     1.0  0.78077  0.21345  0.44346  1.0000
  H   H1033     1.0  0.83990  0.19647  0.37654  1.0000
  H   H1034     1.0  0.84159  0.21688  0.33764  1.0000
  C   C658      1.0  0.98283  0.12354  0.09279  1.0000
  C   C659      1.0  0.98480  0.10970  0.08845  1.0000
  C   C660      1.0  0.96597  0.10140  0.10149  1.0000
  C   C661      1.0  0.94516  0.10686  0.11967  1.0000
  C   C662      1.0  0.94305  0.12071  0.12369  1.0000
  C   C663      1.0  0.96175  0.12903  0.11017  1.0000
  H   H1035     1.0  0.98704  0.10599  0.17471  1.0000
  H   H1036     1.0  0.96759  0.09078  0.09758  1.0000
  H   H1037     1.0  0.92698  0.12504  0.13759  1.0000
  H   H1038     1.0  0.96003  0.13967  0.11372  1.0000
  C   C664      1.0  0.97186  0.20360  0.16956  1.0000
  C   C665      1.0  0.96972  0.21536  0.19130  1.0000
  C   C666      1.0  0.94663  0.21975  0.20537  1.0000
  C   C667      1.0  0.92556  0.21231  0.19797  1.0000
  C   C668      1.0  0.92783  0.20039  0.17708  1.0000
  C   C669      1.0  0.95089  0.19601  0.16312  1.0000
  H   H1039     1.0  0.98592  0.22124  0.19671  1.0000
  H   H1040     1.0  0.94510  0.22892  0.22159  1.0000
  H   H1041     1.0  0.91163  0.19454  0.17155  1.0000
  H   H1042     1.0  0.83981  0.09528  0.14325  1.0000
  S   S272      1.0  0.00070  0.19905  0.14935  1.0000
  H   H1043     1.0  0.92912  0.20374  0.09408  1.0000
  H   H1044     1.0  0.91614  0.24373  0.44166  1.0000
  C   C670      1.0  0.81965  0.09570  0.43253  1.0000
  H   H1045     1.0  0.96763  0.22437  0.11273  1.0000
  S   S273      1.0  0.69121  0.18141  0.48810  1.0000
  H   H1046     1.0  0.98508  0.21831  0.05062  1.0000
  H   H1047     1.0  0.92404  0.23440  0.03569  1.0000
  N   N65       1.0  0.94628  0.21940  0.06288  1.0000
  N   N66       1.0  0.85337  0.08749  0.19662  1.0000
  C   C671      1.0  0.83943  0.07504  0.19299  1.0000
  C   C672      1.0  0.87739  0.08469  0.21496  1.0000
  C   C673      1.0  0.83925  0.09711  0.22047  1.0000
  C   C674      1.0  0.85748  0.09311  0.15819  1.0000
  H   H1048     1.0  0.82103  0.07673  0.17976  1.0000
  H   H1049     1.0  0.83662  0.07034  0.22142  1.0000
  H   H1050     1.0  0.84949  0.06758  0.17491  1.0000
  H   H1051     1.0  0.88903  0.09369  0.21652  1.0000
  H   H1052     1.0  0.87505  0.08081  0.24446  1.0000
  H   H1053     1.0  0.88795  0.07705  0.19854  1.0000
  H   H1054     1.0  0.82105  0.09951  0.20738  1.0000
  H   H1055     1.0  0.84941  0.10656  0.22401  1.0000
  H   H1056     1.0  0.83577  0.09310  0.24960  1.0000
  H   H1057     1.0  0.91512  0.23006  0.47404  1.0000
  H   H1058     1.0  0.87103  0.11232  0.40720  1.0000
  H   H1059     1.0  0.72991  0.01850  0.29533  1.0000
  H   H1060     1.0  0.72970  0.04294  0.42303  1.0000
  Fe  Fe137     1.0  0.78276  0.04094  0.46020  1.0000
  H   H1061     1.0  0.71997  0.13993  0.47053  1.0000
  S   S274      1.0  0.76333  0.02170  0.44615  1.0000
  H   H1062     1.0  0.96173  0.20150  0.08613  1.0000
  H   H1063     1.0  0.91074  0.22850  0.38701  1.0000
  H   H1064     1.0  0.96882  0.23146  0.02675  1.0000
  C   C675      1.0  0.89813  0.22254  0.40505  1.0000
  H   H1065     1.0  0.69711  0.15289  0.46793  1.0000
  H   H1066     1.0  0.98698  0.07300  0.22199  1.0000
  H   H1067     1.0  0.84936  0.12337  0.46241  1.0000
  H   H1068     1.0  0.90955  0.21469  0.41885  1.0000
  H   H1069     1.0  0.93498  0.22613  0.11907  1.0000
  Fe  Fe138     1.0  0.78321  0.18543  0.48835  1.0000
  Fe  Fe139     1.0  0.84858  0.24497  0.30754  1.0000
  C   C676      1.0  0.68623  0.00615  0.29670  1.0000
  H   H1070     1.0  0.75322  0.11634  0.45784  1.0000
  H   H1071     1.0  0.86847  0.03741  0.05402  1.0000
  N   N67       1.0  0.84146  0.10396  0.43964  1.0000
  C   C677      1.0  0.89664  0.03437  0.01127  1.0000
  H   H1072     1.0  0.87933  0.21467  0.47199  1.0000
  H   H1073     1.0  0.83397  0.03228  0.00948  1.0000
  H   H1074     1.0  0.94034  0.19900  0.04780  1.0000
  H   H1075     1.0  0.98326  0.10301  0.22495  1.0000
  S   S275      1.0  0.00774  0.13344  0.07809  1.0000
  H   H1076     1.0  0.96774  0.09280  0.19033  1.0000
  H   H1077     1.0  0.85470  0.21768  0.43896  1.0000
  C   C678      1.0  0.86881  0.22263  0.45708  1.0000
  C   C679      1.0  0.92329  0.22377  0.04381  1.0000
  C   C680      1.0  0.96734  0.22104  0.03651  1.0000
  S   S276      1.0  0.85060  0.24502  0.24331  1.0000
  H   H1078     1.0  0.87521  0.10291  0.47197  1.0000
  H   H1079     1.0  0.86073  0.09646  0.39005  1.0000
  H   H1080     1.0  0.96554  0.21459  0.01056  1.0000
  H   H1081     1.0  0.82478  0.08601  0.41895  1.0000
  H   H1082     1.0  0.99069  0.07652  0.15181  1.0000
  C   C681      1.0  0.90348  0.23746  0.45871  1.0000
  H   H1083     1.0  0.89443  0.24406  0.48039  1.0000
  C   C682      1.0  0.72936  0.00894  0.31091  1.0000
  H   H1084     1.0  0.95149  0.23814  0.09161  1.0000
  Fe  Fe140     1.0  0.78430  0.07016  0.48303  1.0000
  S   S277      1.0  0.82349  0.03827  0.46994  1.0000
  H   H1085     1.0  0.68949  0.13626  0.45386  1.0000
  C   C683      1.0  0.99790  0.02275  0.20220  1.0000
  S   S278      1.0  0.75823  0.16781  0.48562  1.0000
  H   H1086     1.0  0.91997  0.21790  0.01710  1.0000
  H   H1087     1.0  0.85869  0.22861  0.47908  1.0000
  H   H1088     1.0  0.80598  0.10070  0.41360  1.0000
  H   H1089     1.0  0.97812  0.02425  0.20270  1.0000
  H   H1090     1.0  0.86406  0.08717  0.45532  1.0000
  H   H1091     1.0  0.72497  0.01138  0.34139  1.0000
  H   H1092     1.0  0.84225  0.11111  0.38188  1.0000
  Fe  Fe141     1.0  0.00398  0.18431  0.10000  1.0000
  C   C684      1.0  0.69617  0.00934  0.41059  1.0000
  H   H1093     1.0  0.85963  0.24751  0.43466  1.0000
  C   C685      1.0  0.95023  0.22740  0.09803  1.0000
  C   C686      1.0  0.98527  0.09806  0.19649  1.0000
  S   S279      1.0  0.00105  0.04868  0.17813  1.0000
  H   H1094     1.0  0.68557  0.01600  0.28263  1.0000
  H   H1095     1.0  0.74823  0.00447  0.31024  1.0000
  H   H1096     1.0  0.90703  0.22254  0.06289  1.0000
  H   H1097     1.0  0.76195  0.13771  0.49108  1.0000
  H   H1098     1.0  0.00091  0.10538  0.07463  1.0000
  H   H1099     1.0  0.71666  0.00642  0.23636  1.0000
  C   C687      1.0  0.85823  0.09712  0.46661  1.0000
  C   C688      1.0  0.77188  0.24611  0.01981  1.0000
  H   H1100     1.0  0.78821  0.24388  0.00129  1.0000
  H   H1101     1.0  0.82340  0.11547  0.48399  1.0000
  C   C689      1.0  0.00406  0.07884  0.22592  1.0000
  H   H1102     1.0  0.00327  0.08350  0.25491  1.0000
  H   H1103     1.0  0.80209  0.01225  0.49724  1.0000
  H   H1104     1.0  0.68064  0.00771  0.32699  1.0000
  H   H1105     1.0  0.84917  0.09556  0.49483  1.0000
  S   S280      1.0  0.82481  0.06908  0.49637  1.0000
  H   H1106     1.0  0.75637  0.24000  0.00898  1.0000
  N   N68       1.0  0.00668  0.08883  0.19550  1.0000
  C   C690      1.0  0.00825  0.01060  0.21405  1.0000
  C   C691      1.0  0.00787  0.08207  0.15775  1.0000
  H   H1107     1.0  0.88816  0.00293  0.99970  1.0000
  H   H1108     1.0  0.92080  0.00525  0.99930  1.0000
  H   H1109     1.0  0.83583  0.05280  0.89759  1.0000
  Fe  Fe142     1.0  0.86946  0.22822  0.77185  1.0000
  S   S281      1.0  0.90760  0.23581  0.76178  1.0000
  S   S282      1.0  0.86026  0.21103  0.73196  1.0000
  H   H1110     1.0  0.85438  0.04265  0.86664  1.0000
  H   H1111     1.0  0.79308  0.04317  0.81924  1.0000
  H   H1112     1.0  0.79830  0.04299  0.87048  1.0000
  Fe  Fe143     1.0  0.91250  0.23464  0.82562  1.0000
  S   S283      1.0  0.94829  0.22599  0.84886  1.0000
  H   H1113     1.0  0.85821  0.06030  0.86672  1.0000
  S   S284      1.0  0.87560  0.22562  0.83506  1.0000
  Fe  Fe144     1.0  0.76742  0.19286  0.56979  1.0000
  S   S285      1.0  0.79852  0.18034  0.54631  1.0000
  S   S286      1.0  0.76974  0.20915  0.61528  1.0000
  H   H1114     1.0  0.72471  0.22325  0.55861  1.0000
  H   H1115     1.0  0.81679  0.03295  0.83908  1.0000
  Fe  Fe145     1.0  0.77133  0.16368  0.54516  1.0000
  S   S287      1.0  0.78241  0.14330  0.56667  1.0000
  H   H1116     1.0  0.91316  0.17110  0.78885  1.0000
  S   S288      1.0  0.74116  0.17576  0.57391  1.0000
  S   S289      1.0  0.75381  0.19912  0.51160  1.0000
  S   S290      1.0  0.77569  0.05164  0.51609  1.0000
  H   H1117     1.0  0.91190  0.20468  0.83301  1.0000
  C   C692      1.0  0.77541  0.02048  0.55803  1.0000
  H   H1118     1.0  0.79814  0.06760  0.81917  1.0000
  C   C693      1.0  0.77880  0.12849  0.53990  1.0000
  Fe  Fe146     1.0  0.81670  0.04962  0.52489  1.0000
  S   S291      1.0  0.83762  0.04057  0.57565  1.0000
  H   H1119     1.0  0.81202  0.01096  0.60226  1.0000
  S   S292      1.0  0.86170  0.01647  0.82861  1.0000
  H   H1120     1.0  0.85118  0.06044  0.79580  1.0000
  H   H1121     1.0  0.87147  0.23463  0.68934  1.0000
  H   H1122     1.0  0.71696  0.12267  0.52115  1.0000
  S   S293      1.0  0.81150  0.02508  0.74845  1.0000
  Fe  Fe147     1.0  0.83809  0.01074  0.87815  1.0000
  S   S294      1.0  0.83269  0.02421  0.93013  1.0000
  C   C694      1.0  0.82958  0.03621  0.62337  1.0000
  C   C695      1.0  0.84640  0.02857  0.64490  1.0000
  C   C696      1.0  0.84098  0.02480  0.68282  1.0000
  C   C697      1.0  0.81873  0.02880  0.69993  1.0000
  C   C698      1.0  0.80185  0.03639  0.67834  1.0000
  C   C699      1.0  0.80713  0.04001  0.64023  1.0000
  H   H1123     1.0  0.86383  0.02558  0.63221  1.0000
  H   H1124     1.0  0.85421  0.01901  0.69901  1.0000
  H   H1125     1.0  0.78460  0.03957  0.69128  1.0000
  H   H1126     1.0  0.79404  0.04595  0.62422  1.0000
  H   H1127     1.0  0.86177  0.23715  0.60247  1.0000
  N   N69       1.0  0.86096  0.25034  0.65125  1.0000
  H   H1128     1.0  0.78816  0.09505  0.54938  1.0000
  C   C700      1.0  0.93135  0.20188  0.76325  1.0000
  H   H1129     1.0  0.95528  0.19673  0.82844  1.0000
  H   H1130     1.0  0.92005  0.03084  0.96222  1.0000
  H   H1131     1.0  0.70187  0.19626  0.55861  1.0000
  H   H1132     1.0  0.83339  0.24797  0.69484  1.0000
  C   C701      1.0  0.80906  0.00913  0.52583  1.0000
  C   C702      1.0  0.87987  0.24271  0.67242  1.0000
  H   H1133     1.0  0.84720  0.04279  0.79606  1.0000
  C   C703      1.0  0.83495  0.21084  0.69979  1.0000
  C   C704      1.0  0.81590  0.22032  0.70169  1.0000
  C   C705      1.0  0.79609  0.21974  0.67555  1.0000
  C   C706      1.0  0.79508  0.20966  0.64744  1.0000
  C   C707      1.0  0.81421  0.20024  0.64551  1.0000
  C   C708      1.0  0.83400  0.20083  0.67157  1.0000
  H   H1134     1.0  0.81613  0.22789  0.72383  1.0000
  H   H1135     1.0  0.78127  0.22700  0.67753  1.0000
  H   H1136     1.0  0.81366  0.19240  0.62420  1.0000
  S   S295      1.0  0.95084  0.18422  0.98381  1.0000
  C   C709      1.0  0.95082  0.19668  0.94861  1.0000
  C   C710      1.0  0.97264  0.20123  0.93233  1.0000
  C   C711      1.0  0.97163  0.21052  0.90245  1.0000
  C   C712      1.0  0.94889  0.21548  0.88918  1.0000
  C   C713      1.0  0.92715  0.21131  0.90662  1.0000
  C   C714      1.0  0.92813  0.20182  0.93584  1.0000
  H   H1137     1.0  0.99024  0.19733  0.94197  1.0000
  H   H1138     1.0  0.98856  0.21373  0.88921  1.0000
  H   H1139     1.0  0.90955  0.21521  0.89720  1.0000
  H   H1140     1.0  0.91117  0.19838  0.94847  1.0000
  C   C715      1.0  0.94835  0.18787  0.81264  1.0000
  H   H1141     1.0  0.82367  0.05316  0.77635  1.0000
  H   H1142     1.0  0.69899  0.23221  0.53817  1.0000
  H   H1143     1.0  0.84855  0.19340  0.66997  1.0000
  H   H1144     1.0  0.89376  0.23810  0.65281  1.0000
  N   N70       1.0  0.69238  0.13943  0.51475  1.0000
  H   H1145     1.0  0.70775  0.21620  0.51937  1.0000
  H   H1146     1.0  0.70464  0.22557  0.62280  1.0000
  C   C716      1.0  0.85748  0.02843  0.96068  1.0000
  N   N71       1.0  0.78865  0.00767  0.55349  1.0000
  H   H1147     1.0  0.88558  0.02610  0.91753  1.0000
  C   C717      1.0  0.91755  0.17934  0.76909  1.0000
  C   C718      1.0  0.85275  0.03203  0.99903  1.0000
  C   C719      1.0  0.90125  0.03117  0.97261  1.0000
  H   H1148     1.0  0.88889  0.19821  0.80127  1.0000
  H   H1149     1.0  0.68720  0.19752  0.60470  1.0000
  H   H1150     1.0  0.76693  0.02365  0.53048  1.0000
  C   C720      1.0  0.88177  0.02836  0.94733  1.0000
  H   H1151     1.0  0.93796  0.21091  0.77855  1.0000
  H   H1152     1.0  0.71781  0.20369  0.59822  1.0000
  C   C721      1.0  0.78257  0.10432  0.53643  1.0000
  H   H1153     1.0  0.93191  0.17566  0.74867  1.0000
  H   H1154     1.0  0.70147  0.14588  0.57195  1.0000
  C   C722      1.0  0.78672  0.11640  0.55571  1.0000
  H   H1155     1.0  0.94594  0.19883  0.74246  1.0000
  H   H1156     1.0  0.90181  0.18800  0.83850  1.0000
  C   C723      1.0  0.70665  0.14773  0.54163  1.0000
  C   C724      1.0  0.76746  0.12844  0.50394  1.0000
  C   C725      1.0  0.84851  0.24147  0.62365  1.0000
  H   H1157     1.0  0.79563  0.11637  0.58346  1.0000
  H   H1158     1.0  0.83376  0.24680  0.60760  1.0000
  N   N72       1.0  0.92590  0.19117  0.79046  1.0000
  H   H1159     1.0  0.90057  0.18161  0.75221  1.0000
  H   H1160     1.0  0.94477  0.18013  0.83440  1.0000
  S   S296      1.0  0.85217  0.24847  0.77897  1.0000
  N   N73       1.0  0.82548  0.05352  0.83803  1.0000
  C   C726      1.0  0.81253  0.06645  0.84171  1.0000
  C   C727      1.0  0.80751  0.04275  0.84194  1.0000
  C   C728      1.0  0.84432  0.05233  0.86850  1.0000
  C   C729      1.0  0.83745  0.05249  0.79998  1.0000
  H   H1161     1.0  0.82554  0.07482  0.83888  1.0000
  H   H1162     1.0  0.80324  0.06749  0.87007  1.0000
  H   H1163     1.0  0.83971  0.23301  0.63849  1.0000
  C   C730      1.0  0.90621  0.19567  0.81695  1.0000
  H   H1164     1.0  0.91945  0.00558  0.92839  1.0000
  H   H1165     1.0  0.96355  0.18424  0.79371  1.0000
  Fe  Fe148     1.0  0.72979  0.18110  0.51404  1.0000
  H   H1166     1.0  0.76034  0.01991  0.57956  1.0000
  H   H1167     1.0  0.72685  0.14572  0.53900  1.0000
  S   S297      1.0  0.80528  0.00630  0.84103  1.0000
  H   H1168     1.0  0.91463  0.20483  0.74666  1.0000
  C   C731      1.0  0.69942  0.20273  0.58431  1.0000
  H   H1169     1.0  0.67882  0.23415  0.60158  1.0000
  H   H1170     1.0  0.82236  0.01677  0.53565  1.0000
  Fe  Fe149     1.0  0.82990  0.01076  0.79075  1.0000
  S   S298      1.0  0.84009  0.25133  0.89529  1.0000
  N   N74       1.0  0.68906  0.21579  0.57366  1.0000
  H   H1171     1.0  0.78808  0.02844  0.56760  1.0000
  Fe  Fe150     1.0  0.86202  0.24671  0.84150  1.0000
  C   C732      1.0  0.68647  0.22417  0.60846  1.0000
  H   H1172     1.0  0.89004  0.24919  0.69275  1.0000
  C   C733      1.0  0.79874  0.00356  0.59096  1.0000
  C   C734      1.0  0.70586  0.22218  0.54628  1.0000
  C   C735      1.0  0.69700  0.12527  0.52324  1.0000
  H   H1173     1.0  0.69099  0.12280  0.55280  1.0000
  H   H1174     1.0  0.70346  0.15845  0.53605  1.0000
  H   H1175     1.0  0.68703  0.11867  0.50294  1.0000
  C   C736      1.0  0.76995  0.10423  0.50153  1.0000
  S   S299      1.0  0.79904  0.34921  0.04543  1.0000
  C   C737      1.0  0.78062  0.39120  0.00343  1.0000
  C   C738      1.0  0.76741  0.36882  0.01908  1.0000
  C   C739      1.0  0.80071  0.28621  0.26983  1.0000
  C   C740      1.0  0.90021  0.44630  0.46709  1.0000
  Fe  Fe151     1.0  0.83071  0.44459  0.02392  1.0000
  S   S300      1.0  0.85249  0.44959  0.07813  1.0000
  H   H1176     1.0  0.77926  0.25492  0.28045  1.0000
  C   C741      1.0  0.75897  0.27961  0.28302  1.0000
  S   S301      1.0  0.87565  0.47089  0.33460  1.0000
  H   H1177     1.0  0.91359  0.34349  0.42677  1.0000
  H   H1178     1.0  0.78516  0.26354  0.23646  1.0000
  S   S302      1.0  0.82155  0.48496  0.34411  1.0000
  H   H1179     1.0  0.82069  0.28355  0.27155  1.0000
  Fe  Fe152     1.0  0.85283  0.47938  0.38294  1.0000
  S   S303      1.0  0.84473  0.47231  0.44298  1.0000
  Fe  Fe153     1.0  0.84582  0.47844  0.29471  1.0000
  S   S304      1.0  0.82305  0.46835  0.24774  1.0000
  H   H1180     1.0  0.78267  0.27892  0.03321  1.0000
  N   N75       1.0  0.94411  0.34548  0.46545  1.0000
  S   S305      1.0  0.93237  0.49358  0.32996  1.0000
  H   H1181     1.0  0.73846  0.27362  0.04470  1.0000
  C   C742      1.0  0.81046  0.37450  0.02384  1.0000
  Fe  Fe154     1.0  0.75953  0.30454  0.06659  1.0000
  C   C743      1.0  0.74378  0.26293  0.04434  1.0000
  S   S306      1.0  0.76530  0.28759  0.10845  1.0000
  Fe  Fe155     1.0  0.77198  0.33232  0.03926  1.0000
  H   H1182     1.0  0.76880  0.41917  0.07306  1.0000
  H   H1183     1.0  0.82929  0.37172  0.03055  1.0000
  S   S307      1.0  0.74265  0.32473  0.07918  1.0000
  H   H1184     1.0  0.95442  0.25946  0.43868  1.0000
  Fe  Fe156     1.0  0.86997  0.26433  0.25038  1.0000
  H   H1185     1.0  0.68243  0.48135  0.00444  1.0000
  S   S308      1.0  0.86006  0.28255  0.21537  1.0000
  C   C744      1.0  0.79149  0.27460  0.32817  1.0000
  H   H1186     1.0  0.79505  0.41614  0.17123  1.0000
  S   S309      1.0  0.86523  0.26507  0.31451  1.0000
  S   S310      1.0  0.97223  0.30721  0.44882  1.0000
  C   C745      1.0  0.93888  0.27027  0.39123  1.0000
  C   C746      1.0  0.95171  0.26913  0.42611  1.0000
  C   C747      1.0  0.96154  0.28037  0.44455  1.0000
  C   C748      1.0  0.95897  0.29287  0.42793  1.0000
  C   C749      1.0  0.94599  0.29403  0.39319  1.0000
  C   C750      1.0  0.93581  0.28282  0.37505  1.0000
  H   H1187     1.0  0.82318  0.49219  0.49469  1.0000
  H   H1188     1.0  0.94404  0.30364  0.37996  1.0000
  H   H1189     1.0  0.92614  0.28383  0.34811  1.0000
  C   C751      1.0  0.79255  0.28611  0.13613  1.0000
  C   C752      1.0  0.79771  0.27413  0.15492  1.0000
  C   C753      1.0  0.81883  0.27272  0.17810  1.0000
  C   C754      1.0  0.83469  0.28341  0.18341  1.0000
  C   C755      1.0  0.82962  0.29534  0.16434  1.0000
  C   C756      1.0  0.80875  0.29667  0.14057  1.0000
  H   H1190     1.0  0.78534  0.26588  0.15149  1.0000
  H   H1191     1.0  0.82271  0.26343  0.19212  1.0000
  H   H1192     1.0  0.84180  0.30366  0.16823  1.0000
  H   H1193     1.0  0.80497  0.30596  0.12633  1.0000
  H   H1194     1.0  0.91349  0.44025  0.45140  1.0000
  H   H1195     1.0  0.77703  0.39749  0.13389  1.0000
  H   H1196     1.0  0.74682  0.27198  0.29562  1.0000
  H   H1197     1.0  0.75277  0.36171  0.02215  1.0000
  H   H1198     1.0  0.96104  0.36449  0.47368  1.0000
  C   C757      1.0  0.84360  0.45547  0.12436  1.0000
  C   C758      1.0  0.86207  0.45923  0.15043  1.0000
  C   C759      1.0  0.85612  0.46345  0.18801  1.0000
  C   C760      1.0  0.83158  0.46369  0.20022  1.0000
  C   C761      1.0  0.81304  0.45999  0.17410  1.0000
  C   C762      1.0  0.81897  0.45605  0.13624  1.0000
  H   H1199     1.0  0.88119  0.45880  0.14155  1.0000
  H   H1200     1.0  0.87059  0.46622  0.20773  1.0000
  H   H1201     1.0  0.79399  0.46013  0.18326  1.0000
  H   H1202     1.0  0.80457  0.45330  0.11643  1.0000
  C   C763      1.0  0.93301  0.47464  0.41503  1.0000
  H   H1203     1.0  0.95621  0.49803  0.41279  1.0000
  H   H1204     1.0  0.80989  0.41247  0.05156  1.0000
  C   C764      1.0  0.86598  0.46202  0.46712  1.0000
  H   H1205     1.0  0.78054  0.26668  0.34196  1.0000
  N   N76       1.0  0.93718  0.48393  0.44733  1.0000
  H   H1206     1.0  0.74766  0.50053  0.46786  1.0000
  H   H1207     1.0  0.88383  0.45458  0.41603  1.0000
  C   C765      1.0  0.96246  0.34095  0.43664  1.0000
  S   S311      1.0  0.78969  0.44340  0.01649  1.0000
  N   N77       1.0  0.78527  0.27589  0.28712  1.0000
  H   H1208     1.0  0.96857  0.34920  0.41819  1.0000
  H   H1209     1.0  0.97916  0.33661  0.45053  1.0000
  H   H1210     1.0  0.82393  0.42535  0.07944  1.0000
  H   H1211     1.0  0.78202  0.43242  0.10051  1.0000
  C   C766      1.0  0.88347  0.45441  0.44702  1.0000
  H   H1212     1.0  0.81126  0.27179  0.33206  1.0000
  C   C767      1.0  0.78997  0.26307  0.26741  1.0000
  S   S312      1.0  0.73526  0.30045  0.01523  1.0000
  S   S313      1.0  0.68098  0.32786  0.01151  1.0000
  C   C768      1.0  0.92225  0.35104  0.44578  1.0000
  H   H1213     1.0  0.97163  0.27932  0.47111  1.0000
  C   C769      1.0  0.78938  0.48946  0.43908  1.0000
  C   C770      1.0  0.95508  0.35576  0.49037  1.0000
  C   C771      1.0  0.94008  0.49748  0.43238  1.0000
  C   C772      1.0  0.76090  0.49620  0.48897  1.0000
  H   H1214     1.0  0.80352  0.26605  0.01708  1.0000
  H   H1215     1.0  0.94828  0.47494  0.39372  1.0000
  C   C773      1.0  0.91589  0.48369  0.47375  1.0000
  H   H1216     1.0  0.81517  0.42756  0.14791  1.0000
  C   C774      1.0  0.93662  0.33412  0.48902  1.0000
  H   H1217     1.0  0.92720  0.35964  0.42773  1.0000
  H   H1218     1.0  0.82515  0.41078  0.15528  1.0000
  H   H1219     1.0  0.95810  0.46971  0.47990  1.0000
  S   S314      1.0  0.79054  0.31236  0.03134  1.0000
  H   H1220     1.0  0.78232  0.39619  0.08329  1.0000
  H   H1221     1.0  0.76211  0.42076  0.12337  1.0000
  H   H1222     1.0  0.89831  0.48608  0.45864  1.0000
  H   H1223     1.0  0.79812  0.29597  0.28444  1.0000
  C   C775      1.0  0.79166  0.36516  0.02796  1.0000
  H   H1224     1.0  0.91387  0.47373  0.48676  1.0000
  H   H1225     1.0  0.93151  0.46424  0.42503  1.0000
  H   H1226     1.0  0.80684  0.39242  0.11593  1.0000
  Fe  Fe157     1.0  0.89075  0.49164  0.33086  1.0000
  H   H1227     1.0  0.91572  0.47715  0.39934  1.0000
  H   H1228     1.0  0.76429  0.49714  0.20791  1.0000
  H   H1229     1.0  0.79626  0.28761  0.23897  1.0000
  Fe  Fe158     1.0  0.72020  0.32105  0.02552  1.0000
  H   H1230     1.0  0.77505  0.49225  0.41791  1.0000
  H   H1231     1.0  0.83254  0.49286  0.21060  1.0000
  H   H1232     1.0  0.95492  0.33302  0.41769  1.0000
  H   H1233     1.0  0.92851  0.32606  0.47122  1.0000
  H   H1234     1.0  0.81969  0.39448  0.00775  1.0000
  H   H1235     1.0  0.75380  0.28065  0.25226  1.0000
  H   H1236     1.0  0.90804  0.35451  0.46678  1.0000
  N   N78       1.0  0.79849  0.41325  0.11027  1.0000
  C   C776      1.0  0.81739  0.41494  0.08034  1.0000
  C   C777      1.0  0.79086  0.39923  0.11099  1.0000
  C   C778      1.0  0.77688  0.42178  0.10153  1.0000
  C   C779      1.0  0.80887  0.41709  0.14788  1.0000
  H   H1237     1.0  0.83382  0.40844  0.08517  1.0000
  H   H1238     1.0  0.75473  0.28924  0.29755  1.0000
  Fe  Fe159     1.0  0.90165  0.25432  0.31741  1.0000
  H   H1239     1.0  0.80760  0.49119  0.42556  1.0000
  H   H1240     1.0  0.78808  0.28403  0.34419  1.0000
  H   H1241     1.0  0.80505  0.49483  0.26738  1.0000
  S   S315      1.0  0.86955  0.49953  0.38139  1.0000
  H   H1242     1.0  0.78794  0.47859  0.44373  1.0000
  S   S316      1.0  0.86261  0.49859  0.28768  1.0000
  H   H1243     1.0  0.97619  0.47991  0.44895  1.0000
  C   C780      1.0  0.95977  0.47990  0.46812  1.0000
  C   C781      1.0  0.78656  0.26806  0.03410  1.0000
  C   C782      1.0  0.78366  0.49543  0.19840  1.0000
  H   H1244     1.0  0.78404  0.49547  0.16652  1.0000
  H   H1245     1.0  0.98268  0.50041  0.34397  1.0000
  N   N79       1.0  0.78662  0.49708  0.47526  1.0000
  H   H1246     1.0  0.79082  0.26562  0.06447  1.0000
  H   H1247     1.0  0.78914  0.48526  0.20755  1.0000
  H   H1248     1.0  0.74767  0.26022  0.07464  1.0000
  H   H1249     1.0  0.72747  0.25726  0.03454  1.0000
  N   N80       1.0  0.76546  0.26039  0.01950  1.0000
  H   H1250     1.0  0.96353  0.48672  0.49264  1.0000
  C   C783      1.0  0.80504  0.38743  0.01115  1.0000
  H   H1251     1.0  0.92361  0.50070  0.41563  1.0000
  S   S317      1.0  0.90830  0.25521  0.25344  1.0000
  S   S318      1.0  0.92757  0.25570  0.36881  1.0000
  H   H1252     1.0  0.80973  0.26014  0.26949  1.0000
  C   C784      1.0  0.76192  0.38181  0.00723  1.0000
  H   H1253     1.0  0.83542  0.32972  0.00995  1.0000
  H   H1254     1.0  0.75556  0.48572  0.49357  1.0000
  H   H1255     1.0  0.91797  0.49093  0.49774  1.0000
  H   H1256     1.0  0.74299  0.38463  0.00125  1.0000
  H   H1257     1.0  0.77596  0.45464  0.81605  1.0000
  Fe  Fe160     1.0  0.84071  0.43718  0.93867  1.0000
  S   S319      1.0  0.87350  0.43617  0.89781  1.0000
  S   S320      1.0  0.80040  0.43517  0.92529  1.0000
  S   S321      1.0  0.77226  0.40768  0.99173  1.0000
  Fe  Fe161     1.0  0.92690  0.43569  0.59535  1.0000
  S   S322      1.0  0.96697  0.43587  0.61095  1.0000
  S   S323      1.0  0.92149  0.43573  0.53096  1.0000
  Fe  Fe162     1.0  0.91151  0.43237  0.67969  1.0000
  S   S324      1.0  0.95073  0.43241  0.70080  1.0000
  S   S325      1.0  0.87784  0.42802  0.71649  1.0000
  Fe  Fe163     1.0  0.95560  0.44919  0.65955  1.0000
  H   H1258     1.0  0.88212  0.26821  0.65097  1.0000
  Fe  Fe164     1.0  0.95844  0.41904  0.64989  1.0000
  S   S326      1.0  0.98484  0.40144  0.65369  1.0000
  S   S327      1.0  0.91569  0.45019  0.64164  1.0000
  S   S328      1.0  0.91908  0.41788  0.63129  1.0000
  H   H1259     1.0  0.78021  0.45569  0.86691  1.0000
  S   S329      1.0  0.89528  0.27347  0.73287  1.0000
  S   S330      1.0  0.77888  0.30444  0.92201  1.0000
  Fe  Fe165     1.0  0.97990  0.32800  0.57519  1.0000
  S   S331      1.0  0.95351  0.34536  0.58564  1.0000
  H   H1260     1.0  0.82736  0.31172  0.96281  1.0000
  H   H1261     1.0  0.83629  0.46981  0.79213  1.0000
  S   S332      1.0  0.00859  0.31836  0.61247  1.0000
  C   C785      1.0  0.75968  0.26446  0.97984  1.0000
  S   S333      1.0  0.96239  0.30864  0.55877  1.0000
  C   C786      1.0  0.84262  0.25592  0.67853  1.0000
  H   H1262     1.0  0.84845  0.34997  0.92412  1.0000
  C   C787      1.0  0.92210  0.27548  0.70483  1.0000
  C   C788      1.0  0.92366  0.28651  0.68074  1.0000
  C   C789      1.0  0.94457  0.28836  0.65760  1.0000
  C   C790      1.0  0.96407  0.27916  0.65833  1.0000
  C   C791      1.0  0.96243  0.26807  0.68220  1.0000
  C   C792      1.0  0.94152  0.26622  0.70538  1.0000
  H   H1263     1.0  0.90873  0.29373  0.68021  1.0000
  H   H1264     1.0  0.94567  0.29696  0.63945  1.0000
  H   H1265     1.0  0.77514  0.26203  0.95988  1.0000
  C   C793      1.0  0.82570  0.26694  0.90172  1.0000
  C   C794      1.0  0.82164  0.27171  0.93911  1.0000
  C   C795      1.0  0.80777  0.28339  0.94567  1.0000
  C   C796      1.0  0.79768  0.29027  0.91474  1.0000
  C   C797      1.0  0.80262  0.28583  0.87724  1.0000
  C   C798      1.0  0.81665  0.27419  0.87069  1.0000
  Fe  Fe166     1.0  0.89096  0.25593  0.77242  1.0000
  H   H1266     1.0  0.80466  0.28701  0.97452  1.0000
  H   H1267     1.0  0.79506  0.29121  0.85318  1.0000
  H   H1268     1.0  0.81973  0.27058  0.84176  1.0000
  C   C799      1.0  0.97638  0.38596  0.63356  1.0000
  C   C800      1.0  0.80363  0.49153  0.50427  1.0000
  C   C801      1.0  0.98646  0.36268  0.61980  1.0000
  C   C802      1.0  0.96310  0.36089  0.60374  1.0000
  C   C803      1.0  0.94653  0.37169  0.60241  1.0000
  C   C804      1.0  0.95322  0.38419  0.61686  1.0000
  H   H1269     1.0  0.83590  0.45381  0.86711  1.0000
  Fe  Fe167     1.0  0.79822  0.42478  0.98226  1.0000
  H   H1270     1.0  0.92848  0.37040  0.58987  1.0000
  H   H1271     1.0  0.94046  0.39243  0.61491  1.0000
  H   H1272     1.0  0.97748  0.26092  0.68299  1.0000
  H   H1273     1.0  0.80705  0.34681  0.95241  1.0000
  H   H1274     1.0  0.82805  0.26177  0.66363  1.0000
  H   H1275     1.0  0.85927  0.26721  0.61398  1.0000
  H   H1276     1.0  0.85184  0.46739  0.52303  1.0000
  H   H1277     1.0  0.74305  0.25939  0.96864  1.0000
  H   H1278     1.0  0.79847  0.44416  0.83908  1.0000
  S   S334      1.0  0.74840  0.33030  0.98716  1.0000
  C   C805      1.0  0.74594  0.47120  0.91625  1.0000
  C   C806      1.0  0.73247  0.45950  0.91576  1.0000
  C   C807      1.0  0.70906  0.45926  0.89844  1.0000
  C   C808      1.0  0.69910  0.47064  0.88111  1.0000
  C   C809      1.0  0.71294  0.48224  0.88060  1.0000
  C   C810      1.0  0.73617  0.48254  0.89846  1.0000
  H   H1279     1.0  0.73985  0.45069  0.92932  1.0000
  C   C811      1.0  0.83796  0.31743  0.94135  1.0000
  H   H1280     1.0  0.80877  0.46268  0.77241  1.0000
  C   C812      1.0  0.87406  0.43380  0.84742  1.0000
  C   C813      1.0  0.85362  0.42923  0.82700  1.0000
  C   C814      1.0  0.85508  0.42747  0.78690  1.0000
  C   C815      1.0  0.87685  0.43036  0.76687  1.0000
  C   C816      1.0  0.89727  0.43487  0.78733  1.0000
  C   C817      1.0  0.89588  0.43652  0.82740  1.0000
  H   H1281     1.0  0.83685  0.42690  0.84215  1.0000
  H   H1282     1.0  0.83925  0.42387  0.77130  1.0000
  H   H1283     1.0  0.91414  0.43712  0.77235  1.0000
  H   H1284     1.0  0.91180  0.44001  0.84301  1.0000
  H   H1285     1.0  0.83046  0.31468  0.91266  1.0000
  S   S335      1.0  0.97566  0.46851  0.66771  1.0000
  H   H1286     1.0  0.78736  0.47983  0.86173  1.0000
  H   H1287     1.0  0.80005  0.48085  0.50935  1.0000
  C   C818      1.0  0.79702  0.47780  0.83407  1.0000
  C   C819      1.0  0.82706  0.46380  0.86555  1.0000
  H   H1288     1.0  0.78301  0.47868  0.81092  1.0000
  N   N81       1.0  0.80900  0.46455  0.83390  1.0000
  H   H1289     1.0  0.74658  0.49161  0.89855  1.0000
  H   H1290     1.0  0.84384  0.34579  0.99394  1.0000
  S   S336      1.0  0.77492  0.47212  0.93901  1.0000
  H   H1291     1.0  0.88199  0.45333  0.55842  1.0000
  Fe  Fe168     1.0  0.79515  0.45378  0.96038  1.0000
  S   S337      1.0  0.83568  0.45648  0.97048  1.0000
  H   H1292     1.0  0.83119  0.45240  0.79606  1.0000
  Fe  Fe169     1.0  0.98848  0.30845  0.50892  1.0000
  C   C820      1.0  0.00649  0.46880  0.68346  1.0000
  C   C821      1.0  0.82183  0.46228  0.79697  1.0000
  H   H1293     1.0  0.81812  0.46581  0.89374  1.0000
  N   N82       1.0  0.90882  0.38941  0.72009  1.0000
  C   C822      1.0  0.89353  0.39059  0.75510  1.0000
  C   C823      1.0  0.92087  0.37618  0.71823  1.0000
  C   C824      1.0  0.92788  0.39972  0.72098  1.0000
  C   C825      1.0  0.89301  0.39123  0.68599  1.0000
  H   H1294     1.0  0.87896  0.38294  0.75564  1.0000
  H   H1295     1.0  0.88414  0.40049  0.75694  1.0000
  H   H1296     1.0  0.90489  0.38948  0.78146  1.0000
  H   H1297     1.0  0.93274  0.37510  0.69222  1.0000
  H   H1298     1.0  0.93292  0.37444  0.74355  1.0000
  H   H1299     1.0  0.90708  0.36812  0.71711  1.0000
  H   H1300     1.0  0.94045  0.39855  0.74594  1.0000
  H   H1301     1.0  0.91941  0.40981  0.72304  1.0000
  H   H1302     1.0  0.93946  0.39932  0.69468  1.0000
  H   H1303     1.0  0.90388  0.39028  0.65901  1.0000
  H   H1304     1.0  0.88398  0.40123  0.68608  1.0000
  H   H1305     1.0  0.87815  0.38375  0.68471  1.0000
  H   H1306     1.0  0.86968  0.33617  0.91978  1.0000
  C   C826      1.0  0.80957  0.33598  0.94692  1.0000
  C   C827      1.0  0.84567  0.33500  0.98715  1.0000
  C   C828      1.0  0.84980  0.33905  0.91934  1.0000
  Fe  Fe170     1.0  0.76522  0.30999  0.98132  1.0000
  Fe  Fe171     1.0  0.99338  0.29903  0.59118  1.0000
  S   S338      1.0  0.99074  0.28122  0.62994  1.0000
  H   H1307     1.0  0.84264  0.33690  0.89005  1.0000
  C   C829      1.0  0.79009  0.45431  0.83913  1.0000
  S   S339      1.0  0.89949  0.25566  0.83550  1.0000
  N   N83       1.0  0.83578  0.33186  0.94868  1.0000
  H   H1308     1.0  0.69846  0.45025  0.89891  1.0000
  H   H1309     1.0  0.85746  0.31389  0.94252  1.0000
  C   C830      1.0  0.88246  0.45362  0.52744  1.0000
  H   H1310     1.0  0.94058  0.25772  0.72395  1.0000
  C   C831      1.0  0.99298  0.37516  0.63492  1.0000
  H   H1311     1.0  0.82922  0.26625  0.96296  1.0000
  H   H1312     1.0  0.79870  0.33084  0.96898  1.0000
  H   H1313     1.0  0.70150  0.49269  0.97863  1.0000
  H   H1314     1.0  0.70565  0.49102  0.86686  1.0000
  H   H1315     1.0  0.81073  0.48578  0.83018  1.0000
  H   H1316     1.0  0.84205  0.47111  0.86217  1.0000
  H   H1317     1.0  0.97151  0.35184  0.50592  1.0000
  H   H1318     1.0  0.86546  0.33212  0.98967  1.0000
  H   H1319     1.0  0.99936  0.35441  0.62104  1.0000
  H   H1320     1.0  0.85141  0.26265  0.69987  1.0000
  S   S340      1.0  0.83904  0.42528  0.99294  1.0000
  H   H1321     1.0  0.80115  0.33349  0.91868  1.0000
  H   H1322     1.0  0.75612  0.27534  0.97802  1.0000
  C   C832      1.0  0.86541  0.46155  0.50733  1.0000
  H   H1323     1.0  0.80190  0.49688  0.53218  1.0000
  H   H1324     1.0  0.00565  0.44978  0.71059  1.0000
  C   C833      1.0  0.89983  0.44591  0.50730  1.0000
  H   H1325     1.0  0.92306  0.33715  0.51153  1.0000
  S   S341      1.0  0.00454  0.32836  0.52377  1.0000
  C   C834      1.0  0.68455  0.48662  0.97682  1.0000
  H   H1326     1.0  0.68786  0.47892  0.95430  1.0000
  H   H1327     1.0  0.95269  0.32969  0.50407  1.0000
  C   C835      1.0  0.87290  0.26127  0.63062  1.0000
  H   H1328     1.0  0.94180  0.35932  0.51269  1.0000
  H   H1329     1.0  0.88734  0.25749  0.61049  1.0000
  H   H1330     1.0  0.75814  0.50171  0.51643  1.0000
  S   S342      1.0  0.98459  0.54915  0.35326  1.0000
  N   N84       1.0  0.80032  0.50547  0.21481  1.0000
  Fe  Fe172     1.0  0.69657  0.56963  0.46698  1.0000
  C   C836      1.0  0.71841  0.60266  0.48489  1.0000
  S   S343      1.0  0.96826  0.67389  0.46231  1.0000
  C   C837      1.0  0.75088  0.51198  0.38057  1.0000
  C   C838      1.0  0.86491  0.67746  0.47119  1.0000
  C   C839      1.0  0.00216  0.61301  0.44015  1.0000
  H   H1331     1.0  0.78072  0.50704  0.26848  1.0000
  Fe  Fe173     1.0  0.69432  0.54020  0.44854  1.0000
  S   S344      1.0  0.69747  0.68877  0.43154  1.0000
  H   H1332     1.0  0.86309  0.67594  0.44060  1.0000
  C   C840      1.0  0.77842  0.53513  0.38163  1.0000
  H   H1333     1.0  0.82706  0.50296  0.16953  1.0000
  S   S345      1.0  0.00618  0.70105  0.41675  1.0000
  C   C841      1.0  0.70344  0.72816  0.40886  1.0000
  C   C842      1.0  0.70743  0.71555  0.42488  1.0000
  C   C843      1.0  0.69315  0.70484  0.41288  1.0000
  H   H1334     1.0  0.88907  0.63069  0.47813  1.0000
  H   H1335     1.0  0.81221  0.51212  0.27040  1.0000
  H   H1336     1.0  0.72168  0.71413  0.44615  1.0000
  C   C844      1.0  0.88850  0.67932  0.48717  1.0000
  C   C845      1.0  0.74162  0.52323  0.39997  1.0000
  C   C846      1.0  0.75521  0.53492  0.39979  1.0000
  S   S346      1.0  0.81452  0.67500  0.47290  1.0000
  S   S347      1.0  0.74673  0.66458  0.47492  1.0000
  H   H1337     1.0  0.74820  0.54366  0.41459  1.0000
  H   H1338     1.0  0.79114  0.51713  0.49543  1.0000
  S   S348      1.0  0.68079  0.74601  0.36095  1.0000
  H   H1339     1.0  0.74950  0.61106  0.45578  1.0000
  C   C847      1.0  0.97023  0.53360  0.34819  1.0000
  C   C848      1.0  0.94474  0.53316  0.34130  1.0000
  C   C849      1.0  0.93282  0.52096  0.33610  1.0000
  H   H1340     1.0  0.71464  0.73640  0.41795  1.0000
  H   H1341     1.0  0.68465  0.58950  0.33787  1.0000
  C   C850      1.0  0.98379  0.52172  0.34962  1.0000
  H   H1342     1.0  0.93413  0.54231  0.34009  1.0000
  H   H1343     1.0  0.91315  0.52075  0.33104  1.0000
  H   H1344     1.0  0.00335  0.52192  0.35521  1.0000
  N   N85       1.0  0.78123  0.69264  0.37988  1.0000
  C   C851      1.0  0.79689  0.69965  0.40800  1.0000
  C   C852      1.0  0.78341  0.67819  0.38582  1.0000
  C   C853      1.0  0.78934  0.69582  0.34064  1.0000
  C   C854      1.0  0.75526  0.69689  0.38517  1.0000
  H   H1345     1.0  0.79611  0.71058  0.40403  1.0000
  H   H1346     1.0  0.81653  0.69634  0.40590  1.0000
  H   H1347     1.0  0.79098  0.69766  0.43792  1.0000
  H   H1348     1.0  0.80289  0.67464  0.38343  1.0000
  H   H1349     1.0  0.77702  0.67547  0.41493  1.0000
  H   H1350     1.0  0.77212  0.67253  0.36486  1.0000
  H   H1351     1.0  0.77786  0.69070  0.31874  1.0000
  H   H1352     1.0  0.80888  0.69270  0.33581  1.0000
  H   H1353     1.0  0.78791  0.70666  0.33520  1.0000
  H   H1354     1.0  0.74271  0.69167  0.36497  1.0000
  H   H1355     1.0  0.75273  0.70774  0.38077  1.0000
  H   H1356     1.0  0.74869  0.69467  0.41459  1.0000
  H   H1357     1.0  0.80448  0.52662  0.21485  1.0000
  C   C855      1.0  0.97202  0.50955  0.34333  1.0000
  S   S349      1.0  0.71456  0.52175  0.42750  1.0000
  C   C856      1.0  0.92138  0.65025  0.48861  1.0000
  H   H1358     1.0  0.90463  0.67931  0.46892  1.0000
  H   H1359     1.0  0.98368  0.61201  0.42893  1.0000
  Fe  Fe174     1.0  0.00059  0.68755  0.46766  1.0000
  C   C857      1.0  0.79235  0.51884  0.20252  1.0000
  C   C858      1.0  0.79952  0.50484  0.25708  1.0000
  Fe  Fe175     1.0  0.72409  0.68333  0.47906  1.0000
  S   S350      1.0  0.72128  0.58739  0.45990  1.0000
  H   H1360     1.0  0.69381  0.58577  0.38601  1.0000
  C   C859      1.0  0.68115  0.61142  0.38271  1.0000
  H   H1361     1.0  0.00294  0.52271  0.26923  1.0000
  C   C860      1.0  0.78822  0.52366  0.36392  1.0000
  H   H1362     1.0  0.68870  0.61349  0.35377  1.0000
  C   C861      1.0  0.94648  0.50911  0.33674  1.0000
  H   H1363     1.0  0.78908  0.54412  0.38224  1.0000
  S   S351      1.0  0.98699  0.63796  0.46236  1.0000
  H   H1364     1.0  0.81171  0.51216  0.45718  1.0000
  S   S352      1.0  0.81817  0.52387  0.34397  1.0000
  H   H1365     1.0  0.78106  0.50340  0.34822  1.0000
  H   H1366     1.0  0.91984  0.62386  0.48053  1.0000
  H   H1367     1.0  0.77319  0.52117  0.21220  1.0000
  H   H1368     1.0  0.79286  0.51973  0.17076  1.0000
  H   H1369     1.0  0.69711  0.60943  0.40212  1.0000
  H   H1370     1.0  0.00811  0.53092  0.22464  1.0000
  C   C862      1.0  0.77411  0.51217  0.36273  1.0000
  S   S353      1.0  0.69012  0.55825  0.41226  1.0000
  C   C863      1.0  0.79267  0.51112  0.46864  1.0000
  C   C864      1.0  0.73526  0.61273  0.47709  1.0000
  C   C865      1.0  0.82579  0.50280  0.20136  1.0000
  H   H1371     1.0  0.83888  0.51022  0.21302  1.0000
  H   H1372     1.0  0.74752  0.63248  0.49149  1.0000
  H   H1373     1.0  0.90614  0.65316  0.46899  1.0000
  H   H1374     1.0  0.77996  0.51566  0.44746  1.0000
  Fe  Fe176     1.0  0.83978  0.50454  0.33917  1.0000
  H   H1375     1.0  0.94289  0.50485  0.45584  1.0000
  C   C866      1.0  0.00896  0.62486  0.45856  1.0000
  H   H1376     1.0  0.99230  0.66456  0.37157  1.0000
  Fe  Fe177     1.0  0.99348  0.65848  0.48785  1.0000
  C   C867      1.0  0.68504  0.73015  0.38107  1.0000
  H   H1377     1.0  0.93667  0.64610  0.47073  1.0000
  C   C868      1.0  0.84370  0.67763  0.49445  1.0000
  C   C869      1.0  0.73416  0.62488  0.49723  1.0000
  H   H1378     1.0  0.74025  0.50298  0.38010  1.0000
  C   C870      1.0  0.67764  0.58815  0.36751  1.0000
  C   C871      1.0  0.90470  0.62851  0.49787  1.0000
  H   H1379     1.0  0.89836  0.62101  0.51875  1.0000
  S   S354      1.0  0.92046  0.68253  0.54889  1.0000
  S   S355      1.0  0.98910  0.69496  0.52634  1.0000
  C   C872      1.0  0.70957  0.55932  0.60712  1.0000
  H   H1380     1.0  0.88530  0.63953  0.56137  1.0000
  S   S356      1.0  0.98217  0.66368  0.54792  1.0000
  Fe  Fe178     1.0  0.73391  0.66056  0.53463  1.0000
  S   S357      1.0  0.76577  0.67102  0.56312  1.0000
  S   S358      1.0  0.71576  0.64160  0.55406  1.0000
  H   H1381     1.0  0.71603  0.72747  0.64829  1.0000
  H   H1382     1.0  0.75294  0.71842  0.74759  1.0000
  C   C873      1.0  0.89263  0.64661  0.54011  1.0000
  S   S359      1.0  0.75503  0.69543  0.50221  1.0000
  Fe  Fe179     1.0  0.74131  0.68930  0.56030  1.0000
  S   S360      1.0  0.73692  0.70590  0.60437  1.0000
  S   S361      1.0  0.70888  0.67847  0.53678  1.0000
  Fe  Fe180     1.0  0.95882  0.67990  0.52248  1.0000
  H   H1383     1.0  0.68547  0.72505  0.80832  1.0000
  C   C874      1.0  0.69456  0.69619  0.63727  1.0000
  H   H1384     1.0  0.68476  0.71838  0.76052  1.0000
  H   H1385     1.0  0.89875  0.65554  0.55636  1.0000
  H   H1386     1.0  0.73550  0.71462  0.83136  1.0000
  C   C875      1.0  0.68335  0.72007  0.67579  1.0000
  C   C876      1.0  0.69033  0.57887  0.58053  1.0000
  C   C877      1.0  0.71006  0.70702  0.63291  1.0000
  H   H1387     1.0  0.69524  0.55304  0.59360  1.0000
  C   C878      1.0  0.86990  0.68143  0.54990  1.0000
  H   H1388     1.0  0.72451  0.73133  0.83824  1.0000
  C   C879      1.0  0.69924  0.61697  0.53308  1.0000
  H   H1389     1.0  0.73750  0.74142  0.75906  1.0000
  C   C880      1.0  0.70426  0.71900  0.65194  1.0000
  C   C881      1.0  0.69574  0.71868  0.78742  1.0000
  H   H1390     1.0  0.83016  0.67984  0.55215  1.0000
  C   C882      1.0  0.71640  0.62696  0.52577  1.0000
  H   H1391     1.0  0.68837  0.51474  0.64388  1.0000
  C   C883      1.0  0.71961  0.58098  0.63213  1.0000
  S   S362      1.0  0.68215  0.74883  0.85449  1.0000
  C   C884      1.0  0.70000  0.60493  0.51230  1.0000
  C   C885      1.0  0.73413  0.72451  0.81759  1.0000
  H   H1392     1.0  0.92826  0.65944  0.50254  1.0000
  H   H1393     1.0  0.72727  0.57660  0.65883  1.0000
  H   H1394     1.0  0.71589  0.55412  0.63341  1.0000
  H   H1395     1.0  0.68089  0.52881  0.58680  1.0000
  C   C886      1.0  0.73413  0.71477  0.75397  1.0000
  N   N86       1.0  0.69974  0.57274  0.61603  1.0000
  H   H1396     1.0  0.69940  0.70838  0.55079  1.0000
  C   C887      1.0  0.89113  0.68119  0.52671  1.0000
  H   H1397     1.0  0.87706  0.64986  0.52142  1.0000
  N   N87       1.0  0.91312  0.64067  0.51750  1.0000
  C   C888      1.0  0.67948  0.57180  0.64422  1.0000
  H   H1398     1.0  0.68575  0.56697  0.67112  1.0000
  C   C889      1.0  0.84630  0.67967  0.53390  1.0000
  H   H1399     1.0  0.87174  0.68292  0.58052  1.0000
  H   H1400     1.0  0.94007  0.64633  0.55939  1.0000
  H   H1401     1.0  0.72421  0.71381  0.72617  1.0000
  C   C890      1.0  0.71897  0.73718  0.76406  1.0000
  H   H1402     1.0  0.67888  0.72934  0.69007  1.0000
  N   N88       1.0  0.72076  0.72378  0.78073  1.0000
  H   H1403     1.0  0.70909  0.73703  0.73616  1.0000
  H   H1404     1.0  0.69892  0.68688  0.62294  1.0000
  H   H1405     1.0  0.93880  0.75245  0.92392  1.0000
  Fe  Fe181     1.0  0.77709  0.67633  0.50299  1.0000
  H   H1406     1.0  0.70872  0.74417  0.78342  1.0000
  H   H1407     1.0  0.68531  0.61859  0.55488  1.0000
  H   H1408     1.0  0.68336  0.50846  0.93393  1.0000
  H   H1409     1.0  0.92864  0.62986  0.56477  1.0000
  S   S363      1.0  0.70431  0.55144  0.50233  1.0000
  C   C891      1.0  0.68987  0.71190  0.52457  1.0000
  H   H1410     1.0  0.73605  0.70461  0.76585  1.0000
  C   C892      1.0  0.93389  0.63739  0.54329  1.0000
  H   H1411     1.0  0.68647  0.59741  0.51762  1.0000
  H   H1412     1.0  0.75314  0.72827  0.81372  1.0000
  H   H1413     1.0  0.71279  0.59118  0.63922  1.0000
  H   H1414     1.0  0.69625  0.70846  0.79908  1.0000
  H   H1415     1.0  0.95012  0.63344  0.52695  1.0000
  H   H1416     1.0  0.72531  0.55966  0.58670  1.0000
  H   H1417     1.0  0.69672  0.72201  0.51846  1.0000
  H   H1418     1.0  0.70499  0.57944  0.55825  1.0000
  H   H1419     1.0  0.73508  0.58198  0.61137  1.0000
  H   H1420     1.0  0.68315  0.58911  0.58599  1.0000
  H   H1421     1.0  0.69584  0.70527  0.50063  1.0000
  H   H1422     1.0  0.70680  0.98903  0.34637  1.0000
  S   S364      1.0  0.98678  0.82180  0.05619  1.0000
  C   C893      1.0  0.85159  0.80735  0.99955  1.0000
  H   H1423     1.0  0.72456  0.80070  0.28435  1.0000
  Fe  Fe182     1.0  0.99500  0.83164  0.99986  1.0000
  S   S365      1.0  0.77303  0.81539  0.06850  1.0000
  H   H1424     1.0  0.82883  0.82543  0.06410  1.0000
  C   C894      1.0  0.00850  0.98303  0.13463  1.0000
  H   H1425     1.0  0.67890  0.78544  0.30866  1.0000
  Fe  Fe183     1.0  0.74315  0.80006  0.06515  1.0000
  S   S366      1.0  0.73618  0.78531  0.11285  1.0000
  H   H1426     1.0  0.71830  0.79464  0.33157  1.0000
  H   H1427     1.0  0.74674  0.79018  0.30789  1.0000
  H   H1428     1.0  0.79881  0.83588  0.02126  1.0000
  H   H1429     1.0  0.99696  0.99045  0.11917  1.0000
  C   C895      1.0  0.84355  0.85746  0.04658  1.0000
  H   H1430     1.0  0.83984  0.79547  0.04687  1.0000
  S   S367      1.0  0.69077  0.92846  0.03725  1.0000
  H   H1431     1.0  0.88252  0.79033  0.06886  1.0000
  H   H1432     1.0  0.80045  0.85312  0.01043  1.0000
  C   C896      1.0  0.68072  0.77280  0.18152  1.0000
  H   H1433     1.0  0.70896  0.75971  0.30020  1.0000
  C   C897      1.0  0.70274  0.85878  0.02636  1.0000
  H   H1434     1.0  0.69760  0.84848  0.02812  1.0000
  C   C898      1.0  0.71697  0.99716  0.25346  1.0000
  H   H1435     1.0  0.68027  0.90281  0.12162  1.0000
  C   C899      1.0  0.72666  0.79194  0.30334  1.0000
  C   C900      1.0  0.87967  0.79661  0.04425  1.0000
  H   H1436     1.0  0.72327  0.78518  0.22800  1.0000
  S   S368      1.0  0.71464  0.81419  0.04149  1.0000
  C   C901      1.0  0.72624  0.77700  0.24887  1.0000
  C   C902      1.0  0.71558  0.88562  0.02309  1.0000
  H   H1437     1.0  0.70914  0.77069  0.34067  1.0000
  N   N89       1.0  0.71479  0.78017  0.28638  1.0000
  C   C903      1.0  0.70809  0.78486  0.13874  1.0000
  C   C904      1.0  0.71788  0.76874  0.31222  1.0000
  C   C905      1.0  0.70190  0.77322  0.15817  1.0000
  C   C906      1.0  0.69270  0.79604  0.14247  1.0000
  H   H1438     1.0  0.71362  0.76451  0.15520  1.0000
  H   H1439     1.0  0.73559  0.99250  0.25033  1.0000
  H   H1440     1.0  0.73765  0.76626  0.31710  1.0000
  H   H1441     1.0  0.82039  0.85118  0.11212  1.0000
  H   H1442     1.0  0.74646  0.77527  0.25144  1.0000
  H   H1443     1.0  0.75061  0.87912  0.04601  1.0000
  C   C907      1.0  0.90020  0.80177  0.02506  1.0000
  C   C908      1.0  0.68580  0.86833  0.01283  1.0000
  H   H1444     1.0  0.79679  0.84134  0.09026  1.0000
  S   S369      1.0  0.99925  0.79325  0.01242  1.0000
  C   C909      1.0  0.72628  0.86260  0.03787  1.0000
  C   C910      1.0  0.85546  0.79950  0.03184  1.0000
  Fe  Fe184     1.0  0.74548  0.82889  0.03979  1.0000
  H   H1445     1.0  0.83323  0.86681  0.04019  1.0000
  H   H1446     1.0  0.69729  0.80507  0.12778  1.0000
  Fe  Fe185     1.0  0.96610  0.80675  0.02108  1.0000
  C   C911      1.0  0.84100  0.83417  0.06106  1.0000
  C   C912      1.0  0.73250  0.87607  0.03677  1.0000
  S   S370      1.0  0.75610  0.79208  0.00752  1.0000
  S   S371      1.0  0.93030  0.79729  0.04058  1.0000
  H   H1447     1.0  0.72981  0.00050  0.43207  1.0000
  S   S372      1.0  0.74831  0.85085  0.05382  1.0000
  H   H1448     1.0  0.70342  0.99026  0.24026  1.0000
  H   H1449     1.0  0.67792  0.97392  0.17534  1.0000
  H   H1450     1.0  0.99806  0.97365  0.13633  1.0000
  H   H1451     1.0  0.85428  0.83176  0.03761  1.0000
  Fe  Fe186     1.0  0.78366  0.80868  0.00920  1.0000
  H   H1452     1.0  0.85180  0.83520  0.08799  1.0000
  C   C913      1.0  0.69228  0.88174  0.01059  1.0000
  H   H1453     1.0  0.79860  0.85857  0.07952  1.0000
  N   N90       1.0  0.82658  0.84634  0.05261  1.0000
  H   H1454     1.0  0.68504  0.79149  0.26144  1.0000
  H   H1455     1.0  0.72937  0.98220  0.31382  1.0000
  C   C914      1.0  0.68825  0.78299  0.28105  1.0000
  C   C915      1.0  0.80995  0.84951  0.08512  1.0000
  N   N91       1.0  0.71095  0.99989  0.29412  1.0000
  H   H1456     1.0  0.85511  0.85931  0.07238  1.0000
  C   C916      1.0  0.71109  0.98731  0.31548  1.0000
  H   H1457     1.0  0.68678  1.00000  0.40775  1.0000
  H   H1458     1.0  0.95874  0.77458  0.00355  1.0000
  H   H1459     1.0  0.71824  0.76790  0.23593  1.0000
  H   H1460     1.0  0.69708  0.98035  0.30389  1.0000
  C   C917      1.0  0.81179  0.84420  0.01759  1.0000
  H   H1461     1.0  0.90803  0.99154  0.02470  1.0000
  H   H1462     1.0  0.67869  0.77430  0.26835  1.0000
  H   H1463     1.0  0.85627  0.85539  0.02209  1.0000
  H   H1464     1.0  0.72073  0.89594  0.02160  1.0000
  C   C918      1.0  0.96385  0.95989  0.75286  1.0000
  H   H1465     1.0  0.72815  0.83881  0.86726  1.0000
  S   S373      1.0  0.97172  0.81748  0.96600  1.0000
  H   H1466     1.0  0.86930  0.81863  0.95543  1.0000
  H   H1467     1.0  0.75559  0.99633  0.55901  1.0000
  N   N92       1.0  0.98974  0.95539  0.75732  1.0000
  H   H1468     1.0  0.97940  0.93539  0.77030  1.0000
  S   S374      1.0  0.70253  0.80472  0.93406  1.0000
  S   S375      1.0  0.96504  0.93908  0.88846  1.0000
  H   H1469     1.0  0.72237  0.96957  0.86592  1.0000
  C   C919      1.0  0.90536  0.99768  0.92924  1.0000
  H   H1470     1.0  0.98354  0.94591  0.81138  1.0000
  C   C920      1.0  0.97223  0.77175  0.92964  1.0000
  S   S376      1.0  0.79540  0.96764  0.83939  1.0000
  H   H1471     1.0  0.93561  0.97607  0.98718  1.0000
  H   H1472     1.0  0.72473  0.77843  0.94434  1.0000
  C   C921      1.0  0.74838  0.95902  0.94557  1.0000
  C   C922      1.0  0.74829  0.95039  0.91396  1.0000
  C   C923      1.0  0.76291  0.95309  0.88165  1.0000
  C   C924      1.0  0.77762  0.96445  0.88066  1.0000
  C   C925      1.0  0.77766  0.97308  0.91225  1.0000
  C   C926      1.0  0.76318  0.97032  0.94461  1.0000
  H   H1473     1.0  0.73740  0.94150  0.91480  1.0000
  H   H1474     1.0  0.76298  0.94632  0.85741  1.0000
  H   H1475     1.0  0.78891  0.98185  0.91180  1.0000
  C   C927      1.0  0.99921  0.87755  0.95793  1.0000
  C   C928      1.0  0.95070  0.95393  0.87315  1.0000
  C   C929      1.0  0.92505  0.95433  0.86772  1.0000
  C   C930      1.0  0.91333  0.96573  0.85303  1.0000
  C   C931      1.0  0.92729  0.97676  0.84340  1.0000
  C   C932      1.0  0.95278  0.97655  0.85024  1.0000
  C   C933      1.0  0.96442  0.96521  0.86533  1.0000
  H   H1476     1.0  0.91428  0.94566  0.87398  1.0000
  H   H1477     1.0  0.89364  0.96581  0.84797  1.0000
  H   H1478     1.0  0.96359  0.98516  0.84346  1.0000
  H   H1479     1.0  0.67672  0.83093  0.93240  1.0000
  H   H1480     1.0  0.95243  0.95215  0.73890  1.0000
  C   C934      1.0  0.93640  0.78555  0.94262  1.0000
  H   H1481     1.0  0.99369  0.85732  0.89714  1.0000
  H   H1482     1.0  0.91710  0.78606  0.95353  1.0000
  S   S377      1.0  0.75723  0.82284  0.98084  1.0000
  H   H1483     1.0  0.00420  0.97516  0.75685  1.0000
  H   H1484     1.0  0.73429  0.84872  0.95203  1.0000
  H   H1485     1.0  0.89037  0.97249  0.98833  1.0000
  H   H1486     1.0  0.95475  0.75764  0.98901  1.0000
  C   C935      1.0  0.00025  0.95191  0.71937  1.0000
  S   S378      1.0  0.91376  0.99081  0.82183  1.0000
  H   H1487     1.0  0.98405  0.96516  0.87054  1.0000
  C   C936      1.0  0.77136  0.99759  0.53901  1.0000
  H   H1488     1.0  0.67686  0.86008  0.90514  1.0000
  H   H1489     1.0  0.96245  0.96903  0.73529  1.0000
  H   H1490     1.0  0.91188  0.81391  0.97825  1.0000
  H   H1491     1.0  0.94715  0.79261  0.96034  1.0000
  C   C937      1.0  0.69670  0.78902  0.91299  1.0000
  C   C938      1.0  0.00824  0.86516  0.97009  1.0000
  C   C939      1.0  0.68601  0.95163  0.85749  1.0000
  Fe  Fe187     1.0  0.87264  0.99485  0.82676  1.0000
  H   H1492     1.0  0.70838  0.97100  0.81957  1.0000
  H   H1493     1.0  0.93063  0.76568  0.89199  1.0000
  C   C940      1.0  0.98884  0.83326  0.86660  1.0000
  H   H1494     1.0  0.99697  0.96904  0.80354  1.0000
  H   H1495     1.0  0.73414  0.85833  0.90889  1.0000
  C   C941      1.0  0.68087  0.96843  0.90670  1.0000
  C   C942      1.0  0.00595  0.85517  0.87214  1.0000
  H   H1496     1.0  0.98995  0.94372  0.70539  1.0000
  H   H1497     1.0  0.88948  0.97287  0.93683  1.0000
  Fe  Fe188     1.0  0.72893  0.80692  0.98420  1.0000
  Fe  Fe189     1.0  0.00633  0.80520  0.95970  1.0000
  H   H1498     1.0  0.70426  0.82720  0.87799  1.0000
  H   H1499     1.0  0.90712  0.99179  0.90233  1.0000
  H   H1500     1.0  0.93462  0.97615  0.93575  1.0000
  H   H1501     1.0  0.97775  0.83614  0.84113  1.0000
  H   H1502     1.0  0.76345  0.97701  0.96905  1.0000
  H   H1503     1.0  0.98433  0.77868  0.94558  1.0000
  C   C943      1.0  0.72213  0.85387  0.93103  1.0000
  C   C944      1.0  0.68710  0.85223  0.88869  1.0000
  H   H1504     1.0  0.97272  0.77484  0.89909  1.0000
  C   C945      1.0  0.88868  0.97917  0.96326  1.0000
  H   H1505     1.0  0.95519  0.96221  0.78111  1.0000
  H   H1506     1.0  0.70378  0.98382  0.85516  1.0000
  C   C946      1.0  0.68711  0.76437  0.87704  1.0000
  H   H1507     1.0  0.99270  0.82240  0.86462  1.0000
  C   C947      1.0  0.87212  0.81250  0.98036  1.0000
  S   S379      1.0  0.98703  0.85337  0.98708  1.0000
  H   H1508     1.0  0.81956  0.99968  0.52171  1.0000
  C   C948      1.0  0.99064  0.94361  0.78214  1.0000
  H   H1509     1.0  0.70209  0.83282  0.96451  1.0000
  S   S380      1.0  0.85101  0.98947  0.87918  1.0000
  Fe  Fe190     1.0  0.82022  0.98557  0.83759  1.0000
  H   H1510     1.0  0.78067  0.98778  0.53511  1.0000
  C   C949      1.0  0.71729  0.83443  0.89089  1.0000
  C   C950      1.0  0.93267  0.98253  0.96189  1.0000
  C   C951      1.0  0.71040  0.77772  0.92293  1.0000
  N   N93       1.0  0.70411  0.84471  0.91376  1.0000
  C   C952      1.0  0.70570  0.76547  0.90486  1.0000
  H   H1511     1.0  0.87000  0.98390  0.96437  1.0000
  C   C953      1.0  0.70539  0.97291  0.85071  1.0000
  H   H1512     1.0  0.67950  0.97919  0.91366  1.0000
  H   H1513     1.0  0.80875  0.99388  0.58876  1.0000
  H   H1514     1.0  0.91214  0.76273  0.93375  1.0000
  H   H1515     1.0  0.71647  0.75681  0.91263  1.0000
  C   C954      1.0  0.68982  0.83830  0.94437  1.0000
  C   C955      1.0  0.93141  0.76279  0.92270  1.0000
  S   S381      1.0  0.84280  0.98950  0.78451  1.0000
  H   H1516     1.0  0.76353  0.00051  0.51068  1.0000
  N   N94       1.0  0.94684  0.77198  0.94517  1.0000
  H   H1517     1.0  0.69694  0.96432  0.92275  1.0000
  H   H1518     1.0  0.93645  0.78923  0.91266  1.0000
  N   N95       1.0  0.90827  0.98923  0.96325  1.0000
  H   H1519     1.0  0.68768  0.94942  0.82629  1.0000
  H   H1520     1.0  0.70264  0.94745  0.87184  1.0000
  S   S382      1.0  0.82167  0.81129  0.98220  1.0000
  Fe  Fe191     1.0  0.00662  0.93628  0.88658  1.0000
  H   H1521     1.0  0.73025  0.82856  0.90896  1.0000
  H   H1522     1.0  0.97716  0.83500  0.89251  1.0000
  H   H1523     1.0  0.99984  0.96056  0.69979  1.0000
  N   N96       1.0  0.68337  0.96603  0.86501  1.0000
  S   S383      1.0  0.68348  0.92897  0.94261  1.0000
  H   H1524     1.0  0.98089  0.76171  0.93139  1.0000
  H   H1525     1.0  0.71277  0.86221  0.94659  1.0000
  H   H1526     1.0  0.94785  0.98985  0.96126  1.0000
  H   H1527     1.0  0.69724  0.85721  0.86525  1.0000
  Fe  Fe192     1.0  0.69734  0.94270  0.98884  1.0000
  C   C956      1.0  0.94721  0.76788  0.98575  1.0000
  H   H1528     1.0  0.99628  0.85886  0.84617  1.0000
  S   S384      1.0  0.73064  0.95600  0.98701  1.0000
  H   H1529     1.0  0.97973  0.87986  0.96052  1.0000
  H   H1530     1.0  0.00784  0.89641  0.93254  1.0000
  C   C957      1.0  0.00431  0.96613  0.77492  1.0000
  H   H1531     1.0  0.00982  0.93978  0.78540  1.0000
  C   C958      1.0  0.90626  0.99756  0.99828  1.0000
  H   H1532     1.0  0.78393  0.00260  0.61281  1.0000
  H   H1533     1.0  0.82365  0.84160  0.99248  1.0000
  C   C959      1.0  0.89629  0.80985  0.99324  1.0000
  H   H1534     1.0  0.67891  0.84567  0.96138  1.0000
  C   C960      1.0  0.67816  0.78793  0.88506  1.0000
  H   H1535     1.0  0.88686  0.00253  0.92876  1.0000
  H   H1536     1.0  0.92839  0.76828  0.99861  1.0000
