data_image0
_chemical_formula_structural       FeS2FeS2FeSFeS3FeS2FeS2FeSFeS3FeS2FeS2FeSFeS3FeS2FeS2FeSFeS3FeS2FeS2FeSFeS3FeS2FeS2FeSFeS3FeS2FeS2FeSFeS3FeS2FeS2FeSFeS3FeS2FeS2FeSFeS3FeS2FeS2FeSFeS3FeS2FeS2FeSFeS3FeS2FeS2FeSFeS3FeS2FeS2FeSFeS3FeS2FeS2FeSFeS3FeS2FeS2FeSFeS3FeS2FeS2FeSFeS3FeS2FeS2FeSFeS3FeS2FeS2FeSFeS3FeS2FeS2FeSFeS3FeS2FeS2FeSFeS3FeS2FeS2FeSFeS3FeS2FeS2FeSFeS3FeS2FeS2FeSFeS3FeS2FeS2FeSFeS3C6H4C6H4C6H4C6H4C6H4C6H4C6H4C6H4C6H4C6H4C6H4C6H4C6H4C6H4C6H4C6H4C6H4C6H4C6H4C6H4C6H4C6H4C6H4C6H4C6H4C6H4C6H4C6H4C6H4C6H4C6H4C6H4C6H4C6H4C6H4C6H4C6H4C6H4C6H4C6H4C6H4C6H4C6H4C6H4C6H4C6H4C6H4C6H4NC4H12NC4H12NC4H12NC4H12NC4H12NC4H12NC4H12NC4H12NC4H12NC4H12NC4H12NC4H12NC4H12NC4H12NC4H12NC4H12NC4H12NC4H12NC4H12NC4H12NC4H12NC4H12NC4H12NC4H12NC4H12NC4H12NC4H12NC4H12NC4H12NC4H12NC4H12NC4H12NC4H12NC4H12NC4H12NC4H12NC4H12NC4H12NC4H12NC4H12NC4H12NC4H12NC4H12NC4H12NC4H12NC4H12NC4H12NC4H12
_chemical_formula_sum              "Fe96 S192 C480 H768 N48"
_cell_length_a       53.518896808707744
_cell_length_b       34.216635194445374
_cell_length_c       51.18606652242854
_cell_angle_alpha    90.14247663750045
_cell_angle_beta     103.19815566411641
_cell_angle_gamma    90.34825443612111

_space_group_name_H-M_alt    "P 1"
_space_group_IT_number       1

loop_
  _space_group_symop_operation_xyz
  'x, y, z'

loop_
  _atom_site_type_symbol
  _atom_site_label
  _atom_site_symmetry_multiplicity
  _atom_site_fract_x
  _atom_site_fract_y
  _atom_site_fract_z
  _atom_site_occupancy
  Fe  Fe1       1.0  0.484455622885722  0.25475124128470894  0.4860248315121311  1.0000
  S   S1        1.0  0.5050353209398384  0.24686677289402667  0.5291445549113498  1.0000
  S   S2        1.0  0.45064583756677723  0.21423857250920972  0.47073823638976237  1.0000
  Fe  Fe2       1.0  0.5193884252504535  0.3227890223077554  0.4779402810536214  1.0000
  S   S3        1.0  0.5428398439513815  0.3193457643750245  0.5201271493490548  1.0000
  S   S4        1.0  0.5244898571263442  0.37292698069036523  0.45078827293972723  1.0000
  Fe  Fe3       1.0  0.5408423406072475  0.25417316688260067  0.5138544791435814  1.0000
  S   S5        1.0  0.5743153526411896  0.21216978672169148  0.5223574036871962  1.0000
  Fe  Fe4       1.0  0.5047900866997825  0.31257466290612645  0.5314548943951634  1.0000
  S   S6        1.0  0.49756122794606716  0.3490143274193766  0.5660321801358797  1.0000
  S   S7        1.0  0.5202428472003661  0.25821045602122716  0.4703356001503966  1.0000
  S   S8        1.0  0.4813467796523789  0.31982898882667576  0.48962001741531935  1.0000
  Fe  Fe5       1.0  0.5746761169219656  0.7282983794801191  0.0184157926713997  1.0000
  S   S9        1.0  0.5761529401487647  0.7563105461590057  0.9791279016952182  1.0000
  S   S10       1.0  0.595754521680647  0.6710238444075587  0.028224800405817423  1.0000
  Fe  Fe6       1.0  0.535414035524472  0.7874785852961259  0.028763545077624242  1.0000
  S   S11       1.0  0.5329473953149771  0.8184458357634834  0.989684221040373  1.0000
  S   S12       1.0  0.517889484694669  0.8104440084499285  0.061749213557116045  1.0000
  Fe  Fe7       1.0  0.5331322512540627  0.7577173066038642  0.9725078948182583  1.0000
  S   S13       1.0  0.5108833661200737  0.737428650524171  0.9315951312778776  1.0000
  Fe  Fe8       1.0  0.5759397634954401  0.8140073891781874  0.9999683701787594  1.0000
  S   S14       1.0  0.6018897466006462  0.8672297205926083  0.0032577447790089753  1.0000
  S   S15       1.0  0.5317004809230446  0.7270569769951194  0.010841072297560927  1.0000
  S   S16       1.0  0.5784029781241815  0.7856619108888232  0.040043870271464055  1.0000
  Fe  Fe9       1.0  0.3995207687675766  0.5137542401355717  0.5729384604154187  1.0000
  S   S17       1.0  0.4290777533307162  0.5259445939683898  0.6107739596451318  1.0000
  S   S18       1.0  0.4014416186668581  0.462053068638295  0.5457364611705542  1.0000
  Fe  Fe10      1.0  0.3676357696925792  0.5858766348490313  0.5798933809822576  1.0000
  S   S19       1.0  0.3951241761505099  0.6029144885388984  0.6185421063001227  1.0000
  S   S20       1.0  0.33607683288942336  0.6302035913399716  0.5653015845584531  1.0000
  Fe  Fe11      1.0  0.4259385675659196  0.5883263360853078  0.5967501695665766  1.0000
  S   S21       1.0  0.4610545978895223  0.6271091800405699  0.6006817023891197  1.0000
  Fe  Fe12      1.0  0.39552848350449077  0.5391542566771509  0.6288514070299663  1.0000
  S   S22       1.0  0.38990591644459077  0.5088904080712456  0.6665728764452338  1.0000
  S   S23       1.0  0.3985875358732139  0.5751978199535704  0.5575374940318968  1.0000
  S   S24       1.0  0.3657448215557175  0.5229541094853118  0.5915947023489126  1.0000
  Fe  Fe13      1.0  0.16374780230191996  0.6988311942300187  0.4641219663648929  1.0000
  S   S25       1.0  0.18306841151709735  0.6813224766236698  0.5065085004311322  1.0000
  S   S26       1.0  0.17688272729248047  0.7526863457517012  0.4443368737643331  1.0000
  Fe  Fe14      1.0  0.13497851409546568  0.6210360519113549  0.4521035068018118  1.0000
  S   S27       1.0  0.1519247063568741  0.5978730536684478  0.4928487897380405  1.0000
  S   S28       1.0  0.10647330381332229  0.5886868244587828  0.41924683458969586  1.0000
  Fe  Fe15      1.0  0.14432627610939527  0.6569008927759352  0.508456078120708  1.0000
  S   S29       1.0  0.13113918603315936  0.6470387142788017  0.5470557587627559  1.0000
  Fe  Fe16      1.0  0.18950885119068905  0.6233658900550384  0.48868137434707576  1.0000
  S   S30       1.0  0.22327567976345056  0.5824311920442192  0.5020510783674887  1.0000
  S   S31       1.0  0.12426074887817652  0.6789799515623255  0.46754370984156113  1.0000
  S   S32       1.0  0.1731383277296602  0.6419723739117886  0.44624145520726377  1.0000
  Fe  Fe17      1.0  0.04560040015392386  0.8347002925431689  0.10972489690697527  1.0000
  S   S33       1.0  0.007753885353305678  0.8290561872247831  0.08021398099886197  1.0000
  S   S34       1.0  0.08533881774447076  0.8259296443491077  0.10269028000865632  1.0000
  Fe  Fe18      1.0  0.02119012998671299  0.8565169152288143  0.15540947249323625  1.0000
  S   S35       1.0  0.9812284116233297  0.8545476997939043  0.12949597108052013  1.0000
  S   S36       1.0  0.02845711201256672  0.8601915831404328  0.2005740628840076  1.0000
  Fe  Fe19      1.0  0.9933669961376724  0.7988506972696778  0.11290045365211904  1.0000
  S   S37       1.0  0.9609766008933677  0.7539363146664299  0.10440412673541677  1.0000
  Fe  Fe20      1.0  0.9979522869954243  0.8849958156329564  0.09856866524832836  1.0000
  S   S38       1.0  0.9770807490291323  0.9259455497755542  0.0662697198248058  1.0000
  S   S39       1.0  0.03237109423400496  0.7987651527584483  0.14083564426948814  1.0000
  S   S40       1.0  0.037003252622711535  0.8926678109731662  0.12616674932016778  1.0000
  Fe  Fe21      1.0  0.13735260374466293  0.9459566468166267  0.35966251607960253  1.0000
  S   S41       1.0  0.15290296748303545  0.9314262022075235  0.3236162130079451  1.0000
  S   S42       1.0  0.11964643305606848  0.9015133223178795  0.3836659797593973  1.0000
  Fe  Fe22      1.0  0.14516759723490613  0.0346048099397402  0.35370642989143847  1.0000
  S   S43       1.0  0.16203450341221862  0.026052714238203028  0.3176464043177599  1.0000
  S   S44       1.0  0.1441356303656337  0.09519479572687256  0.37289346442312504  1.0000
  Fe  Fe23      1.0  0.1300025858111915  0.9824167134610684  0.30391059168395185  1.0000
  S   S45       1.0  0.1098615250455342  0.9855608574361642  0.25980911661973277  1.0000
  Fe  Fe24      1.0  0.18385304924127435  0.9759724319720147  0.34005204426959934  1.0000
  S   S46       1.0  0.2241572721966794  0.9575317194686774  0.3377978445315528  1.0000
  S   S47       1.0  0.11168433126076446  0.9941708602194776  0.3385702238168578  1.0000
  S   S48       1.0  0.16969526375901567  0.9872430180014048  0.3775551644988733  1.0000
  Fe  Fe25      1.0  0.3609665285383934  0.04163005013142949  0.34648674779826694  1.0000
  S   S49       1.0  0.38217974490805307  0.08188063731285349  0.3245694977062591  1.0000
  S   S50       1.0  0.3253885555835001  0.06260798802749803  0.3593213916984244  1.0000
  Fe  Fe26      1.0  0.4014553367176098  0.9790402218418137  0.35090031343777955  1.0000
  S   S51       1.0  0.4258290835512572  0.013663031338768006  0.328539292708211  1.0000
  S   S52       1.0  0.40805122131536975  0.9198670404941327  0.3709343501245249  1.0000
  Fe  Fe27      1.0  0.41790009647994275  0.06391881540861424  0.35384985139175956  1.0000
  S   S53       1.0  0.4486957440587444  0.10963415841320068  0.3681611385146481  1.0000
  Fe  Fe28      1.0  0.38836030875499167  0.029380914958995225  0.30045844604096306  1.0000
  S   S54       1.0  0.38011300290648414  0.04557154720181855  0.25634670388943503  1.0000
  S   S55       1.0  0.3963528690385114  0.028287681478088147  0.37823860283748456  1.0000
  S   S56       1.0  0.36439231886759765  0.9901967163488427  0.32040406046680275  1.0000
  Fe  Fe29      1.0  0.6584915882426327  0.009928574088120312  0.9130295929593775  1.0000
  S   S57       1.0  0.6442190856555708  0.06829346345844718  0.8959179438992119  1.0000
  S   S58       1.0  0.6295156949574573  0.9598994214306754  0.9058045647107055  1.0000
  Fe  Fe30      1.0  0.7138527816405837  0.03949507599680163  0.9302990474090502  1.0000
  S   S59       1.0  0.7036029147304123  0.09942906607325888  0.9140255473324045  1.0000
  S   S60       1.0  0.7537055657137354  0.023848495534051883  0.9541115619736822  1.0000
  Fe  Fe31      1.0  0.6698008138913293  0.09388814658472674  0.9328650898277002  1.0000
  S   S61       1.0  0.6626462510586981  0.14545227559078325  0.9579181391441285  1.0000
  Fe  Fe32      1.0  0.6790164436576055  0.06875510489738641  0.8783233370963638  1.0000
  S   S62       1.0  0.6738033938834971  0.09485235142126268  0.8366997400781429  1.0000
  S   S63       1.0  0.6814820554150098  0.035564214098037394  0.951620201790429  1.0000
  S   S64       1.0  0.6919411159748623  0.008709049553333958  0.892992114815997  1.0000
  Fe  Fe33      1.0  0.8750089882781331  0.15781007261890911  0.004448264486941023  1.0000
  S   S65       1.0  0.8710795159025342  0.15472544037866548  0.04705018704218636  1.0000
  S   S66       1.0  0.84143943871156  0.15318398327729005  0.9685184498702143  1.0000
  Fe  Fe34      1.0  0.9312356234183701  0.17942969663806072  0.019996293848867364  1.0000
  S   S67       1.0  0.9317652669614753  0.17880354419491  0.06393638162536876  1.0000
  S   S68       1.0  0.970432124666046  0.1886362224009544  0.011389644034038193  1.0000
  Fe  Fe35      1.0  0.9088464205452531  0.12357451160294264  0.055171642186563015  1.0000
  S   S69       1.0  0.919493370796134  0.07920912680821499  0.0886184760897246  1.0000
  Fe  Fe36      1.0  0.8943554574992045  0.21029417924147317  0.05325418133231721  1.0000
  S   S70       1.0  0.8829854666709632  0.25201068674594473  0.08306583056104938  1.0000
  S   S71       1.0  0.910988858716636  0.12141341543852972  0.011826263665075443  1.0000
  S   S72       1.0  0.8956261969934419  0.21612639838211686  0.009838908032723914  1.0000
  Fe  Fe37      1.0  0.06733090803353478  0.3676903388456063  0.39139870911603114  1.0000
  S   S73       1.0  0.03177274278863213  0.39623487117878  0.367699458515764  1.0000
  S   S74       1.0  0.09835578979391173  0.4024806043310607  0.41999029327547144  1.0000
  Fe  Fe38      1.0  0.05030221632337929  0.2850837834365441  0.37011455603625854  1.0000
  S   S75       1.0  0.012791820097086907  0.3085067745200729  0.3459338140349356  1.0000
  S   S76       1.0  0.053408151681135926  0.2197568340464415  0.360959858630321  1.0000
  Fe  Fe39      1.0  0.0363162291322528  0.356599387476772  0.33423637385989957  1.0000
  S   S77       1.0  0.03157434415562278  0.3725215646520109  0.2906244826899663  1.0000
  Fe  Fe40      1.0  0.011181112804167895  0.3456785483177883  0.3816056983004609  1.0000
  S   S78       1.0  0.972798379642464  0.35980107817316  0.3909903794977466  1.0000
  S   S79       1.0  0.07401680178348134  0.3320602926790573  0.3565902574709968  1.0000
  S   S80       1.0  0.04648809913566087  0.31853054783321466  0.4073082347996673  1.0000
  Fe  Fe41      1.0  0.9137237942759603  0.46558813430791224  0.1329841782834197  1.0000
  S   S81       1.0  0.8865690805468419  0.45799677043015385  0.160371384637164  1.0000
  S   S82       1.0  0.9209558323620846  0.42873551649234276  0.09866376447095491  1.0000
  Fe  Fe42      1.0  0.9359333790348587  0.5425563410137108  0.1585308166320738  1.0000
  S   S83       1.0  0.9110923400468843  0.5415318838958828  0.18845753506100155  1.0000
  S   S84       1.0  0.9686555247039693  0.5849012944768347  0.1572405045965773  1.0000
  Fe  Fe43      1.0  0.9201054407332759  0.47750599816953576  0.1931063568868433  1.0000
  S   S85       1.0  0.9254681069097069  0.4505878884824878  0.23438861271977984  1.0000
  Fe  Fe44      1.0  0.8791518404350026  0.5222043913636881  0.15405407322087825  1.0000
  S   S86       1.0  0.8409319931040101  0.5525480241321664  0.15034666240750455  1.0000
  S   S87       1.0  0.9477841899116152  0.4798166619303464  0.1663694910121123  1.0000
  S   S88       1.0  0.9033826265908405  0.5285458484571762  0.12363337385829094  1.0000
  Fe  Fe45      1.0  0.7016664621786858  0.49624276778479204  0.15850601590232097  1.0000
  S   S89       1.0  0.6942238913001937  0.5417714496409785  0.18782819010869267  1.0000
  S   S90       1.0  0.7381947315648362  0.46317230854154673  0.15770409095620783  1.0000
  Fe  Fe46      1.0  0.6458361839435048  0.4917795457187861  0.12810446079537205  1.0000
  S   S91       1.0  0.6337295390262456  0.5356888711388803  0.15487360144667178  1.0000
  S   S92       1.0  0.6173620775366098  0.4732898125035603  0.09036707147940633  1.0000
  Fe  Fe47      1.0  0.6685710156063762  0.5694162071989308  0.15144080809355862  1.0000
  S   S93       1.0  0.6594047476918544  0.6336532690604098  0.1459718053078974  1.0000
  Fe  Fe48      1.0  0.6595696804471036  0.505182813659845  0.18932321190363113  1.0000
  S   S94       1.0  0.641082313525837  0.4959266002595421  0.22457317608697305  1.0000
  S   S95       1.0  0.6793085931534129  0.5274838898024563  0.1221144296080551  1.0000
  S   S96       1.0  0.6685142116277899  0.45742656580271573  0.16259135504779618  1.0000
  Fe  Fe49      1.0  0.5384785930357894  0.23528389758576487  0.9848158927742908  1.0000
  S   S97       1.0  0.5332831666290268  0.22353598206191289  0.026388945559248634  1.0000
  S   S98       1.0  0.5475416235477144  0.19033981480667186  0.9559374814460395  1.0000
  Fe  Fe50      1.0  0.518596382813792  0.3187429276234781  0.9840004919028134  1.0000
  S   S99       1.0  0.5113390410655996  0.3144098725265995  0.025483537924792833  1.0000
  S   S100      1.0  0.5154303427097394  0.3732236335850534  0.9583525228506419  1.0000
  Fe  Fe51      1.0  0.5495656323034869  0.28431400151265435  0.035888572677888274  1.0000
  S   S101      1.0  0.5791856925188581  0.297510633893363  0.07414242123031697  1.0000
  Fe  Fe52      1.0  0.4955971786012375  0.2541523345145543  0.012975839908205387  1.0000
  S   S102      1.0  0.4572504269334688  0.23044691697767397  0.017706130223489554  1.0000
  S   S103      1.0  0.5581806479613379  0.2931197200623429  0.9954365007737919  1.0000
  S   S104      1.0  0.4994947828149264  0.26161300478609256  0.970515849471979  1.0000
  Fe  Fe53      1.0  0.5044576254548268  0.7725331211719634  0.5033242419989298  1.0000
  S   S105      1.0  0.5224226760648303  0.766541618975612  0.46788320261156857  1.0000
  S   S106      1.0  0.4699791642813546  0.733731763696872  0.5022840663159276  1.0000
  Fe  Fe54      1.0  0.5429496257040854  0.8344133051955281  0.5303709657970782  1.0000
  S   S107      1.0  0.5641114773324798  0.8329366239646817  0.49741454803767937  1.0000
  S   S108      1.0  0.5535280161332988  0.8719370638832564  0.567835033999805  1.0000
  Fe  Fe55      1.0  0.5249812079256169  0.83213385350542  0.4695440134324222  1.0000
  S   S109      1.0  0.520447852329514  0.8711273285396625  0.4331591056962153  1.0000
  Fe  Fe56      1.0  0.5598088351523366  0.7677014549602047  0.49846162543660244  1.0000
  S   S110      1.0  0.5943390001552163  0.7288310376790936  0.5000715341939711  1.0000
  S   S111      1.0  0.5038382489813769  0.8382657189996581  0.5024576089051055  1.0000
  S   S112      1.0  0.5416800290412055  0.7690316246976672  0.533925775999502  1.0000
  Fe  Fe57      1.0  0.4226161435763896  0.04032680511587195  0.08720941284029239  1.0000
  S   S113      1.0  0.4379649666244308  0.9808572313839301  0.10070932124317407  1.0000
  S   S114      1.0  0.4530239326918995  0.08778752308640517  0.09595075963794783  1.0000
  Fe  Fe58      1.0  0.36753035208541535  0.00907711063755845  0.06989604266100728  1.0000
  S   S115      1.0  0.37903228915837767  0.9479954465455489  0.0825616080477913  1.0000
  S   S116      1.0  0.3265954670336534  0.024120321768849484  0.04947188504360461  1.0000
  Fe  Fe59      1.0  0.4037684633179098  0.9763887476826805  0.11913013268788436  1.0000
  S   S117      1.0  0.4068760630627885  0.9497263525197711  0.16017478619511305  1.0000
  Fe  Fe60      1.0  0.4118322406707735  0.9588150255098237  0.06287244312001679  1.0000
  S   S118      1.0  0.4196280541465906  0.9179195588587279  0.03103729234158596  1.0000
  S   S119      1.0  0.3899131903833863  0.0371337679645614  0.1080625942642482  1.0000
  S   S120      1.0  0.3989123814566948  0.018607585112816016  0.04791961566071316  1.0000
  Fe  Fe61      1.0  0.1448284120242669  0.8822511560630396  0.9815576562179055  1.0000
  S   S121      1.0  0.14466078780225103  0.8816147612951751  0.9375412168349472  1.0000
  S   S122      1.0  0.10523631416649391  0.8806111921436178  0.990562926542621  1.0000
  Fe  Fe62      1.0  0.20234215731565658  0.8973792352910963  0.9975266155070214  1.0000
  S   S123      1.0  0.20613919752056045  0.8994686229309649  0.9548358751163248  1.0000
  S   S124      1.0  0.23712463222145808  0.897570677850588  0.032491534864065974  1.0000
  Fe  Fe63      1.0  0.16986003615546177  0.9346437394311038  0.9470725835654866  1.0000
  S   S125      1.0  0.16109623644929216  0.9829578294069474  0.916159232636332  1.0000
  Fe  Fe64      1.0  0.1805197776510808  0.8462853349373382  0.948735670022802  1.0000
  S   S126      1.0  0.19214006389206553  0.7996462041695575  0.9221894920016355  1.0000
  S   S127      1.0  0.1681891564423236  0.9375260265135285  0.9904867770924366  1.0000
  S   S128      1.0  0.17867048848705902  0.8418304355379628  0.9920897570030951  1.0000
  Fe  Fe65      1.0  0.024504496066510617  0.6929666631031275  0.6692037244424508  1.0000
  S   S129      1.0  0.9822242777097765  0.7047575938721073  0.6553785109285565  1.0000
  S   S130      1.0  0.03465239310603812  0.6556640680112007  0.7066441246462173  1.0000
  Fe  Fe66      1.0  0.03715421038257771  0.7398880131535943  0.6235699076642991  1.0000
  S   S131      1.0  0.9958806084470239  0.7558317027277445  0.6068997385573933  1.0000
  S   S132      1.0  0.06538531498544951  0.763750412732587  0.6004754294016507  1.0000
  Fe  Fe67      1.0  0.9940389107141907  0.7669609414871876  0.6496874430994803  1.0000
  S   S133      1.0  0.9729268026630348  0.8144686428398871  0.6674757867819129  1.0000
  Fe  Fe68      1.0  0.9876980493009226  0.6925755001730508  0.6140431165110837  1.0000
  S   S134      1.0  0.9621502676348749  0.6592151190174037  0.5794504808695546  1.0000
  S   S135      1.0  0.036121998169431624  0.7557751548492206  0.6661458577540811  1.0000
  S   S136      1.0  0.029133596785918536  0.6760341920526389  0.6280552930747243  1.0000
  Fe  Fe69      1.0  0.14927623469903997  0.5931673802602896  0.8642975557936495  1.0000
  S   S137      1.0  0.1801202591271282  0.6055019299982708  0.8422849337080268  1.0000
  S   S138      1.0  0.13568821731254202  0.6367189898751678  0.8912853548507467  1.0000
  Fe  Fe70      1.0  0.1384409877526721  0.5103788503485749  0.8396683397656219  1.0000
  S   S139      1.0  0.1693543632153813  0.5169607244941103  0.8165707128791221  1.0000
  S   S140      1.0  0.10934852605142789  0.46067669662812866  0.8287559390246155  1.0000
  Fe  Fe71      1.0  0.1929429016935939  0.5444941249020089  0.8542552833429786  1.0000
  S   S141      1.0  0.23384236919016296  0.5326001866956777  0.8764222335908508  1.0000
  Fe  Fe72      1.0  0.15335509886431167  0.5771966756759795  0.8069806985780847  1.0000
  S   S142      1.0  0.14686096586291575  0.6034433852228223  0.7654346905387042  1.0000
  S   S143      1.0  0.16316148225626856  0.533273558934318  0.8783041685341484  1.0000
  S   S144      1.0  0.12148664072046429  0.5696536364512105  0.8281713116153424  1.0000
  Fe  Fe73      1.0  0.4186436258855108  0.5637111643449767  0.8798797349836619  1.0000
  S   S145      1.0  0.4419683745202497  0.5234546518622393  0.8604004777952967  1.0000
  S   S146      1.0  0.4352942333334051  0.591300074871849  0.9204662989150552  1.0000
  Fe  Fe74      1.0  0.3682475508513206  0.5433472103510416  0.839407779852628  1.0000
  S   S147      1.0  0.3876729637611037  0.49996568139963316  0.8176744449190975  1.0000
  S   S148      1.0  0.3271537713313799  0.5603605041669899  0.8206395241209262  1.0000
  Fe  Fe75      1.0  0.4094139469403383  0.4811692192077379  0.8587002515957828  1.0000
  S   S149      1.0  0.4141286914605267  0.4184261700923583  0.8728982914706688  1.0000
  Fe  Fe76      1.0  0.4183096583255038  0.545931878687493  0.8210933236998443  1.0000
  S   S150      1.0  0.43406914380433964  0.5681309509245536  0.7862324570830377  1.0000
  S   S151      1.0  0.3869468145989418  0.5202929092830981  0.880014376554788  1.0000
  S   S152      1.0  0.39801422251356555  0.5904759130480555  0.8410197788230878  1.0000
  Fe  Fe77      1.0  0.9173115725423675  0.39383365534923925  0.5176037110399365  1.0000
  S   S153      1.0  0.9187134626022909  0.39171437090472105  0.5616916573626938  1.0000
  S   S154      1.0  0.9533686534931234  0.3682086208044098  0.5084858147896513  1.0000
  Fe  Fe78      1.0  0.8632734405085076  0.4274797007947576  0.5048077582550282  1.0000
  S   S155      1.0  0.860643243359268  0.4278860862475289  0.5478425197723295  1.0000
  S   S156      1.0  0.8301471302417022  0.44157361924398497  0.4696358583994197  1.0000
  Fe  Fe79      1.0  0.9011190898590241  0.451276531738754  0.5564580698456922  1.0000
  S   S157      1.0  0.9154277780414884  0.49084831016952746  0.5924399825264134  1.0000
  Fe  Fe80      1.0  0.8787082082901948  0.3685140981542345  0.5502788197444508  1.0000
  S   S158      1.0  0.863237883782819  0.32011613533975447  0.5724879751708657  1.0000
  S   S159      1.0  0.9027747212419671  0.4556732097067416  0.5129501279878762  1.0000
  S   S160      1.0  0.8782440363898687  0.36582418183119597  0.5064127799243215  1.0000
  Fe  Fe81      1.0  0.6711895030122172  0.5214644094713744  0.38146855738281976  1.0000
  S   S161      1.0  0.6779730679590766  0.5683512230691776  0.4133402338032398  1.0000
  S   S162      1.0  0.6911673254895235  0.5328659007579795  0.34735844581144515  1.0000
  Fe  Fe82      1.0  0.6446694750794512  0.46787235131486254  0.4155082814513953  1.0000
  S   S163      1.0  0.6494329738010325  0.5114940030427071  0.4490207848741159  1.0000
  S   S164      1.0  0.6327005098822134  0.40642742160177964  0.4237712930115545  1.0000
  Fe  Fe83      1.0  0.6373832239907744  0.5559041405250127  0.41637658242116354  1.0000
  S   S165      1.0  0.6053895581433366  0.6003135704053331  0.41364171704924435  1.0000
  Fe  Fe84      1.0  0.6894329646043985  0.5190080996170062  0.4425677776573668  1.0000
  S   S166      1.0  0.724024085382865  0.5177863089181685  0.4778903790239886  1.0000
  S   S167      1.0  0.6298814186854106  0.5113646543766944  0.38271618942712976  1.0000
  S   S168      1.0  0.685283454893999  0.473293150224223  0.4107442094274476  1.0000
  Fe  Fe85      1.0  0.05046738793172889  0.1895156065776897  0.843333839242934  1.0000
  S   S169      1.0  0.0906528311631902  0.19599848518726343  0.8686345965615112  1.0000
  S   S170      1.0  0.041988228362168104  0.17441491831709593  0.7991497971671288  1.0000
  Fe  Fe86      1.0  0.025699361812964863  0.21614890904493642  0.887415632535861  1.0000
  S   S171      1.0  0.06328650769846397  0.22600404444161054  0.9164794851695793  1.0000
  S   S172      1.0  0.9857455532029942  0.22351762028454863  0.8942915818786727  1.0000
  Fe  Fe87      1.0  0.07710416669309224  0.2530266684191986  0.8822388773077012  1.0000
  S   S173      1.0  0.10692164044763199  0.30171283132218985  0.8931870468732424  1.0000
  Fe  Fe88      1.0  0.07489437642995624  0.16879051694463582  0.9013891760862947  1.0000
  S   S174      1.0  0.09702581924287945  0.13122438537700876  0.9351220674351804  1.0000
  S   S175      1.0  0.03810712349219418  0.24882621482919698  0.8543036693578537  1.0000
  S   S176      1.0  0.03593690134108497  0.156622983618692  0.8748284398931174  1.0000
  Fe  Fe89      1.0  0.9322552190302832  0.037952924518726894  0.6502913074531445  1.0000
  S   S177      1.0  0.9090618723647403  0.026363272248527858  0.6805951279727963  1.0000
  S   S178      1.0  0.953278108182215  0.991937655819085  0.6315390916816009  1.0000
  Fe  Fe90      1.0  0.919087557431098  0.12585615417638515  0.6478493448622772  1.0000
  S   S179      1.0  0.8943360322319033  0.1202070728701957  0.678000879686722  1.0000
  S   S180      1.0  0.9325886076899109  0.1814324812655303  0.6308022024352767  1.0000
  Fe  Fe91      1.0  0.9262010016233976  0.08196875312327559  0.7004581672718978  1.0000
  S   S181      1.0  0.9411133265507379  0.0797719208523518  0.7455051170628237  1.0000
  Fe  Fe92      1.0  0.8793076727765606  0.06499667189505381  0.655330167613061  1.0000
  S   S182      1.0  0.8399636421372669  0.036591538831928894  0.6422443218976135  1.0000
  S   S183      1.0  0.9518328942969532  0.09076838404449566  0.6719736006992841  1.0000
  S   S184      1.0  0.901744601885666  0.07361543104649981  0.6235156467782532  1.0000
  Fe  Fe93      1.0  0.6420311203708943  0.08757985653783193  0.6456348295258867  1.0000
  S   S185      1.0  0.6350819712446762  0.024410938882017952  0.6542053062708039  1.0000
  S   S186      1.0  0.6073123542400946  0.12720628552206895  0.6351616399966769  1.0000
  Fe  Fe94      1.0  0.7003815537656626  0.07702415549938517  0.6576694950356907  1.0000
  S   S187      1.0  0.6975764861707326  0.013038686785250775  0.665627003483869  1.0000
  S   S188      1.0  0.7386202483649916  0.10915676921724926  0.6669849985976812  1.0000
  Fe  Fe95      1.0  0.664135075499356  0.012394950505184132  0.6299117339819227  1.0000
  S   S189      1.0  0.6581572621437651  0.9678214363406004  0.5962420382771632  1.0000
  Fe  Fe96      1.0  0.66889492758771  0.030847334260216908  0.6893204091943949  1.0000
  S   S190      1.0  0.6741104364418942  0.0009601696000809398  0.7297066961346198  1.0000
  S   S191      1.0  0.6695153750402592  0.07536166969088631  0.6194766634059732  1.0000
  S   S192      1.0  0.6731431663518804  0.09509666982856313  0.6831155254971439  1.0000
  C   C1        1.0  0.8120102898834451  0.057326907482501355  0.6492795120291645  1.0000
  C   C2        1.0  0.7885944180584481  0.036911883973226756  0.6416550893847722  1.0000
  C   C3        1.0  0.7659058638734787  0.052561978485030636  0.6467640270073635  1.0000
  C   C4        1.0  0.7664746829120043  0.08889676205773012  0.6594471974960967  1.0000
  C   C5        1.0  0.7899075181652083  0.10922176819677341  0.6672009886675518  1.0000
  C   C6        1.0  0.8126204763746172  0.09350355534909498  0.6621826759172055  1.0000
  H   H1        1.0  0.7879460064771017  0.008938603506119192  0.6316292799532236  1.0000
  H   H2        1.0  0.747967449523616  0.036656609218461034  0.6407088648999322  1.0000
  H   H3        1.0  0.7904754122141969  0.13734009905808078  0.6770404228770942  1.0000
  H   H4        1.0  0.8305208932740545  0.10951540084579825  0.6680823758520177  1.0000
  C   C7        1.0  0.013993924310129469  0.14782721262124535  0.7845663179838317  1.0000
  C   C8        1.0  0.0031202184705043656  0.15205361416334157  0.7570712269462017  1.0000
  C   C9        1.0  0.9806682618649385  0.13147558002372695  0.7448769679119223  1.0000
  C   C10       1.0  0.9693734629981957  0.1057147482445068  0.7600021366125153  1.0000
  C   C11       1.0  0.9804671806569938  0.10097482011426835  0.7874096259498258  1.0000
  C   C12       1.0  0.002557225955810871  0.12230498538704447  0.7997496917020561  1.0000
  H   H5        1.0  0.011895398325555195  0.17181557669976347  0.7452452718257231  1.0000
  H   H6        1.0  0.9720779263792063  0.13575848414374114  0.7238219810301378  1.0000
  H   H7        1.0  0.9718089224802506  0.08100813223707289  0.7991965822957702  1.0000
  H   H8        1.0  0.01098550480875482  0.11852890554656417  0.8208833632391285  1.0000
  C   C13       1.0  0.8003422050230493  0.4597790068826842  0.47360750865274065  1.0000
  C   C14       1.0  0.7979476693370019  0.4799455779780837  0.4967188136035931  1.0000
  C   C15       1.0  0.7743273647321571  0.49699802108470026  0.4980013673186324  1.0000
  C   C16       1.0  0.75290299898305  0.49377861078340146  0.4763293328186655  1.0000
  C   C17       1.0  0.7550981282599508  0.4723694327788834  0.45367354268197857  1.0000
  C   C18       1.0  0.7787388433984195  0.4557697601753965  0.45224382482877973  1.0000
  H   H9        1.0  0.8144825447488164  0.48340557476697427  0.5132717095464401  1.0000
  H   H10       1.0  0.7728296778634121  0.5133988225088544  0.5156811590880462  1.0000
  H   H11       1.0  0.7387331859223164  0.4690476674386978  0.4370526452902493  1.0000
  H   H12       1.0  0.7803935021111491  0.4398421700817998  0.43442956141521333  1.0000
  C   C19       1.0  0.8827090426645672  0.28217156894132944  0.5892762619312832  1.0000
  C   C20       1.0  0.8710758782181666  0.24918685143520092  0.5978643170933311  1.0000
  C   C21       1.0  0.8860450144214647  0.2181012404967593  0.6108366702053337  1.0000
  C   C22       1.0  0.9127978376184951  0.21998634796738278  0.6154435548485695  1.0000
  C   C23       1.0  0.9244168028498732  0.2532896096952013  0.6072297161452387  1.0000
  C   C24       1.0  0.9094674478547996  0.2842776501608927  0.5942083128523773  1.0000
  H   H13       1.0  0.8503653750569068  0.24740363903129794  0.5942192423296201  1.0000
  H   H14       1.0  0.8768936611852916  0.19262219149061843  0.6171235223855157  1.0000
  H   H15       1.0  0.9451304960304507  0.255024031625034  0.6109985250645561  1.0000
  H   H16       1.0  0.9186658888495893  0.3096533231402975  0.5879541864392827  1.0000
  C   C25       1.0  0.10907382244487974  0.41672321119579675  0.8470426122530891  1.0000
  C   C26       1.0  0.1277209666623528  0.40878939295314703  0.8703646385041268  1.0000
  C   C27       1.0  0.1267618140052832  0.3734505518191397  0.88423231123885  1.0000
  C   C28       1.0  0.10719674950701107  0.34573317175105606  0.8749673599467982  1.0000
  C   C29       1.0  0.08858860703623875  0.35362518781251906  0.8515982655552865  1.0000
  C   C30       1.0  0.08954880995452134  0.3889570721156883  0.8377261687542311  1.0000
  H   H17       1.0  0.14284534519069197  0.42986971970327437  0.8777467570734937  1.0000
  H   H18       1.0  0.14122623545302096  0.36764867141876845  0.9022942269507208  1.0000
  H   H19       1.0  0.07344401674044226  0.33256351674996854  0.8442585197722886  1.0000
  H   H20       1.0  0.07501210863352845  0.3948267759005482  0.8197441303247239  1.0000
  C   C31       1.0  0.3015139760051684  0.5521670090168911  0.8365205189057578  1.0000
  C   C32       1.0  0.30552130308188985  0.536440222095316  0.8623272363216642  1.0000
  C   C33       1.0  0.2845966553127924  0.5305612705739224  0.8743256326420931  1.0000
  C   C34       1.0  0.2595548680397314  0.540143118467094  0.8605785242476593  1.0000
  C   C35       1.0  0.2555579028096389  0.5559715362304835  0.8348155317674866  1.0000
  C   C36       1.0  0.27648550549747203  0.5620095665142637  0.8228737918127039  1.0000
  H   H21       1.0  0.32469901044351024  0.5287163974915862  0.8729857492971898  1.0000
  H   H22       1.0  0.287806668543185  0.5181987949290621  0.8942313254448816  1.0000
  H   H23       1.0  0.23635755744543266  0.5634762010507953  0.8240630948465887  1.0000
  H   H24       1.0  0.27322876967343995  0.5741749064725362  0.8029102098820069  1.0000
  C   C37       1.0  0.9683297203817587  0.8638889333161481  0.6574201643198723  1.0000
  C   C38       1.0  0.9564707229716668  0.8892551283851905  0.6725102959697311  1.0000
  C   C39       1.0  0.9520269509759769  0.9286446640540639  0.6650905789405583  1.0000
  C   C40       1.0  0.9591791975431828  0.9429688406608386  0.6422725142077603  1.0000
  C   C41       1.0  0.9711873004639243  0.9177341667804734  0.6272852318707224  1.0000
  C   C42       1.0  0.9757875826769475  0.8783687453782162  0.63481662102925  1.0000
  H   H25       1.0  0.9506840382414714  0.8782153722742702  0.6900456757724106  1.0000
  H   H26       1.0  0.9429876579538508  0.947744837851681  0.6769762854763863  1.0000
  H   H27       1.0  0.9769183149999483  0.9285885000264011  0.6096727344033911  1.0000
  H   H28       1.0  0.9849709163871362  0.8591496205317999  0.6230797764360128  1.0000
  C   C43       1.0  0.9501454136883404  0.611903302206621  0.583531732019017  1.0000
  C   C44       1.0  0.9377640943783596  0.5906422416772114  0.5606594019143034  1.0000
  C   C45       1.0  0.9274868911116273  0.5532114841394411  0.5630905841212333  1.0000
  C   C46       1.0  0.9292305917680697  0.5369684735223171  0.5884849591613643  1.0000
  C   C47       1.0  0.9417420462854978  0.5581416723545409  0.611355643710705  1.0000
  C   C48       1.0  0.9523449849894497  0.5953673102788052  0.6089045941997697  1.0000
  H   H29       1.0  0.9358534615759933  0.6033252848583098  0.5409817715732775  1.0000
  H   H30       1.0  0.9177692926428951  0.5372836440004954  0.5453653288138334  1.0000
  H   H31       1.0  0.9431342220609968  0.5458414428400494  0.6310728991756098  1.0000
  H   H32       1.0  0.9617738452844395  0.6115498755962161  0.6266544575916024  1.0000
  C   C49       1.0  0.06612048931091846  0.6420361269273748  0.7223136050552795  1.0000
  C   C50       1.0  0.06980464605532398  0.6199961008270602  0.7459076170102616  1.0000
  C   C51       1.0  0.0944511525593244  0.6080721253869966  0.7591352761549327  1.0000
  C   C52       1.0  0.11570138546928745  0.618116856689885  0.7489573313237133  1.0000
  C   C53       1.0  0.11207069281317486  0.6401722951260999  0.7253070683747519  1.0000
  C   C54       1.0  0.08731341078580827  0.6522288974759332  0.712004299858056  1.0000
  H   H33       1.0  0.053423454698345176  0.6120123627213038  0.7538994650767215  1.0000
  H   H34       1.0  0.09683488718809725  0.5906997864352924  0.7769808906675557  1.0000
  H   H35       1.0  0.12843170719183106  0.6480636629165893  0.7172620235121843  1.0000
  H   H36       1.0  0.08460731169398379  0.6692554176223915  0.6937859763438883  1.0000
  C   C55       1.0  0.14401202389175785  0.024795086797587906  0.9217841804690904  1.0000
  C   C56       1.0  0.14237978714513924  0.03578886123393226  0.9476495412959428  1.0000
  C   C57       1.0  0.1284465571633012  0.06917325255044315  0.9514549478762299  1.0000
  C   C58       1.0  0.11553639721580934  0.09114265908044414  0.929411916888572  1.0000
  C   C59       1.0  0.11724213025581388  0.08032456458088923  0.9035424553223088  1.0000
  C   C60       1.0  0.13163273403532225  0.04737324963543044  0.8997917251836847  1.0000
  H   H37       1.0  0.1521250131599434  0.018843217915540444  0.964723667200204  1.0000
  H   H38       1.0  0.1273518066452244  0.07764440921114878  0.9715461546401215  1.0000
  H   H39       1.0  0.10739947292689181  0.09715715495383223  0.8864385189725756  1.0000
  H   H40       1.0  0.13294924690946963  0.03902743202426806  0.879740010834614  1.0000
  C   C61       1.0  0.175525209860588  0.7551824988196081  0.9134567952449755  1.0000
  C   C62       1.0  0.15545971249038565  0.7433019578820865  0.9250092579778836  1.0000
  C   C63       1.0  0.14339514672494486  0.7068421650794082  0.918063194275029  1.0000
  C   C64       1.0  0.15136856607266938  0.6820883120735183  0.8996500524371631  1.0000
  C   C65       1.0  0.1712453389750687  0.6942177200055465  0.887912938790457  1.0000
  C   C66       1.0  0.1832093077317367  0.7306515386483563  0.8947548849720565  1.0000
  H   H41       1.0  0.14942552115919291  0.7620411823509391  0.939462182603552  1.0000
  H   H42       1.0  0.12793898200988993  0.6977269076279556  0.9271569051123455  1.0000
  H   H43       1.0  0.1775402105798094  0.6756365932635032  0.8736560248059463  1.0000
  H   H44       1.0  0.1986619853456382  0.7398605394858501  0.885683127091322  1.0000
  C   C67       1.0  0.3021026252182905  0.988142493601335  0.04364703787291842  1.0000
  C   C68       1.0  0.3063528096623703  0.9509496950336229  0.054909113957639324  1.0000
  C   C69       1.0  0.28633748951612864  0.9233266114384184  0.05096656819493517  1.0000
  C   C70       1.0  0.2620423270549027  0.9322529617470195  0.03510631694235622  1.0000
  C   C71       1.0  0.25795314691392884  0.9689644993873253  0.022973418379618065  1.0000
  C   C72       1.0  0.27788601794260454  0.9969827415087418  0.027495422988096863  1.0000
  H   H45       1.0  0.3249694835812033  0.9434723416611521  0.06681552194601914  1.0000
  H   H46       1.0  0.28961670475952317  0.8948402431219838  0.060213205066507625  1.0000
  H   H47       1.0  0.23922788431380906  0.9761287924975593  0.010786777373405387  1.0000
  H   H48       1.0  0.27443509314357234  0.025675969732301462  0.018600719454825988  1.0000
  C   C73       1.0  0.5837715648376571  0.8954413380814868  0.5762328410213771  1.0000
  C   C74       1.0  0.5991835489168303  0.8989649135373793  0.5576547447640794  1.0000
  C   C75       1.0  0.6222888845046263  0.9204127876909477  0.5642683154959682  1.0000
  C   C76       1.0  0.630123742878759  0.9385601719882426  0.5894450956468192  1.0000
  C   C77       1.0  0.615031155977837  0.934281166222015  0.6082540210927194  1.0000
  C   C78       1.0  0.5918842016029262  0.9129247140324108  0.6016244122207953  1.0000
  H   H49       1.0  0.5931288351308629  0.8857992368287613  0.538036044248561  1.0000
  H   H50       1.0  0.6339538391564358  0.923451037457395  0.5496791223275093  1.0000
  H   H51       1.0  0.6212321571531039  0.947286945720127  0.6279448615132234  1.0000
  H   H52       1.0  0.5801770773963927  0.9100182895219535  0.6161856051724036  1.0000
  C   C79       1.0  0.5967870644813257  0.6925732500899576  0.4761668192575158  1.0000
  C   C80       1.0  0.6196271918946634  0.6712228264670805  0.4795101871769526  1.0000
  C   C81       1.0  0.6224597837769328  0.6423317518315862  0.46078823199664554  1.0000
  C   C82       1.0  0.6024869252802878  0.6348749951442089  0.43844053988796683  1.0000
  C   C83       1.0  0.5795749039470358  0.6560929996974784  0.43521483994530236  1.0000
  C   C84       1.0  0.5766105739541036  0.6845805949054143  0.4541143220614612  1.0000
  H   H53       1.0  0.6352862793025232  0.6771145461660335  0.49661929500772406  1.0000
  H   H54       1.0  0.6401785334827181  0.6261710069544717  0.46344834101505117  1.0000
  H   H55       1.0  0.5640145308472322  0.6502686537464372  0.4179980537373174  1.0000
  H   H56       1.0  0.5587476179828714  0.7002482203935563  0.451522990195743  1.0000
  C   C85       1.0  0.4872986818674081  0.3841688461193912  0.9340960859136939  1.0000
  C   C86       1.0  0.4651002039825129  0.361171023526073  0.9308207574503108  1.0000
  C   C87       1.0  0.4430136740500686  0.37113322915460106  0.9112754854061393  1.0000
  C   C88       1.0  0.4428106006232744  0.4046159384017714  0.8954066968931271  1.0000
  C   C89       1.0  0.46517318428994336  0.4270954592132646  0.8983820838784912  1.0000
  C   C90       1.0  0.48736217943837357  0.41678384485115505  0.9175719544490566  1.0000
  H   H57       1.0  0.4648776364559832  0.33587617602123565  0.9434291816983643  1.0000
  H   H58       1.0  0.4258015329705513  0.3534421530774032  0.9089473798268399  1.0000
  H   H59       1.0  0.46540374918811644  0.45245287464789147  0.8859265936273221  1.0000
  H   H60       1.0  0.5045777344292863  0.4344235807088794  0.9198066276627095  1.0000
  C   C91       1.0  0.45672035408596845  0.18945899233295435  0.038556320639361145  1.0000
  C   C92       1.0  0.43405065930010894  0.16728364650806463  0.03565860034572523  1.0000
  C   C93       1.0  0.4328564492231972  0.13524159848194095  0.052572251036638595  1.0000
  C   C94       1.0  0.4542038034668026  0.1257605176096156  0.07289921046931656  1.0000
  C   C95       1.0  0.4768272502472601  0.1479740216115117  0.07584049965118149  1.0000
  C   C96       1.0  0.4781883577188208  0.17943569406908227  0.05856573748514731  1.0000
  H   H61       1.0  0.4173582130687395  0.1749951055025997  0.020282832693368356  1.0000
  H   H62       1.0  0.4152845465025262  0.11848513184290341  0.05022911091340047  1.0000
  H   H63       1.0  0.49339811277190254  0.14091225332728496  0.09154919959626881  1.0000
  H   H64       1.0  0.4956560800963959  0.1965072686911446  0.061129467683791384  1.0000
  C   C97       1.0  0.655859830050013  0.5048012661514775  0.25869971531541286  1.0000
  C   C98       1.0  0.6809135468664143  0.5194579383352964  0.2666644170839217  1.0000
  C   C99       1.0  0.6914593185223694  0.5278956378563294  0.29391475862615973  1.0000
  C   C100      1.0  0.6771446905218781  0.5215383466492259  0.31340974763021223  1.0000
  C   C101      1.0  0.6521318173348579  0.50685023348769  0.3054378372898775  1.0000
  C   C102      1.0  0.6415470978057339  0.49859822388734193  0.2781845602919396  1.0000
  H   H65       1.0  0.6921941647536813  0.5241036430683098  0.25189286727430826  1.0000
  H   H66       1.0  0.7108590402141312  0.5391281882329355  0.2999467160010808  1.0000
  H   H67       1.0  0.6409269924246401  0.5018139988806749  0.3202520850770127  1.0000
  H   H68       1.0  0.6221428146353155  0.4872771040097371  0.27219286235388873  1.0000
  C   C103      1.0  0.6063384728563627  0.42460835656717044  0.08662932639277605  1.0000
  C   C104      1.0  0.6132122037084241  0.3976401161076024  0.1074661532404848  1.0000
  C   C105      1.0  0.6047498782787067  0.3586280340820465  0.10349508903912437  1.0000
  C   C106      1.0  0.5891187097548939  0.346635148397173  0.07884351276493395  1.0000
  C   C107      1.0  0.5820016228799877  0.37381103674283184  0.05817243305882933  1.0000
  C   C108      1.0  0.5906721398008632  0.4126707917584525  0.062044592063288995  1.0000
  H   H69       1.0  0.6248330079400145  0.40682659864750603  0.12665950271127124  1.0000
  H   H70       1.0  0.6100395874724136  0.3377173490485545  0.11960924378505287  1.0000
  H   H71       1.0  0.569938734764256  0.36476375277204237  0.03912840772959721  1.0000
  H   H72       1.0  0.5852821623401349  0.43340070728323793  0.04584635334116488  1.0000
  C   C109      1.0  0.8122964239228986  0.527173927854295  0.15143805401771382  1.0000
  C   C110      1.0  0.7908028858858283  0.548477269937258  0.15453953591479788  1.0000
  C   C111      1.0  0.7678930650171706  0.5292529072487395  0.15621085513151445  1.0000
  C   C112      1.0  0.7663275351492396  0.48848182835382525  0.15480650718072303  1.0000
  C   C113      1.0  0.7877600821459816  0.4671246841363602  0.15150946532170093  1.0000
  C   C114      1.0  0.8106414434332057  0.4863962607775289  0.1497284610253299  1.0000
  H   H73       1.0  0.7918869812256278  0.5800508661169164  0.1556985177658569  1.0000
  H   H74       1.0  0.7514942465267402  0.5460115879227483  0.1586634839061605  1.0000
  H   H75       1.0  0.7866276729644245  0.43558350988489686  0.15019168306022054  1.0000
  H   H76       1.0  0.8268797390625571  0.46979716543830435  0.14670831919396243  1.0000
  C   C115      1.0  0.0021334049691046353  0.3945113635428724  0.27523499186737294  1.0000
  C   C116      1.0  0.9982791402705009  0.40806722866616596  0.24876525288682666  1.0000
  C   C117      1.0  0.974924119203353  0.42551106418720125  0.23606622142349998  1.0000
  C   C118      1.0  0.9552091248969296  0.42929726866764784  0.24973072547345024  1.0000
  C   C119      1.0  0.9590430352011652  0.41557457998925  0.2761704108480409  1.0000
  C   C120      1.0  0.9824434513200477  0.39834566818825673  0.2889271579856707  1.0000
  H   H77       1.0  0.013426077061330144  0.40521812337480534  0.2380700393443559  1.0000
  H   H78       1.0  0.9721889711577701  0.4358452800593134  0.21570191153906892  1.0000
  H   H79       1.0  0.9439015043319717  0.41830925495830945  0.286882053935733  1.0000
  H   H80       1.0  0.9851855467423376  0.3878969891782919  0.3093135809822396  1.0000
  C   C121      1.0  0.9671223651531129  0.3596537728157088  0.423589709137402  1.0000
  C   C122      1.0  0.9852561583857313  0.3454317346788574  0.4455806368353211  1.0000
  C   C123      1.0  0.9807302362925854  0.34820273172404903  0.47151307222084704  1.0000
  C   C124      1.0  0.958025584649217  0.3649345705838388  0.4755944511141583  1.0000
  C   C125      1.0  0.9396876766680593  0.37850982687228163  0.4535948587736517  1.0000
  C   C126      1.0  0.9442414533805306  0.3758161316567486  0.4276602218975263  1.0000
  H   H81       1.0  0.0027558388990285287  0.3323516429346478  0.4426111848057385  1.0000
  H   H82       1.0  0.9949076791383226  0.3374018392575017  0.4884850077456563  1.0000
  H   H83       1.0  0.9220920424214673  0.39131962685361643  0.45655291787388297  1.0000
  H   H84       1.0  0.9301076352482148  0.38676230215086604  0.41069446173156965  1.0000
  C   C127      1.0  0.9739777540077595  0.1972100620145829  0.9784674929759017  1.0000
  C   C128      1.0  0.9528648904232092  0.20433702588971336  0.9572945621536073  1.0000
  C   C129      1.0  0.9566310632488454  0.212261507823202  0.9314772094364834  1.0000
  C   C130      1.0  0.9814451129559091  0.21257621277336475  0.9266713383843856  1.0000
  C   C131      1.0  0.002448593212985406  0.20458532926530695  0.9477520422534399  1.0000
  C   C132      1.0  0.9987311039697674  0.1972099105788947  0.9735876954161232  1.0000
  H   H85       1.0  0.9337120266037546  0.20447062448161749  0.9608991507823114  1.0000
  H   H86       1.0  0.9402883173742312  0.2184510477685759  0.9152768899542767  1.0000
  H   H87       1.0  0.02161600303310718  0.20476040261381084  0.944284533660316  1.0000
  H   H88       1.0  0.015156329622203701  0.19192169309287838  0.9898841366320059  1.0000
  C   C133      1.0  0.8941785810516427  0.30081696251226187  0.08730279444867863  1.0000
  C   C134      1.0  0.9089423683835655  0.3172688380696582  0.07082074045674813  1.0000
  C   C135      1.0  0.9171068902572643  0.3565001744525941  0.0745746643078499  1.0000
  C   C136      1.0  0.9107451222798801  0.3793934542712526  0.09491898931854137  1.0000
  C   C137      1.0  0.8962329443861249  0.3627647377008208  0.11159120192189577  1.0000
  C   C138      1.0  0.887912844694597  0.32365280207083297  0.10771597763495622  1.0000
  H   H89       1.0  0.9138229600588262  0.29995171274085985  0.0550021419662362  1.0000
  H   H90       1.0  0.9283067220696111  0.36916277612888426  0.061579817055312014  1.0000
  H   H91       1.0  0.891214685943475  0.380139054537808  0.12728178698586748  1.0000
  H   H92       1.0  0.876438171114261  0.3111551717674735  0.12048703145253983  1.0000
  C   C139      1.0  0.6305839154169641  0.1574457551043343  0.957471287235111  1.0000
  C   C140      1.0  0.6101639133899833  0.13719515880190525  0.9409930351445884  1.0000
  C   C141      1.0  0.5847686161279406  0.14755965646072897  0.9407814901966108  1.0000
  C   C142      1.0  0.5796493020882945  0.1779239399325417  0.9572203061571996  1.0000
  C   C143      1.0  0.6000404857576138  0.19817316297013618  0.9737743906716476  1.0000
  C   C144      1.0  0.6254744098096009  0.1879997674729151  0.9738204909663103  1.0000
  H   H93       1.0  0.6139038317258573  0.1135223518791315  0.9284452757992466  1.0000
  H   H94       1.0  0.5690375046958831  0.13174580507883898  0.9280108709250495  1.0000
  H   H95       1.0  0.5962203665653713  0.22157214796148322  0.9865413261385488  1.0000
  H   H96       1.0  0.6412012668084603  0.20371799137990068  0.9866440955966963  1.0000
  C   C145      1.0  0.7785507274725155  0.05900357440077665  0.9574993840605339  1.0000
  C   C146      1.0  0.7768417459441241  0.08995631775645167  0.9394331212973613  1.0000
  C   C147      1.0  0.7964838061816615  0.11823673106467102  0.9429109606371138  1.0000
  C   C148      1.0  0.8178936379989286  0.11602299106769196  0.9645835697960099  1.0000
  C   C149      1.0  0.8196807840512229  0.08505286933348087  0.9827019949966523  1.0000
  C   C150      1.0  0.8001059885073833  0.05647990497728389  0.979039909897911  1.0000
  H   H97       1.0  0.7605675381089061  0.09181579142976352  0.9225289106782036  1.0000
  H   H98       1.0  0.7950797396863138  0.14200567870699804  0.9287483139366226  1.0000
  H   H99       1.0  0.8361382172613971  0.08308491181933762  0.9994289024583899  1.0000
  H   H100      1.0  0.8015462051654177  0.0325242056200565  0.9930485899942717  1.0000
  C   C151      1.0  0.6757453973067553  0.06896766308371419  0.8073637605795618  1.0000
  C   C152      1.0  0.6845096520143302  0.030473745225640503  0.808264118571036  1.0000
  C   C153      1.0  0.6838249268068264  0.009900902587442584  0.7842783715995982  1.0000
  C   C154      1.0  0.6750040468222016  0.027975797578572745  0.7592894278286828  1.0000
  C   C155      1.0  0.6670193175267782  0.06683685535091885  0.7584059298370481  1.0000
  C   C156      1.0  0.6673264010587313  0.08718654485084353  0.7823764320721115  1.0000
  H   H101      1.0  0.6916921089106907  0.01651962992852596  0.8274259917838898  1.0000
  H   H102      1.0  0.6902256136241203  0.9798959607204885  0.7850821674983526  1.0000
  H   H103      1.0  0.6601566675694769  0.08103611526529267  0.7392706392895917  1.0000
  H   H104      1.0  0.6606468993298781  0.11705994666217069  0.7815379503065397  1.0000
  C   C157      1.0  0.3886741499223067  0.018618952328327554  0.23040345447598665  1.0000
  C   C158      1.0  0.3998243855087321  0.981655708159594  0.23461018045291185  1.0000
  C   C159      1.0  0.40565257390035603  0.9609498690828884  0.21296432536291462  1.0000
  C   C160      1.0  0.4006229388124461  0.9772468887253527  0.18715440243424733  1.0000
  C   C161      1.0  0.3897423666465859  0.014391759379442703  0.1830935050124637  1.0000
  C   C162      1.0  0.3836752950460892  0.03486013830323205  0.20459135265821762  1.0000
  H   H105      1.0  0.4036954790323964  0.9688975867400633  0.25444606579648965  1.0000
  H   H106      1.0  0.4139892510936055  0.9321274610670318  0.21624734357541167  1.0000
  H   H107      1.0  0.3856231544574046  0.02721124851955117  0.16337879059190077  1.0000
  H   H108      1.0  0.37497194779723064  0.06343250243950341  0.20125871181649732  1.0000
  C   C163      1.0  0.4393481814439839  0.9078550846779783  0.38900331830719254  1.0000
  C   C164      1.0  0.46089697371290916  0.9287052695656943  0.3854697414473199  1.0000
  C   C165      1.0  0.4856564230330184  0.9173103849078929  0.39919355772034565  1.0000
  C   C166      1.0  0.48903056665001565  0.8856063530492774  0.4170104335533547  1.0000
  C   C167      1.0  0.46743851762378635  0.8653425583121808  0.4210357279163197  1.0000
  C   C168      1.0  0.4427191474103782  0.8761797298087421  0.4068498278066831  1.0000
  H   H109      1.0  0.4585437869428763  0.953055594755939  0.37170859316305765  1.0000
  H   H110      1.0  0.502244345920396  0.9330904094999292  0.3959348625029769  1.0000
  H   H111      1.0  0.46981356064351837  0.8407732877976749  0.43462473539653085  1.0000
  H   H112      1.0  0.42618676699402147  0.8597880575344341  0.4096182840389043  1.0000
  C   C169      1.0  0.11892011180546262  0.13007385593234774  0.36821028388654503  1.0000
  C   C170      1.0  0.09401415456176666  0.12134467706678571  0.3537425035620672  1.0000
  C   C171      1.0  0.07429298837522266  0.14910395909778904  0.35194274754421445  1.0000
  C   C172      1.0  0.07922012914987984  0.1861537416460565  0.36415818400858935  1.0000
  C   C173      1.0  0.1042263339862285  0.19519501509380965  0.3781633787909851  1.0000
  C   C174      1.0  0.12386777148785735  0.16716507124123312  0.380357580317765  1.0000
  H   H113      1.0  0.08986787369149099  0.09307967064896419  0.34416064899620974  1.0000
  H   H114      1.0  0.055047937317389425  0.14180969703933952  0.3409655500774909  1.0000
  H   H115      1.0  0.10837218954941959  0.22351493897094685  0.38766933847216256  1.0000
  H   H116      1.0  0.1430496668571901  0.17426969691181365  0.3916155510407899  1.0000
  C   C175      1.0  0.25126894631775865  0.9888351273271958  0.3422758578078059  1.0000
  C   C176      1.0  0.27291042605941784  0.9760559333617046  0.33352971194246794  1.0000
  C   C177      1.0  0.2953711416876057  0.9990600778878788  0.33779672888524664  1.0000
  C   C178      1.0  0.2966416857366578  0.034689839377364015  0.35147407898810273  1.0000
  C   C179      1.0  0.27497800874429223  0.047639686421652165  0.3601187749047028  1.0000
  C   C180      1.0  0.2522882132654362  0.02495155469251095  0.35537073732042207  1.0000
  H   H117      1.0  0.2721928007893351  0.9482735402863385  0.32323470934542636  1.0000
  H   H118      1.0  0.31173393557631757  0.9890235305687695  0.33069536485232304  1.0000
  H   H119      1.0  0.2757395899709938  0.07520065091828047  0.37067290624310273  1.0000
  H   H120      1.0  0.2357563970809858  0.035034609826261214  0.3622483430786032  1.0000
  C   C181      1.0  0.9634976464138061  0.7064982659165231  0.11846665591868837  1.0000
  C   C182      1.0  0.9411074336558585  0.6840252412502507  0.116872429785861  1.0000
  C   C183      1.0  0.9422692277293998  0.6467883640348497  0.12878000794053288  1.0000
  C   C184      1.0  0.9659120076493146  0.6316600368800491  0.14223301143024264  1.0000
  C   C185      1.0  0.9883028936686443  0.6539931262346623  0.14358026395129367  1.0000
  C   C186      1.0  0.9871342099779835  0.6912272324156687  0.13175201765396238  1.0000
  H   H121      1.0  0.9227172764089049  0.6955710893287008  0.10659015679916951  1.0000
  H   H122      1.0  0.9248956745211594  0.6298286302487909  0.12756717216506885  1.0000
  H   H123      1.0  0.006698547052642834  0.6423052120016696  0.15374958386589152  1.0000
  H   H124      1.0  0.0045550892212400385  0.7079548390654004  0.13276787621797387  1.0000
  C   C187      1.0  0.9600438407335212  0.9670599850728399  0.0731250669240298  1.0000
  C   C188      1.0  0.9461960681374698  0.9889341429286299  0.05151284415281192  1.0000
  C   C189      1.0  0.9334194011840736  0.02312047789963545  0.05608176554990952  1.0000
  C   C190      1.0  0.9343180485066448  0.03549389384486495  0.08230561071621528  1.0000
  C   C191      1.0  0.9476874882278289  0.01314405058356938  0.103935613864929  1.0000
  C   C192      1.0  0.9606149330043807  0.9790101337862717  0.09937838479983238  1.0000
  H   H125      1.0  0.9455889760090049  0.9796823670274069  0.03114253125875126  1.0000
  H   H126      1.0  0.9227515776867181  0.039812324751484  0.03932769328520698  1.0000
  H   H127      1.0  0.9483718374076873  0.022558156912060312  0.12428512108173069  1.0000
  H   H128      1.0  0.9712708747636298  0.9623115497639108  0.1161453119783049  1.0000
  C   C193      1.0  0.050417191802886036  0.8958053559401289  0.21722846546658267  1.0000
  C   C194      1.0  0.05703265046745452  0.9279891973322376  0.20340248132126393  1.0000
  C   C195      1.0  0.07494750368262164  0.9556250976300725  0.21690314562465837  1.0000
  C   C196      1.0  0.08654887357429167  0.9511156826008229  0.24423494916469535  1.0000
  C   C197      1.0  0.07990338636970877  0.9189586803836777  0.25810388330977235  1.0000
  C   C198      1.0  0.061751289805537915  0.8914864667859641  0.24463720762421728  1.0000
  H   H129      1.0  0.04809659142685671  0.931903749219693  0.18240941429847388  1.0000
  H   H130      1.0  0.07993260219215137  0.9806068330825173  0.20615453949284418  1.0000
  H   H131      1.0  0.08876608101387647  0.9153046643991776  0.27917617485182195  1.0000
  H   H132      1.0  0.056671605800512795  0.8666961256261765  0.25547960968091005  1.0000
  C   C199      1.0  0.09092915130089446  0.8419041318522594  0.07169969675547136  1.0000
  C   C200      1.0  0.0710652586064518  0.8572539693321881  0.05184113097527643  1.0000
  C   C201      1.0  0.0758068112848151  0.8690868977570835  0.02712465880205531  1.0000
  C   C202      1.0  0.1004603620015387  0.8660267208534254  0.022146399496309147  1.0000
  C   C203      1.0  0.12044569772453365  0.8512495962151791  0.042144976289033104  1.0000
  C   C204      1.0  0.11564688197746938  0.8390897972694854  0.06682771721974914  1.0000
  H   H133      1.0  0.051984411717064125  0.859632280118879  0.05538646846642871  1.0000
  H   H134      1.0  0.06026090556440244  0.8804139170063066  0.011739658378921547  1.0000
  H   H135      1.0  0.1394984574452304  0.8487312960686735  0.03846598935426315  1.0000
  H   H136      1.0  0.13110620971712655  0.827191568996097  0.08206564075084202  1.0000
  C   C205      1.0  0.11312407480288797  0.6803190196667614  0.561523431628207  1.0000
  C   C206      1.0  0.10847349978797419  0.7184640993197311  0.5519973466261062  1.0000
  C   C207      1.0  0.09407642416623782  0.744009306292895  0.5643373621336164  1.0000
  C   C208      1.0  0.0839612226607547  0.7313941352904118  0.5859393480809911  1.0000
  C   C209      1.0  0.08851801277041738  0.6931875328052975  0.5953118347652205  1.0000
  C   C210      1.0  0.10315691492464486  0.6678356361998486  0.5832339345169958  1.0000
  H   H137      1.0  0.11618186022292205  0.728418021966315  0.5353691963014422  1.0000
  H   H138      1.0  0.09069827379390626  0.7736328367080462  0.5570891557207963  1.0000
  H   H139      1.0  0.08116026438296245  0.6834170180730678  0.6122033092710644  1.0000
  H   H140      1.0  0.1068089984313916  0.638431128830658  0.5908041351787496  1.0000
  C   C211      1.0  0.10445618711172813  0.536875739195702  0.41964198395359503  1.0000
  C   C212      1.0  0.08659505848755729  0.5173403938041656  0.3993115914174657  1.0000
  C   C213      1.0  0.08466569075803534  0.47620560129387424  0.39898285322986865  1.0000
  C   C214      1.0  0.10049719829589786  0.45419884199697863  0.4191145412251707  1.0000
  C   C215      1.0  0.11824070498544498  0.4737540958821595  0.4394881655009099  1.0000
  C   C216      1.0  0.12024384053291505  0.5148401907147465  0.4397626178155851  1.0000
  H   H141      1.0  0.07442948716707735  0.5340608688409889  0.38353589990382625  1.0000
  H   H142      1.0  0.07123450949402683  0.46154794870605276  0.38292135330606736  1.0000
  H   H143      1.0  0.13066243527561458  0.45700913781694386  0.45507109079385116  1.0000
  H   H144      1.0  0.13421707341193292  0.5293584629451978  0.4554154836146883  1.0000
  C   C217      1.0  0.16041388784060986  0.7940113980270622  0.42799371465184194  1.0000
  C   C218      1.0  0.17384149926796189  0.8201830807072914  0.4149348935587588  1.0000
  C   C219      1.0  0.1616098105655318  0.8529637129265707  0.40111607208936  1.0000
  C   C220      1.0  0.13574750689846368  0.8600870298517631  0.4002944525094416  1.0000
  C   C221      1.0  0.12223694043743044  0.8338062251636175  0.41323811247027137  1.0000
  C   C222      1.0  0.13445355026605516  0.800877831317694  0.426976256934776  1.0000
  H   H145      1.0  0.1939044873212196  0.8151241224156335  0.41552778893004877  1.0000
  H   H146      1.0  0.17226601272653627  0.872873166733944  0.39126818913272815  1.0000
  H   H147      1.0  0.10223977121085806  0.8391263944288139  0.41279055206616144  1.0000
  H   H148      1.0  0.12388485315894483  0.7811769448075098  0.4370361917471551  1.0000
  C   C223      1.0  0.46487565304907713  0.6546666645951115  0.5728085752897122  1.0000
  C   C224      1.0  0.48348039541687143  0.6845098776728984  0.5763289457765935  1.0000
  C   C225      1.0  0.4855972736621528  0.7087151057039603  0.5547413967916638  1.0000
  C   C226      1.0  0.4690884770181795  0.7030675803608076  0.5295556199234446  1.0000
  C   C227      1.0  0.4509710451244448  0.6726709372172424  0.5259180992487235  1.0000
  C   C228      1.0  0.4489595718872225  0.6484428454033655  0.5474145300313449  1.0000
  H   H149      1.0  0.49582212457567576  0.6895823886012673  0.5959762073172699  1.0000
  H   H150      1.0  0.49944844322074805  0.7323995223273613  0.5578059092303539  1.0000
  H   H151      1.0  0.4383126624494269  0.6679805771082853  0.5063923853994805  1.0000
  H   H152      1.0  0.4349411414995272  0.6251901108157425  0.5442897209116729  1.0000
  C   C229      1.0  0.3047829742698622  0.6164434894900983  0.5477918226672794  1.0000
  C   C230      1.0  0.2982403023620765  0.5774349612374738  0.5413100753659685  1.0000
  C   C231      1.0  0.2732383040923732  0.5676209256060619  0.527089054387344  1.0000
  C   C232      1.0  0.2545705728508528  0.5966235814176807  0.5192576737341593  1.0000
  C   C233      1.0  0.2610232276967667  0.6356275315365475  0.5259480050451797  1.0000
  C   C234      1.0  0.28606233742525655  0.6454628313387208  0.5401334296911133  1.0000
  H   H153      1.0  0.3124875913876949  0.5548509240074974  0.5470311014032464  1.0000
  H   H154      1.0  0.2683878627598741  0.5373747788394434  0.5219780783709393  1.0000
  H   H155      1.0  0.24683527495467594  0.6582263604410088  0.5199694616397171  1.0000
  H   H156      1.0  0.2909787197629684  0.6757226755005665  0.5450385349929311  1.0000
  C   C235      1.0  0.40275869792821267  0.525742486090693  0.6996142618561401  1.0000
  C   C236      1.0  0.396817428376367  0.5051707520126785  0.7211508527161515  1.0000
  C   C237      1.0  0.4065853962922878  0.5175043864416695  0.7477850209107546  1.0000
  C   C238      1.0  0.4223885378344708  0.5505968022470988  0.7531188268075268  1.0000
  C   C239      1.0  0.4285556388847135  0.5709685745421518  0.7315855241087494  1.0000
  C   C240      1.0  0.41869323055854907  0.5587209785309734  0.704897315863556  1.0000
  H   H157      1.0  0.3845817487550001  0.4795344667683726  0.7172438368480004  1.0000
  H   H158      1.0  0.4019205129475706  0.5013251306905067  0.7641662339538478  1.0000
  H   H159      1.0  0.4409177110214299  0.5964700798418413  0.7355643122286273  1.0000
  H   H160      1.0  0.42352264545549695  0.5746620069081104  0.6884741371821701  1.0000
  C   C241      1.0  0.6153077960830322  0.6639130234150247  0.060621558154468756  1.0000
  C   C242      1.0  0.614585153992326  0.6891629654234457  0.08200104136045795  1.0000
  C   C243      1.0  0.6286733227088347  0.6803217286577106  0.10809081064983803  1.0000
  C   C244      1.0  0.6432402848074578  0.6459993418942679  0.11294772292326277  1.0000
  C   C245      1.0  0.6441557399455058  0.6211885428253148  0.09145864488140722  1.0000
  C   C246      1.0  0.6304896943028502  0.6303211294931247  0.06541255846335267  1.0000
  H   H161      1.0  0.6029407688288649  0.7152014753156768  0.07852681235805026  1.0000
  H   H162      1.0  0.6279600805258344  0.6998369530965259  0.12456008170348702  1.0000
  H   H163      1.0  0.6556265814755495  0.595097460500141  0.0948023815056876  1.0000
  H   H164      1.0  0.6315123720605474  0.6109817025239984  0.04894368644258473  1.0000
  C   C247      1.0  0.6092694828258874  0.8922363511766929  0.9757454583988547  1.0000
  C   C248      1.0  0.6264177100012793  0.924053398737259  0.9808451592727284  1.0000
  C   C249      1.0  0.632785019514985  0.9449672212598075  0.9596124651591763  1.0000
  C   C250      1.0  0.6219547577480969  0.9343002140863009  0.9330431493255483  1.0000
  C   C251      1.0  0.6046281642190379  0.9026325821589756  0.9279105309750194  1.0000
  C   C252      1.0  0.5982986112289486  0.881613090541238  0.9491818022652757  1.0000
  H   H165      1.0  0.6349845411068625  0.9324443403463184  0.001338804066773891  1.0000
  H   H166      1.0  0.6461053640895995  0.969278080444841  0.9638302493826809  1.0000
  H   H167      1.0  0.5961431584071419  0.8942248873103723  0.9074111089249206  1.0000
  H   H168      1.0  0.5850168126508573  0.857222608943929  0.9450290721502991  1.0000
  C   C253      1.0  0.4559486228577003  0.6322376499298195  0.9230091623969957  1.0000
  C   C254      1.0  0.4631309588443902  0.647752706582376  0.9005307155995065  1.0000
  C   C255      1.0  0.4797153869452435  0.6803645756590998  0.9033691615256677  1.0000
  C   C256      1.0  0.4892810088647578  0.6975430636764337  0.9286562741572322  1.0000
  C   C257      1.0  0.4820808591020539  0.6819597227628696  0.9511013642264764  1.0000
  C   C258      1.0  0.46552885969076496  0.6493862769032697  0.9482800751250765  1.0000
  H   H169      1.0  0.45580882389883803  0.6347734230624988  0.8809547145746918  1.0000
  H   H170      1.0  0.48510732154243297  0.6923539488217108  0.8858836312544365  1.0000
  H   H171      1.0  0.48896699534779303  0.695264014446644  0.9705796644858036  1.0000
  H   H172      1.0  0.4598787036060023  0.637738674594123  0.9657107276265217  1.0000
  C   C259      1.0  0.49037763406829615  0.8397318895877937  0.0528852931803105  1.0000
  C   C260      1.0  0.4828426723389276  0.8619448597599262  0.0727972838584563  1.0000
  C   C261      1.0  0.4612765972844714  0.8862647785156841  0.06625221454240371  1.0000
  C   C262      1.0  0.4469893455842454  0.8881744987228274  0.03977088081378853  1.0000
  C   C263      1.0  0.45447528560774453  0.8658552385573762  0.019851030204729697  1.0000
  C   C264      1.0  0.4761672369835889  0.84173143653882  0.026365130257637405  1.0000
  H   H173      1.0  0.49372978090905106  0.8603576555645529  0.09336026893820515  1.0000
  H   H174      1.0  0.45554178450056954  0.903108876097484  0.08176491565685029  1.0000
  H   H175      1.0  0.44342288805620056  0.8671039336051304  0.9993455637262321  1.0000
  H   H176      1.0  0.4817295705600852  0.8244309453544697  0.010934344883811509  1.0000
  C   C265      1.0  0.4503419954184593  0.18532500315133665  0.44222448380020385  1.0000
  C   C266      1.0  0.4350794832929264  0.15139881461188534  0.4378198694351344  1.0000
  C   C267      1.0  0.43455678906523265  0.12766416617342913  0.4152418122250308  1.0000
  C   C268      1.0  0.4490956430662016  0.13809432722697124  0.3968439336455922  1.0000
  C   C269      1.0  0.4644731150687552  0.17188817464661107  0.4013480176249398  1.0000
  C   C270      1.0  0.46512751659990426  0.1954527161737662  0.42399980997482395  1.0000
  H   H177      1.0  0.4238443177653544  0.14327950627435224  0.4520849386501086  1.0000
  H   H178      1.0  0.42304711962929  0.10124971259280865  0.4121199881946587  1.0000
  H   H179      1.0  0.47574267917153734  0.18005735099950762  0.38711360297871356  1.0000
  H   H180      1.0  0.47672424209239306  0.22179188181549583  0.42709602497669197  1.0000
  C   C271      1.0  0.47065176575776674  0.3799844859210312  0.5603100093430606  1.0000
  C   C272      1.0  0.44924946275818783  0.37281889576451754  0.539379567479943  1.0000
  C   C273      1.0  0.4281271600237103  0.3981551165334747  0.535184873006877  1.0000
  C   C274      1.0  0.4283432781785176  0.43101684227746656  0.5516894677806565  1.0000
  C   C275      1.0  0.4499155123334918  0.43848131813310004  0.5723852022191429  1.0000
  C   C276      1.0  0.47087983315183224  0.4128227328086137  0.5768431961585533  1.0000
  H   H181      1.0  0.448737477429596  0.3473192212320363  0.526740211470652  1.0000
  H   H182      1.0  0.4114890456021469  0.39215398785082384  0.5191488427826677  1.0000
  H   H183      1.0  0.4505752718182032  0.46412543648954985  0.584818681140225  1.0000
  H   H184      1.0  0.48750396186753114  0.418696228112069  0.5929189440696381  1.0000
  C   C277      1.0  0.583854858570766  0.1901638164942208  0.5542246421543426  1.0000
  C   C278      1.0  0.5699780234710824  0.19549581096062102  0.5740085460711005  1.0000
  C   C279      1.0  0.5777527781029677  0.17672677941841455  0.5989544516927239  1.0000
  C   C280      1.0  0.5994954112619415  0.15268814187482171  0.6043688584387792  1.0000
  C   C281      1.0  0.6133963397883571  0.14747039396862296  0.5845711193130924  1.0000
  C   C282      1.0  0.6055085259873478  0.1659746276854499  0.5595568649514225  1.0000
  H   H185      1.0  0.5533166647481847  0.21417342400889275  0.5701724666386347  1.0000
  H   H186      1.0  0.5668669297817545  0.1808777796666989  0.6141438274238484  1.0000
  H   H187      1.0  0.6302734047300503  0.129320526753648  0.5885076687560779  1.0000
  H   H188      1.0  0.6164428851392479  0.1619220325109059  0.5444062104949327  1.0000
  C   C283      1.0  0.5551542296285856  0.3826510949016584  0.444810157871929  1.0000
  C   C284      1.0  0.5746943114189546  0.3548783481917812  0.4504059773834721  1.0000
  C   C285      1.0  0.5984483297609761  0.36261667045830637  0.44399400699275243  1.0000
  C   C286      1.0  0.6030209781963993  0.39846747993761567  0.43254556528196125  1.0000
  C   C287      1.0  0.5837537009313107  0.42671465501655864  0.4277228604121216  1.0000
  C   C288      1.0  0.5597914404282869  0.4186206574454696  0.43355363173982553  1.0000
  H   H189      1.0  0.571268474859223  0.3270352977458742  0.4589822749436942  1.0000
  H   H190      1.0  0.613195251369638  0.34053955467270525  0.4476333032013039  1.0000
  H   H191      1.0  0.5870541742494798  0.4543315830939703  0.4187699211302583  1.0000
  H   H192      1.0  0.5447284545496651  0.44014916479930577  0.4290051694323992  1.0000
  N   N1        1.0  0.34122059500390756  0.9459283360534552  0.9850838354567508  1.0000
  C   C289      1.0  0.34675245530578186  0.931985136086649  0.01307112915422115  1.0000
  C   C290      1.0  0.33798006432952477  0.9119636179592544  0.9666991964220437  1.0000
  C   C291      1.0  0.3628293101394861  0.9705295251867232  0.9810439500385305  1.0000
  C   C292      1.0  0.3173993170508557  0.9692005199623459  0.9797207645842364  1.0000
  H   H193      1.0  0.36453406791157617  0.9141292133509173  0.01788807789888769  1.0000
  H   H194      1.0  0.3307771893246501  0.9136534797139029  0.017027039067665006  1.0000
  H   H195      1.0  0.34959723368848317  0.9569909074359896  0.027353250547675234  1.0000
  H   H196      1.0  0.3556722043412734  0.8938238703110473  0.9704324310178379  1.0000
  H   H197      1.0  0.3218338044832315  0.8928034906503094  0.9693323320469056  1.0000
  H   H198      1.0  0.33383460356089856  0.921333288136592  0.9453457669330672  1.0000
  H   H199      1.0  0.35966300704427734  0.9810062444264535  0.9599993635751343  1.0000
  H   H200      1.0  0.3812843999174718  0.95419728482427  0.9857780387281413  1.0000
  H   H201      1.0  0.3654652088149424  0.9967659188467368  0.9943393430729791  1.0000
  H   H202      1.0  0.3122557248530066  0.9796049228420587  0.9586127671000803  1.0000
  H   H203      1.0  0.31947455646078804  0.9954846482038079  0.9929773265979035  1.0000
  H   H204      1.0  0.30083442005461886  0.9519241840185245  0.983449239644757  1.0000
  N   N2        1.0  0.8487348154465432  0.46866455278334745  0.22965217645070482  1.0000
  C   C293      1.0  0.8608201258426186  0.5034142990406767  0.22050354236556663  1.0000
  C   C294      1.0  0.8613388501324157  0.46047978331007533  0.2579244953207027  1.0000
  C   C295      1.0  0.8517489635282608  0.43461931741289167  0.21282208900259816  1.0000
  C   C296      1.0  0.8211298596033082  0.4761811111460519  0.22731261105007208  1.0000
  H   H205      1.0  0.8817898284404763  0.49926413530010905  0.22278447763684134  1.0000
  H   H206      1.0  0.8582308670081625  0.5300462654757204  0.2320631568149662  1.0000
  H   H207      1.0  0.852526904488915  0.5095450089987867  0.1989669643468711  1.0000
  H   H208      1.0  0.8526776111765266  0.4345061612341171  0.2655789264067119  1.0000
  H   H209      1.0  0.8821867846348251  0.45438643925372446  0.2601929587784602  1.0000
  H   H210      1.0  0.8598469146585707  0.4857541102563163  0.2711807646611866  1.0000
  H   H211      1.0  0.843034211399563  0.40776224124503546  0.21924539165627155  1.0000
  H   H212      1.0  0.8723888747778349  0.4284009030111086  0.2139625913030311  1.0000
  H   H213      1.0  0.8424924564823753  0.43972579127580025  0.19135680234648217  1.0000
  H   H214      1.0  0.8111516141669814  0.45025090265190176  0.23334022401839447  1.0000
  H   H215      1.0  0.811276194459977  0.4834645972387131  0.20630728449437705  1.0000
  H   H216      1.0  0.8181479655779803  0.5012921115332222  0.24008700151802329  1.0000
  N   N3        1.0  0.9748558026580318  0.7594317704985986  0.1968455909528943  1.0000
  C   C297      1.0  0.9655525045523934  0.8001344386297827  0.19576928904602756  1.0000
  C   C298      1.0  0.9965419653165025  0.7571531661506087  0.18353265492333876  1.0000
  C   C299      1.0  0.953902956457218  0.733289404791074  0.1828610303592443  1.0000
  C   C300      1.0  0.9835561981423813  0.7472248979096136  0.22512402676919244  1.0000
  H   H217      1.0  0.949059177602025  0.8030849980975976  0.2054772624370893  1.0000
  H   H218      1.0  0.9592179509713443  0.8103909983111263  0.17467087363611353  1.0000
  H   H219      1.0  0.9809478438794434  0.8206242302270179  0.20615790351401442  1.0000
  H   H220      1.0  0.012554951487791621  0.7770802389419904  0.19320142422670417  1.0000
  H   H221      1.0  0.004359210310972417  0.7270019371850296  0.18420838053964375  1.0000
  H   H222      1.0  0.9904436289753377  0.7656105634753771  0.16206002003333694  1.0000
  H   H223      1.0  0.9374251163489462  0.7333179288436749  0.1927474245863596  1.0000
  H   H224      1.0  0.960532209447312  0.7025052055916319  0.18239601226671026  1.0000
  H   H225      1.0  0.946503147920231  0.7424089404887523  0.16163652368893372  1.0000
  H   H226      1.0  0.9677210172853542  0.7488326661188377  0.2358941021738712  1.0000
  H   H227      1.0  0.9995289398363862  0.7662785190372621  0.23608882106103832  1.0000
  H   H228      1.0  0.9906274580349553  0.716563502688264  0.22657226142846207  1.0000
  N   N4        1.0  0.997742311697431  0.08626913351790251  0.04466033797435885  1.0000
  C   C301      1.0  0.019196901530982302  0.10961538286472428  0.03891176402580182  1.0000
  C   C302      1.0  0.9786007235379334  0.07855499450343734  0.01934412061136837  1.0000
  C   C303      1.0  0.9855489749924826  0.10816071965770008  0.06331851478721769  1.0000
  C   C304      1.0  0.007613663912537927  0.04879469433874572  0.05708228251408139  1.0000
  H   H229      1.0  0.03387464129698636  0.11648126985261044  0.05755953455725251  1.0000
  H   H230      1.0  0.012342743193240135  0.1380132999552438  0.029371437950743595  1.0000
  H   H231      1.0  0.028864334833490934  0.09403111834785116  0.024895503498962038  1.0000
  H   H232      1.0  0.9871116142966514  0.062274459419258466  0.004705348199553594  1.0000
  H   H233      1.0  0.9620841913775539  0.06115926643768611  0.02286815845652462  1.0000
  H   H234      1.0  0.9706967573372705  0.10624744249225708  0.00949732713030893  1.0000
  H   H235      1.0  0.9784834243446926  0.13700984011986278  0.05488177215036924  1.0000
  H   H236      1.0  0.9992160976254765  0.11377778496540607  0.082864651639651  1.0000
  H   H237      1.0  0.9687528660480177  0.09204136257569809  0.0674507508468971  1.0000
  H   H238      1.0  0.01627776207314313  0.03086202267877556  0.043316268712085076  1.0000
  H   H239      1.0  0.9920365421660715  0.03100488413356272  0.06237800132668616  1.0000
  H   H240      1.0  0.022506128064502917  0.05353334400241968  0.07592572481671327  1.0000
  N   N5        1.0  0.5654976697932009  0.6449506327861753  0.9428581722660201  1.0000
  C   C305      1.0  0.5924607791976524  0.6511474795295765  0.9574303086759913  1.0000
  C   C306      1.0  0.5484727185554198  0.6492939318903398  0.9616933904258533  1.0000
  C   C307      1.0  0.5624007497704056  0.6052161030111466  0.931121049626065  1.0000
  C   C308      1.0  0.5585553705639295  0.674111634957312  0.92117455441311  1.0000
  H   H241      1.0  0.5953503281738243  0.6806779561038123  0.9668455745605584  1.0000
  H   H242      1.0  0.6059001325469148  0.6485174461325447  0.9438538254850656  1.0000
  H   H243      1.0  0.5983460051092343  0.6297591229602892  0.9740302875122373  1.0000
  H   H244      1.0  0.5490021524594888  0.6796936605186639  0.9694967449568901  1.0000
  H   H245      1.0  0.5281528498901759  0.6426294168855173  0.9517442909975414  1.0000
  H   H246      1.0  0.5542144308179521  0.6297408093592664  0.9793468819549687  1.0000
  H   H247      1.0  0.5422491025246033  0.5998395220077206  0.9198232429906688  1.0000
  H   H248      1.0  0.5672209890489902  0.5824730818599175  0.9469542479581998  1.0000
  H   H249      1.0  0.5750561727144057  0.6008078341824137  0.9168778316909038  1.0000
  H   H250      1.0  0.5380894072993153  0.6709837408066072  0.9102495838504191  1.0000
  H   H251      1.0  0.5706540552559125  0.6714062112007616  0.9062659134755104  1.0000
  H   H252      1.0  0.5609236078769214  0.7045087354291077  0.9292496687281414  1.0000
  N   N6        1.0  0.5903749703550707  0.8007158766007086  0.4253499056369107  1.0000
  C   C309      1.0  0.5669931340242295  0.7822096755179209  0.4304544900340704  1.0000
  C   C310      1.0  0.5848559272590478  0.8158144072647898  0.3976135815569745  1.0000
  C   C311      1.0  0.6110852310825038  0.7714118708423089  0.429008379511333  1.0000
  C   C312      1.0  0.5983490039763979  0.8333689958627456  0.4444735424377621  1.0000
  H   H253      1.0  0.5605280037432003  0.7569900434507152  0.41675190639218646  1.0000
  H   H254      1.0  0.5508081882409364  0.8032744280580186  0.42763898141968404  1.0000
  H   H255      1.0  0.5704925280813814  0.7712155114012855  0.45136135630785407  1.0000
  H   H256      1.0  0.5691773659526197  0.8378774903870161  0.39444231153077725  1.0000
  H   H257      1.0  0.6020487134990874  0.830124014514924  0.3929731046655485  1.0000
  H   H258      1.0  0.5785737940891973  0.7919216711984491  0.38270690792966283  1.0000
  H   H259      1.0  0.6290702345904449  0.784144548769963  0.42516407828738556  1.0000
  H   H260      1.0  0.6054920538459906  0.7458798664098908  0.415315104391958  1.0000
  H   H261      1.0  0.6156546338143235  0.7597400220770759  0.44988775092727373  1.0000
  H   H262      1.0  0.6154483726854991  0.8490186879986312  0.44069998634836427  1.0000
  H   H263      1.0  0.6034297886832012  0.8227042280020594  0.4655725176234502  1.0000
  H   H264      1.0  0.58263669159473  0.8551274239878186  0.44308044477141717  1.0000
  N   N7        1.0  0.10614775012609123  0.6985437800492232  0.8158646941165326  1.0000
  C   C313      1.0  0.08743839708347312  0.6697306051696399  0.8216410348373051  1.0000
  C   C314      1.0  0.13098759464189436  0.679124356958547  0.8172709140367387  1.0000
  C   C315      1.0  0.10965589069995874  0.7303965004740648  0.835984588141844  1.0000
  C   C316      1.0  0.0966050985795519  0.7147541066978294  0.7886740888598825  1.0000
  H   H265      1.0  0.06847311200401096  0.6833569461371481  0.8209318211478729  1.0000
  H   H266      1.0  0.09422275211142406  0.6566585086642241  0.8419580169785158  1.0000
  H   H267      1.0  0.08429150541894215  0.6453152296158747  0.8068356588575011  1.0000
  H   H268      1.0  0.14577679518166287  0.6999282320702859  0.8133834152145439  1.0000
  H   H269      1.0  0.1384356955201813  0.6660478185869064  0.8373651413765351  1.0000
  H   H270      1.0  0.1291662118765602  0.655158746390473  0.8022428418933465  1.0000
  H   H271      1.0  0.12420438670074607  0.7521681985010197  0.8327722814108063  1.0000
  H   H272      1.0  0.11637921602580703  0.7188858067709084  0.8567386053563217  1.0000
  H   H273      1.0  0.09139990393532549  0.7461865417865673  0.835254115565723  1.0000
  H   H274      1.0  0.11021031688934446  0.736747576705388  0.7837275986256481  1.0000
  H   H275      1.0  0.07765876038414943  0.7291265999375075  0.7866601871280621  1.0000
  H   H276      1.0  0.09408787292864029  0.6914880783866834  0.7730033298394208  1.0000
  N   N8        1.0  0.6902695093008389  0.38565717161184865  0.10156223366447108  1.0000
  C   C317      1.0  0.6722156099923952  0.36118662236163745  0.08190627445130352  1.0000
  C   C318      1.0  0.6833198859548133  0.42720575355480267  0.0970712342298441  1.0000
  C   C319      1.0  0.7167500278803736  0.379971042098883  0.0983031419036129  1.0000
  C   C320      1.0  0.6888226458103593  0.37451312000150544  0.1290708162663779  1.0000
  H   H277      1.0  0.6765345031555129  0.3295261289805007  0.08494156941355666  1.0000
  H   H278      1.0  0.6728824411776827  0.3686046797399049  0.06091848668952125  1.0000
  H   H279      1.0  0.6520161367697388  0.3653773276754146  0.08363338131686848  1.0000
  H   H280      1.0  0.6969592076819768  0.4465779159976342  0.11106915594667917  1.0000
  H   H281      1.0  0.683377605165835  0.4365095261692612  0.0762756929256497  1.0000
  H   H282      1.0  0.6638319895990695  0.4328295459092329  0.10027651737322876  1.0000
  H   H283      1.0  0.7227296590143528  0.34894327737409514  0.10153191502995362  1.0000
  H   H284      1.0  0.7307190444951848  0.3981722091302647  0.11298861255373435  1.0000
  H   H285      1.0  0.718622261732726  0.38850643653753325  0.07786161180411467  1.0000
  H   H286      1.0  0.6690542644504912  0.37823250339707504  0.132197473332107  1.0000
  H   H287      1.0  0.7019859639754161  0.39283085945722884  0.1443949539285645  1.0000
  H   H288      1.0  0.6941639221018232  0.3434161444760512  0.13329840871079002  1.0000
  N   N9        1.0  0.8752182877638219  0.9424084727679023  0.609127813905044  1.0000
  C   C321      1.0  0.877656515081839  0.980133118967505  0.5958848090123775  1.0000
  C   C322      1.0  0.89144633555519  0.9129266657433137  0.5999404111079546  1.0000
  C   C323      1.0  0.8480909890800034  0.9295032240276682  0.6023759132133738  1.0000
  C   C324      1.0  0.8837665699210898  0.9473133964022185  0.6384834753894498  1.0000
  H   H289      1.0  0.8659336330264715  0.003207976401362167  0.6026926924811675  1.0000
  H   H290      1.0  0.8711652031852735  0.9777476519901402  0.5736991244331253  1.0000
  H   H291      1.0  0.897950185745379  0.9906523505152369  0.6005000289176192  1.0000
  H   H292      1.0  0.8905034467119668  0.8842184256950897  0.6098952538166895  1.0000
  H   H293      1.0  0.8855073454633482  0.9082039701516387  0.5778776645674618  1.0000
  H   H294      1.0  0.9120011467726251  0.9222285162218689  0.6046708035637293  1.0000
  H   H295      1.0  0.8455196014520553  0.9012998400730723  0.6122686019467893  1.0000
  H   H296      1.0  0.8409041753388443  0.9254943847152782  0.5803566393988212  1.0000
  H   H297      1.0  0.8355197267744061  0.9514765249230644  0.6091158833577964  1.0000
  H   H298      1.0  0.9036778821769573  0.9589546541526743  0.6440163872015261  1.0000
  H   H299      1.0  0.8834023468906981  0.9191364178247252  0.6492031572695912  1.0000
  H   H300      1.0  0.8713505296246604  0.9682180126208492  0.6463183895678882  1.0000
  N   N10       1.0  0.4279434905823256  0.48307548102654135  0.9570367072002098  1.0000
  C   C325      1.0  0.4122343939615086  0.45026533715673567  0.9431072075366824  1.0000
  C   C326      1.0  0.44784845424497377  0.4936201001328915  0.9424341877026317  1.0000
  C   C327      1.0  0.4404195317121654  0.471098051841601  0.9846399608174445  1.0000
  C   C328      1.0  0.4113826460918952  0.5172286581922733  0.9579947596753824  1.0000
  H   H301      1.0  0.3965104620030139  0.4421655479536315  0.9530365129100525  1.0000
  H   H302      1.0  0.42406449870474383  0.4237524885312442  0.9427260819004906  1.0000
  H   H303      1.0  0.40328284052057717  0.4575421186048955  0.9218424977275386  1.0000
  H   H304      1.0  0.45891999945131806  0.5200275293258133  0.9511944447117794  1.0000
  H   H305      1.0  0.46171836037020886  0.46947570462695776  0.9429567887500393  1.0000
  H   H306      1.0  0.4392577489732806  0.5002396054722362  0.9209742075468675  1.0000
  H   H307      1.0  0.45306284168381555  0.4453078799295456  0.9845338210864776  1.0000
  H   H308      1.0  0.4259741562174434  0.462787497028041  0.9962419689621027  1.0000
  H   H309      1.0  0.4525350057888973  0.49509379111786733  0.9956839067651887  1.0000
  H   H310      1.0  0.40186836716449714  0.5271153107860012  0.9374738105343355  1.0000
  H   H311      1.0  0.42269062119503126  0.5427100857643428  0.9680611383109565  1.0000
  H   H312      1.0  0.39606907779971046  0.5104757330021078  0.9688001807921753  1.0000
  N   N11       1.0  0.15799842076768017  0.2138385050842871  0.9297244236444026  1.0000
  C   C329      1.0  0.1810591658784692  0.2205764871626886  0.9514664173078577  1.0000
  C   C330      1.0  0.15630036842853423  0.1720442480632894  0.9220365261804769  1.0000
  C   C331      1.0  0.15964438986791443  0.237969150515124  0.9062316749420402  1.0000
  C   C332      1.0  0.13490821127427582  0.22481664216919992  0.9392132711971534  1.0000
  H   H313      1.0  0.18284063647731538  0.2518753280057695  0.9576983096465064  1.0000
  H   H314      1.0  0.1988651945980495  0.21251675272113832  0.9450204638809664  1.0000
  H   H315      1.0  0.18031564642622844  0.20288768566699902  0.9695142915549683  1.0000
  H   H316      1.0  0.13888597978152276  0.16584836053640098  0.9059240341404133  1.0000
  H   H317      1.0  0.17326449930078264  0.1625903346735204  0.9145554718680022  1.0000
  H   H318      1.0  0.1549683991433137  0.15303550097362878  0.9393139428052064  1.0000
  H   H319      1.0  0.17684907912285663  0.23071093315978158  0.8984744468292991  1.0000
  H   H320      1.0  0.1605055364175525  0.26975205062320445  0.9112318887647055  1.0000
  H   H321      1.0  0.14245208316879812  0.23374988121782292  0.8894779189063828  1.0000
  H   H322      1.0  0.11730539910207727  0.2203730734173788  0.9231834075798145  1.0000
  H   H323      1.0  0.13530344522794954  0.25624932803693923  0.9450350804487947  1.0000
  H   H324      1.0  0.1326290934206025  0.20681272201345186  0.9566238299233161  1.0000
  N   N12       1.0  0.3632486292399199  0.17079611879016954  0.3760323417048568  1.0000
  C   C333      1.0  0.36675472387998087  0.13591127269694786  0.393422475066725  1.0000
  C   C334      1.0  0.3555782022312358  0.20419652176032432  0.3907552419010872  1.0000
  C   C335      1.0  0.3429847281455738  0.16276021329965776  0.35163396306029143  1.0000
  C   C336      1.0  0.3876378607610294  0.18029781149661306  0.3684193503745437  1.0000
  H   H325      1.0  0.3811256121739544  0.14133322765415643  0.4125143180553488  1.0000
  H   H326      1.0  0.37341017968082296  0.11049880701018919  0.38326407673254986  1.0000
  H   H327      1.0  0.3484452539217845  0.1268629527536121  0.39858534395105744  1.0000
  H   H328      1.0  0.35277222170651057  0.2310637937533414  0.37823319122344295  1.0000
  H   H329      1.0  0.3372789263598266  0.19794506811230556  0.39686697398980053  1.0000
  H   H330      1.0  0.37047539412666364  0.2109783697733054  0.40932636478669043  1.0000
  H   H331      1.0  0.3396895128909299  0.18834364210336232  0.33794449673084903  1.0000
  H   H332      1.0  0.324402115032611  0.15494935698287984  0.3566922826190055  1.0000
  H   H333      1.0  0.34806643520826425  0.13756866999776687  0.34013806865688445  1.0000
  H   H334      1.0  0.38547484180858027  0.2054376691283438  0.35436496130380246  1.0000
  H   H335      1.0  0.3947492096557148  0.15510374063623522  0.35839602077188215  1.0000
  H   H336      1.0  0.40304587882201837  0.1881033852233305  0.3862942078013742  1.0000
  N   N13       1.0  0.8868230834514044  0.40113672607221945  0.6379580709421354  1.0000
  C   C337      1.0  0.8956773651642003  0.4312766972456965  0.6588099435914017  1.0000
  C   C338      1.0  0.9085987373568712  0.38895627496089424  0.6266354396990501  1.0000
  C   C339      1.0  0.8664115080824337  0.41756377752160684  0.6164520606968567  1.0000
  C   C340      1.0  0.8766273098790142  0.3667752942317008  0.6496973552321668  1.0000
  H   H337      1.0  0.9033935506678326  0.45748346055076705  0.6502146094051078  1.0000
  H   H338      1.0  0.9112417209178693  0.4200715663413859  0.6753020754228999  1.0000
  H   H339      1.0  0.8797348801100048  0.44133875671427986  0.667770470385195  1.0000
  H   H340      1.0  0.9242874948933436  0.3759576245760668  0.6421740213887235  1.0000
  H   H341      1.0  0.9024432230538929  0.36666945071616225  0.6105718497299464  1.0000
  H   H342      1.0  0.9168888639895891  0.41421554238653063  0.6177204392474176  1.0000
  H   H343      1.0  0.8591037506948878  0.39544644039127325  0.600483369304567  1.0000
  H   H344      1.0  0.8735843591103725  0.4432078106350178  0.6068418552916117  1.0000
  H   H345      1.0  0.8497536560232108  0.4275401476458374  0.6242574695327656  1.0000
  H   H346      1.0  0.8699066416834266  0.3436421447831449  0.6342014411286733  1.0000
  H   H347      1.0  0.8600192565166269  0.3747218373651995  0.658286895356717  1.0000
  H   H348      1.0  0.8915279313491572  0.35342379018242276  0.6659233163065766  1.0000
  N   N14       1.0  0.35413146048802857  0.6159208829847674  0.7605447209957836  1.0000
  C   C341      1.0  0.3803819297942523  0.6315469073217184  0.7629841092411352  1.0000
  C   C342      1.0  0.33843988955051246  0.6241463150472041  0.7334308748510431  1.0000
  C   C343      1.0  0.342446392366364  0.634587393387717  0.7809194619720807  1.0000
  C   C344      1.0  0.35528345580527254  0.5732336960451256  0.7648450893553227  1.0000
  H   H349      1.0  0.39281598312740623  0.6254669118705612  0.7831672249298849  1.0000
  H   H350      1.0  0.3803881484438716  0.6637051934102041  0.7599684788068259  1.0000
  H   H351      1.0  0.38983977826378885  0.6179025550299659  0.7480226614849731  1.0000
  H   H352      1.0  0.33704396792886543  0.6561114334131922  0.7294837623052279  1.0000
  H   H353      1.0  0.3468795130926057  0.6104532141416819  0.7176501353641644  1.0000
  H   H354      1.0  0.3185916762450418  0.612347932186704  0.7309497875251164  1.0000
  H   H355      1.0  0.3537144791986005  0.6284548551335568  0.801617772920915  1.0000
  H   H356      1.0  0.32267655816619795  0.6232109927284051  0.7798305653408935  1.0000
  H   H357      1.0  0.34134170875845526  0.6668456433764199  0.778473927819105  1.0000
  H   H358      1.0  0.36297698133700895  0.5579651331310481  0.7491968817050842  1.0000
  H   H359      1.0  0.33601345724173043  0.560570693762612  0.7646301003919238  1.0000
  H   H360      1.0  0.36792251646031177  0.5659593745847622  0.784604007300442  1.0000
  N   N15       1.0  0.947578881135342  0.20664711309400277  0.8151974720218662  1.0000
  C   C345      1.0  0.9394220971181019  0.24162290733832337  0.7986348547546973  1.0000
  C   C346      1.0  0.9758409904002229  0.20690828918561124  0.8243834007742975  1.0000
  C   C347      1.0  0.9392280054915305  0.17109809326971318  0.7990354413688341  1.0000
  C   C348      1.0  0.9359086021238039  0.20707235245550548  0.8387488179866411  1.0000
  H   H361      1.0  0.918182704565471  0.24245730505538232  0.7913670316231937  1.0000
  H   H362      1.0  0.9479979986797491  0.24214139738881857  0.7807428425651798  1.0000
  H   H363      1.0  0.9455619097255313  0.2689505275953659  0.8102808391743322  1.0000
  H   H364      1.0  0.9827624447043074  0.18114880460458663  0.8371897693566691  1.0000
  H   H365      1.0  0.9854635870162997  0.20651430716477684  0.8072489517752869  1.0000
  H   H366      1.0  0.9826854125043348  0.23339888138005094  0.8366577357951293  1.0000
  H   H367      1.0  0.9475889127869438  0.17004671996099865  0.7810233678236389  1.0000
  H   H368      1.0  0.9179942371644141  0.16969932705701035  0.7918155533246031  1.0000
  H   H369      1.0  0.9453159580398974  0.14415232450870852  0.810865692608829  1.0000
  H   H370      1.0  0.9426117428042879  0.18197881027126886  0.8523401892555765  1.0000
  H   H371      1.0  0.9146003939463608  0.20565878248122563  0.8327360062885844  1.0000
  H   H372      1.0  0.9413008980005659  0.23408261954902237  0.8510091072491535  1.0000
  N   N16       1.0  0.39035221107502005  0.7183830099851236  0.5656691932453471  1.0000
  C   C349      1.0  0.3851272091283436  0.7552454360315873  0.5504777553602587  1.0000
  C   C350      1.0  0.4172770448470698  0.7183512862613749  0.5812056079261144  1.0000
  C   C351      1.0  0.38604352474105463  0.6850576775604275  0.5467310679482807  1.0000
  C   C352      1.0  0.3729628423191375  0.7147024283971025  0.5842165120104005  1.0000
  H   H373      1.0  0.36497129429939756  0.7560539341535659  0.538452163066802  1.0000
  H   H374      1.0  0.3980094544077805  0.7587212492741062  0.5363023698374196  1.0000
  H   H375      1.0  0.388195597118878  0.7810638754752236  0.5641299329575435  1.0000
  H   H376      1.0  0.42203554241626196  0.6905232414244464  0.5924841637669086  1.0000
  H   H377      1.0  0.43092250320579784  0.7216341567722335  0.567857431623557  1.0000
  H   H378      1.0  0.4211925541197332  0.7426598005325515  0.596070760092311  1.0000
  H   H379      1.0  0.39010865092285446  0.6569256983725393  0.55759418586263  1.0000
  H   H380      1.0  0.3985761493348666  0.6869133652828984  0.5321685254270719  1.0000
  H   H381      1.0  0.36573288901770734  0.683462925742024  0.5351174046004851  1.0000
  H   H382      1.0  0.37636836107266025  0.6869327399261385  0.5957925351530023  1.0000
  H   H383      1.0  0.35245638385610284  0.7141103881687549  0.5731263695732116  1.0000
  H   H384      1.0  0.3755939014227196  0.7392518132682807  0.5988811227857299  1.0000
  N   N17       1.0  0.23027658907402682  0.6236649122914995  0.9339923126821932  1.0000
  C   C353      1.0  0.2285395585446924  0.6664243550278979  0.9299693169174124  1.0000
  C   C354      1.0  0.23492010214903133  0.6149437989418516  0.9629532556254812  1.0000
  C   C355      1.0  0.25161243814068796  0.6082433107389069  0.9231166868585229  1.0000
  C   C356      1.0  0.20595912816811965  0.604961947992374  0.9198806020431309  1.0000
  H   H385      1.0  0.22551401569656485  0.6739984262062269  0.9083375578956836  1.0000
  H   H386      1.0  0.24634499619261407  0.6816955504916457  0.940756670260659  1.0000
  H   H387      1.0  0.21222641381086085  0.6789626679341105  0.9373579689559507  1.0000
  H   H388      1.0  0.21914302219548762  0.6263589320872635  0.9717029232678444  1.0000
  H   H389      1.0  0.23611537508234315  0.5828553730271063  0.9666086993037274  1.0000
  H   H390      1.0  0.25319720191820105  0.628427328288881  0.974250092406785  1.0000
  H   H391      1.0  0.2536867297583712  0.576069774821916  0.9261106654836415  1.0000
  H   H392      1.0  0.270260476013594  0.6221876740724839  0.9328048076671162  1.0000
  H   H393      1.0  0.24830141510546516  0.6132493710660613  0.9010738065871217  1.0000
  H   H394      1.0  0.20677261224314736  0.5725561190527344  0.9219678634774111  1.0000
  H   H395      1.0  0.2017826909385264  0.6113243429390831  0.898088566108515  1.0000
  H   H396      1.0  0.18931088379310423  0.6155546093589238  0.9275549658963955  1.0000
  N   N18       1.0  0.7596001489533497  0.5599030309878926  0.4005784466032991  1.0000
  C   C357      1.0  0.7500597407870921  0.5201418537974819  0.39218916702046863  1.0000
  C   C358      1.0  0.7853387465123184  0.5653341729001622  0.3951031401430912  1.0000
  C   C359      1.0  0.7612386222785832  0.5650534001681292  0.4296146181103595  1.0000
  C   C360      1.0  0.7417456338230782  0.5889960970666341  0.3853770632606002  1.0000
  H   H397      1.0  0.747495585190496  0.5157604253744006  0.3701620026937999  1.0000
  H   H398      1.0  0.7310008376358467  0.514610854883525  0.39678249923492626  1.0000
  H   H399      1.0  0.763455158209393  0.4973540393762276  0.4024679361580494  1.0000
  H   H400      1.0  0.793177536486132  0.5950105973930144  0.40122909493388675  1.0000
  H   H401      1.0  0.7992084333558438  0.5436868179224449  0.4063428459330384  1.0000
  H   H402      1.0  0.7847746063534592  0.5615008787845449  0.37337048127899125  1.0000
  H   H403      1.0  0.7675552022074241  0.595114254431396  0.43652201253882117  1.0000
  H   H404      1.0  0.7751774497700912  0.5443988756327981  0.44178435716375597  1.0000
  H   H405      1.0  0.7423096792636635  0.5597741592556718  0.43465238158828623  1.0000
  H   H406      1.0  0.7483194907214663  0.6194114953821738  0.39092939467664617  1.0000
  H   H407      1.0  0.7221916184774831  0.5856131764255716  0.3892094605679301  1.0000
  H   H408      1.0  0.7395472776825742  0.5853788826321437  0.3633299131391909  1.0000
  N   N19       1.0  0.3227270580246862  0.9544179907115854  0.13877137347188792  1.0000
  C   C361      1.0  0.33576259172981976  0.9864976647104992  0.12773658207660107  1.0000
  C   C362      1.0  0.2947063926595618  0.9571856188367197  0.1279689144645507  1.0000
  C   C363      1.0  0.32854589307606846  0.9575654068194339  0.16838013886971354  1.0000
  C   C364      1.0  0.3320153158327769  0.9164320763102587  0.13104946283303778  1.0000
  H   H409      1.0  0.3569425018423102  0.9837267866468075  0.13410875470403125  1.0000
  H   H410      1.0  0.33048535144658747  0.015631389286389075  0.13447622962750644  1.0000
  H   H411      1.0  0.33069294231801594  0.9865609539993417  0.10542222639526326  1.0000
  H   H412      1.0  0.2871361979214207  0.9855218774291261  0.13348646942391526  1.0000
  H   H413      1.0  0.28967178805454696  0.9551254054859688  0.10563771900067433  1.0000
  H   H414      1.0  0.284193585128468  0.9332698538570194  0.1356679019908491  1.0000
  H   H415      1.0  0.31844887616905426  0.9345144837231184  0.17740389153889205  1.0000
  H   H416      1.0  0.3228145904518323  0.9864538379845423  0.1751202133397505  1.0000
  H   H417      1.0  0.3494527728973944  0.9542197237876525  0.17716945603036113  1.0000
  H   H418      1.0  0.3228659545617537  0.8915332057778629  0.13935458716897783  1.0000
  H   H419      1.0  0.35321506359931076  0.9137237389816962  0.13858866917761567  1.0000
  H   H420      1.0  0.32776761389330755  0.9127413518164958  0.10888999006149376  1.0000
  N   N20       1.0  0.7522011042546831  0.04532704910529217  0.7413757621306576  1.0000
  C   C365      1.0  0.742199822499921  0.006034445661543986  0.745589350112381  1.0000
  C   C366      1.0  0.7671167558132739  0.043221920505770894  0.7204044835822369  1.0000
  C   C367      1.0  0.7688075352382452  0.059815202209762885  0.7667122913383085  1.0000
  C   C368      1.0  0.7305065147644707  0.07233834768864211  0.7326786237970784  1.0000
  H   H421      1.0  0.7293974869146699  0.9944440542008225  0.7268252583975492  1.0000
  H   H422      1.0  0.7305519512353977  0.006672643897271957  0.7610474904986789  1.0000
  H   H423      1.0  0.7579588630878876  0.9847129732293716  0.7521489319292733  1.0000
  H   H424      1.0  0.7549283342869377  0.03296402749807359  0.7009096014585326  1.0000
  H   H425      1.0  0.7748407889245665  0.07245187379013274  0.7166139322761178  1.0000
  H   H426      1.0  0.7835942541443706  0.022907483230942383  0.7260000474484022  1.0000
  H   H427      1.0  0.7764549754975889  0.08955545396947096  0.7641384097708644  1.0000
  H   H428      1.0  0.7854578088464453  0.04019952992148146  0.7738619025664976  1.0000
  H   H429      1.0  0.7579939776595733  0.061725878748002616  0.78287883875556  1.0000
  H   H430      1.0  0.7371042511775672  0.10200189139783267  0.728187680307586  1.0000
  H   H431      1.0  0.7189514104042997  0.07535009440948959  0.7480989139827667  1.0000
  H   H432      1.0  0.7173951037426555  0.061482955742237166  0.7140699812470515  1.0000
  N   N21       1.0  0.7396357616829125  0.152140328189746  0.9908251584629391  1.0000
  C   C369      1.0  0.7261405999755011  0.17572583585367046  0.007475230699654389  1.0000
  C   C370      1.0  0.7301361833972606  0.11136941566308678  0.9896095603922086  1.0000
  C   C371      1.0  0.7675373747988444  0.15286889781097462  0.002721204526259457  1.0000
  C   C372      1.0  0.7347089945723247  0.16852580721923138  0.9634379149335801  1.0000
  H   H433      1.0  0.732873790202682  0.2066396547566622  0.008919762616163894  1.0000
  H   H434      1.0  0.7291143713524209  0.1638359485013902  0.02815395575666866  1.0000
  H   H435      1.0  0.705033684200377  0.1758587110220971  0.9987826166308525  1.0000
  H   H436      1.0  0.7390354732006398  0.09314832853829128  0.9762869221541074  1.0000
  H   H437      1.0  0.734374446393915  0.0974030411725984  0.009710920012639956  1.0000
  H   H438      1.0  0.7090417527726842  0.10967978158043647  0.9815414796137016  1.0000
  H   H439      1.0  0.7720431981428479  0.14105429191745236  0.023476141282298954  1.0000
  H   H440      1.0  0.7756082678764089  0.18300907833326602  0.003381698789090448  1.0000
  H   H441      1.0  0.7780668088146401  0.13472924865543492  0.9907809665888923  1.0000
  H   H442      1.0  0.7138226880830538  0.1682848746484018  0.9537886536088261  1.0000
  H   H443      1.0  0.7445725492088803  0.1513798741059759  0.950303360441038  1.0000
  H   H444      1.0  0.7416278259837297  0.19924887338879735  0.9635549301469848  1.0000
  N   N22       1.0  0.023790981635808166  0.45246547708757584  0.4402000743548357  1.0000
  C   C373      1.0  0.04463706504783464  0.4771411362295786  0.45602797466054423  1.0000
  C   C374      1.0  0.03344353037996259  0.4124869340861476  0.43825693593704207  1.0000
  C   C375      1.0  0.015147721077939151  0.46879480555082587  0.41293219500893885  1.0000
  C   C376      1.0  0.001971642456432884  0.45120337491276175  0.45344892749976995  1.0000
  H   H445      1.0  0.03822090148689014  0.5077001955659226  0.4577453769958083  1.0000
  H   H446      1.0  0.06142374526037819  0.4783913873773707  0.44654632228159596  1.0000
  H   H447      1.0  0.05168756543848141  0.4654421403730483  0.47664933804972753  1.0000
  H   H448      1.0  0.018648526659417172  0.39353722677111364  0.42544056312331335  1.0000
  H   H449      1.0  0.05031860690802784  0.41254595587231613  0.4290808750298654  1.0000
  H   H450      1.0  0.039398588262110866  0.3984365578118627  0.45827275105994975  1.0000
  H   H451      1.0  0.03121180441460904  0.4703791893213272  0.40245394325005157  1.0000
  H   H452      1.0  0.007457889259505636  0.4988208086053347  0.4134866202538284  1.0000
  H   H453      1.0  0.9997456817263564  0.4502950139566211  0.4002998684963744  1.0000
  H   H454      1.0  0.9856604062621379  0.4338926458708971  0.4414075149885505  1.0000
  H   H455      1.0  0.9946559986563317  0.48096393751876815  0.4560609678222395  1.0000
  H   H456      1.0  0.007406978664097565  0.43731074470599  0.4735925361500899  1.0000
  N   N23       1.0  0.07302623528299071  0.9689990971403796  0.9382224613295506  1.0000
  C   C377      1.0  0.06300541533527805  0.953300296808663  0.9607380375074392  1.0000
  C   C378      1.0  0.0555263009885488  0.9580563209559251  0.9124745246545221  1.0000
  C   C379      1.0  0.09864981935916202  0.9524546787900686  0.9392349318712323  1.0000
  C   C380      1.0  0.07503698806724142  0.012008114444279405  0.9403975136072364  1.0000
  H   H457      1.0  0.04400494575785889  0.9658523975227448  0.9611845088203951  1.0000
  H   H458      1.0  0.07642359012248165  0.9595880927693019  0.9804169597109453  1.0000
  H   H459      1.0  0.06079466544380719  0.9208957850450868  0.9593418371728845  1.0000
  H   H460      1.0  0.06271323795761556  0.9694346542280914  0.8951442329776321  1.0000
  H   H461      1.0  0.053778207015726234  0.925700066517176  0.9101786141539284  1.0000
  H   H462      1.0  0.03595323710592054  0.9699740128130147  0.9109679111344706  1.0000
  H   H463      1.0  0.10691060156830255  0.963162523223034  0.9224523219617571  1.0000
  H   H464      1.0  0.09772600979370769  0.920004275884828  0.93797956392482  1.0000
  H   H465      1.0  0.11252612962769698  0.9601241485671749  0.9583290846408754  1.0000
  H   H466      1.0  0.08273817171642202  0.02461364578143278  0.9237728562287951  1.0000
  H   H467      1.0  0.08816818148386736  0.02120652146494395  0.9595978363966662  1.0000
  H   H468      1.0  0.056081773360769804  0.02572299652808384  0.9395407944893448  1.0000
  N   N24       1.0  0.5448744041511903  0.6464565885060573  0.5268260154981591  1.0000
  C   C381      1.0  0.5645152211556954  0.6232437790878577  0.5176907083912005  1.0000
  C   C382      1.0  0.525949732325552  0.6200779887292464  0.5347977752423105  1.0000
  C   C383      1.0  0.5315898968960197  0.6718408872902727  0.5047418137342164  1.0000
  C   C384      1.0  0.5574474797473832  0.6708618570597449  0.5500522670158186  1.0000
  H   H469      1.0  0.5794223065616503  0.6425149958427742  0.5122968338291226  1.0000
  H   H470      1.0  0.5559474305942962  0.6055021274980246  0.4995642449692254  1.0000
  H   H471      1.0  0.5745941163840874  0.6030659998584508  0.5336060988143418  1.0000
  H   H472      1.0  0.5107785195671238  0.6369194422910706  0.5415475628685171  1.0000
  H   H473      1.0  0.5161194629422113  0.6012024331676642  0.5177703381638294  1.0000
  H   H474      1.0  0.5351864889268146  0.6007989017113013  0.5516916956484248  1.0000
  H   H475      1.0  0.5452912729648333  0.6919847059127361  0.49815061865042837  1.0000
  H   H476      1.0  0.5168458066190035  0.6901244471025129  0.5109886610711462  1.0000
  H   H477      1.0  0.5216830466622344  0.6545618239061193  0.486893915564786  1.0000
  H   H478      1.0  0.5715841099857467  0.6916192303375729  0.5446058937637384  1.0000
  H   H479      1.0  0.5679913802400958  0.6527336101246911  0.5669824489314099  1.0000
  H   H480      1.0  0.5431686947073071  0.6884762028728322  0.5576953004342187  1.0000
  N   N25       1.0  0.06978250775880214  0.2623466127207945  0.28775769169141197  1.0000
  C   C385      1.0  0.06737680906113508  0.2389706640450787  0.26299221911518716  1.0000
  C   C386      1.0  0.04465069932147696  0.26369767876097516  0.2950905293771528  1.0000
  C   C387      1.0  0.07812890451259849  0.30253128661366463  0.28317039477827693  1.0000
  C   C388      1.0  0.08887557726428787  0.24414539035997065  0.3097762099326082  1.0000
  H   H481      1.0  0.08603201083451596  0.23724157088622136  0.256919357683839  1.0000
  H   H482      1.0  0.05307442597514216  0.25195061414163383  0.24602054018608302  1.0000
  H   H483      1.0  0.06103547658905795  0.20851270315755857  0.2658266183055775  1.0000
  H   H484      1.0  0.04594570691729565  0.28084113473898964  0.313759366288792  1.0000
  H   H485      1.0  0.029773200155620627  0.27795902851708865  0.2792598144687667  1.0000
  H   H486      1.0  0.037717603617431185  0.23397533763267453  0.29893904772480184  1.0000
  H   H487      1.0  0.06394051810578193  0.31731476089689414  0.26692468470205727  1.0000
  H   H488      1.0  0.09701941083462633  0.3028444612907995  0.27757990742522226  1.0000
  H   H489      1.0  0.07997570426453256  0.32106663310365463  0.3014193982843963  1.0000
  H   H490      1.0  0.09055577460369245  0.26026717378588826  0.3290434853922611  1.0000
  H   H491      1.0  0.1082720200132559  0.24338483889487011  0.30535939660705136  1.0000
  H   H492      1.0  0.08333779708930356  0.2135509212900393  0.31338125403685885  1.0000
  N   N26       1.0  0.5675980769804717  0.5656516845986534  0.0756021018390634  1.0000
  C   C389      1.0  0.5737699244583194  0.6034644955446163  0.08971455379051171  1.0000
  C   C390      1.0  0.5872123768167397  0.5568463240131755  0.06030297518333527  1.0000
  C   C391      1.0  0.5421406422634171  0.5679526036804514  0.056915949120146976  1.0000
  C   C392      1.0  0.567312735896728  0.5343621303432776  0.09540325103224433  1.0000
  H   H493      1.0  0.5736499127956084  0.6278224645906786  0.07528552464216581  1.0000
  H   H494      1.0  0.5931976439284582  0.6030982517132081  0.10345169913388098  1.0000
  H   H495      1.0  0.559691204454761  0.6108069354538986  0.10190554405137692  1.0000
  H   H496      1.0  0.5835892183410666  0.5280146254967063  0.04993217388208581  1.0000
  H   H497      1.0  0.5877394818848842  0.5795896468388202  0.044914845823352915  1.0000
  H   H498      1.0  0.6067390284239075  0.5553889451821534  0.0737738029702564  1.0000
  H   H499      1.0  0.5369742683944752  0.5398598378009355  0.04591130107367009  1.0000
  H   H500      1.0  0.5417924625420056  0.5913836576146467  0.04174566102516617  1.0000
  H   H501      1.0  0.5268546637195249  0.5746237353203436  0.06776820205867795  1.0000
  H   H502      1.0  0.563413784029592  0.5051871377712954  0.08550473932939814  1.0000
  H   H503      1.0  0.5525168415160557  0.539563845403515  0.10711853225586576  1.0000
  H   H504      1.0  0.5862187180331976  0.5321631976689405  0.10990378038443659  1.0000
  N   N27       1.0  0.5280401177977253  0.1338418388178522  0.47042238805718906  1.0000
  C   C393      1.0  0.5501766814453973  0.1125612733616755  0.4865999301567672  1.0000
  C   C394      1.0  0.51056132570653  0.10607944788264195  0.45284296257273465  1.0000
  C   C395      1.0  0.5373506670502444  0.16332079307290115  0.4537553615368124  1.0000
  C   C396      1.0  0.5140995817833467  0.15352781209522015  0.48850999135244494  1.0000
  H   H505      1.0  0.5637293099911618  0.13294010027085604  0.4999755492839709  1.0000
  H   H506      1.0  0.5611828363063177  0.09743191918776516  0.4735961497657066  1.0000
  H   H507      1.0  0.5438962109716584  0.09024828241921261  0.49953875959567223  1.0000
  H   H508      1.0  0.4934888285517916  0.12125657188173643  0.44071930096939205  1.0000
  H   H509      1.0  0.5202047402516486  0.09121484390039392  0.43848538984956015  1.0000
  H   H510      1.0  0.5033172609423828  0.08312869660906166  0.4646482314564882  1.0000
  H   H511      1.0  0.5211665165209547  0.18004193293882859  0.4412917916143342  1.0000
  H   H512      1.0  0.5479695792575134  0.14956186830809753  0.4398504006039829  1.0000
  H   H513      1.0  0.5506064360765466  0.18477589218673113  0.46642484152787006  1.0000
  H   H514      1.0  0.5059990143893449  0.13225098369729715  0.5007851904770564  1.0000
  H   H515      1.0  0.49789113255550943  0.17109654298171822  0.4770615740683666  1.0000
  H   H516      1.0  0.5268265694031643  0.17393450054968293  0.5025606632421635  1.0000
  N   N28       1.0  0.11791360159102614  0.874908500086785  0.17724176731444755  1.0000
  C   C397      1.0  0.1380672783194742  0.85596598226575  0.16621582856290942  1.0000
  C   C398      1.0  0.12935826528617247  0.8911297130234651  0.20416376221667462  1.0000
  C   C399      1.0  0.09797685644508067  0.8457363049611365  0.1793324619691269  1.0000
  C   C400      1.0  0.10620766663893319  0.9067575174781791  0.15915736997048457  1.0000
  H   H517      1.0  0.1300112097679845  0.8436143048756986  0.14581558774332798  1.0000
  H   H518      1.0  0.14719186151339814  0.8315093260046686  0.17916207095043601  1.0000
  H   H519      1.0  0.15343907878598753  0.8771172301715568  0.1643480298466772  1.0000
  H   H520      1.0  0.11457771671723793  0.9049162791025132  0.21328323685442782  1.0000
  H   H521      1.0  0.13873920593038147  0.8680513355901273  0.2182554015403146  1.0000
  H   H522      1.0  0.14405427410466096  0.9139911848770964  0.20335721095149678  1.0000
  H   H523      1.0  0.08917529259666568  0.8325756356462013  0.1594285668551881  1.0000
  H   H524      1.0  0.08221634160685083  0.8591148426598061  0.18711964369844553  1.0000
  H   H525      1.0  0.10601722289029879  0.8214963569531201  0.19306930244207662  1.0000
  H   H526      1.0  0.12067763707612957  0.9293518179358505  0.15712895215302083  1.0000
  H   H527      1.0  0.09082574887037108  0.9216141221299956  0.166753213247488  1.0000
  H   H528      1.0  0.09748098528601758  0.8954429971811971  0.138631851407602  1.0000
  N   N29       1.0  0.4884207146377532  0.44558158358502037  0.4930190587712485  1.0000
  C   C401      1.0  0.46886773206227383  0.4203298821967375  0.4757497090462144  1.0000
  C   C402      1.0  0.5014070961184707  0.46956778971100094  0.47603049630299105  1.0000
  C   C403      1.0  0.507570730107043  0.4210434746559538  0.5109970886178656  1.0000
  C   C404      1.0  0.47580148192670696  0.47126929247061844  0.509318393058615  1.0000
  H   H529      1.0  0.45869580579970415  0.4017740103847413  0.4879204502494445  1.0000
  H   H530      1.0  0.47771078367766473  0.4004128722436007  0.46320578954399005  1.0000
  H   H531      1.0  0.45413155769967234  0.43783951099437035  0.46188237106500507  1.0000
  H   H532      1.0  0.4875792491264944  0.4885358483389235  0.4622217202322491  1.0000
  H   H533      1.0  0.516574291724847  0.488518109941624  0.48837778955666306  1.0000
  H   H534      1.0  0.5108975121078664  0.4508059029696353  0.46334437446670207  1.0000
  H   H535      1.0  0.5221091508836764  0.4389421160792221  0.5250714367120829  1.0000
  H   H536      1.0  0.5180689363400183  0.4020939380373772  0.49951970151113484  1.0000
  H   H537      1.0  0.4983476226087438  0.4013398919363269  0.5232405441828409  1.0000
  H   H538      1.0  0.4898895185383604  0.49072879102639394  0.522695127171263  1.0000
  H   H539      1.0  0.4659870623360241  0.4538213500406736  0.5223798343258175  1.0000
  H   H540      1.0  0.46095939083067633  0.4899124690833783  0.4964898741159319  1.0000
  N   N30       1.0  0.13171216647366543  0.6971784151402057  0.3739093303880373  1.0000
  C   C405      1.0  0.15863799989965793  0.6838259065014389  0.380730531196197  1.0000
  C   C406      1.0  0.11634628924741124  0.6710425253116449  0.35323090043914734  1.0000
  C   C407      1.0  0.13077119511032462  0.7376568835175512  0.36368122007990933  1.0000
  C   C408      1.0  0.1211067047622742  0.6960354246826921  0.39812997069522077  1.0000
  H   H541      1.0  0.16756408030865252  0.6854701366454358  0.36315598471096616  1.0000
  H   H542      1.0  0.15999474305493586  0.6529861357101153  0.38779449284699014  1.0000
  H   H543      1.0  0.17060688504923316  0.7020552822272602  0.3970370131884987  1.0000
  H   H544      1.0  0.09597359923890297  0.6804969718899675  0.34743854691176784  1.0000
  H   H545      1.0  0.12403698498124988  0.6704493744259201  0.3347909980866778  1.0000
  H   H546      1.0  0.11637330790136168  0.6404204875946236  0.36073724385914524  1.0000
  H   H547      1.0  0.11090513846173532  0.7493905743722037  0.3593004784073693  1.0000
  H   H548      1.0  0.13802166620955847  0.7395455795941417  0.3450114591102385  1.0000
  H   H549      1.0  0.14286992195996936  0.7576934080290841  0.3786296199017686  1.0000
  H   H550      1.0  0.1322422534458546  0.7152265494708393  0.4142350340890549  1.0000
  H   H551      1.0  0.1216088490779087  0.6659328384583644  0.4064021403075878  1.0000
  H   H552      1.0  0.10082330828008333  0.7059000914808885  0.3938473025492002  1.0000
  N   N31       1.0  0.636015915008623  0.6202474405002942  0.2230791355589138  1.0000
  C   C409      1.0  0.6167780756366754  0.6035359849262737  0.20034103120547994  1.0000
  C   C410      1.0  0.6617182999107738  0.6055976645320802  0.2222319316856042  1.0000
  C   C411      1.0  0.6297094127293462  0.6083601561932952  0.24859951554745957  1.0000
  C   C412      1.0  0.6359300273718322  0.663321554022019  0.22098564422652928  1.0000
  H   H553      1.0  0.5971441841355883  0.6141580148672799  0.20016067640243046  1.0000
  H   H554      1.0  0.6162643800545892  0.571000853057237  0.20147474804726462  1.0000
  H   H555      1.0  0.6212255439174862  0.6114555100320583  0.1807657787720616  1.0000
  H   H556      1.0  0.6672710862749061  0.6145009714688691  0.20339772532953115  1.0000
  H   H557      1.0  0.6767378991056483  0.6167251287897695  0.23942104686337515  1.0000
  H   H558      1.0  0.6622247373283083  0.573172193057372  0.22309364749184174  1.0000
  H   H559      1.0  0.644247012481557  0.6193197063817466  0.2662914886439517  1.0000
  H   H560      1.0  0.6291092623849931  0.5759138625420451  0.25033231112948084  1.0000
  H   H561      1.0  0.6106040294270143  0.6194087160018741  0.250188192375535  1.0000
  H   H562      1.0  0.650324563236085  0.6768750580573202  0.23777768593974768  1.0000
  H   H563      1.0  0.6167915101520383  0.6754986308344646  0.22141244234916996  1.0000
  H   H564      1.0  0.6406973553174458  0.6728940682887613  0.20184410911768372  1.0000
  N   N32       1.0  0.925007130107175  0.25798287280817217  0.5201667043389727  1.0000
  C   C413      1.0  0.9423139131890504  0.2822168989546973  0.5406119595649604  1.0000
  C   C414      1.0  0.921402898354169  0.2770334015589896  0.4936720842030471  1.0000
  C   C415      1.0  0.8999084285237959  0.2536305105068987  0.5274029948387576  1.0000
  C   C416      1.0  0.9365014400653513  0.21902310071338837  0.5190385405377499  1.0000
  H   H565      1.0  0.9462793125556517  0.26811707763795534  0.5606743265971339  1.0000
  H   H566      1.0  0.9338585016611595  0.3114065988733784  0.542608782051647  1.0000
  H   H567      1.0  0.9610578945432389  0.287581303901884  0.5352109648844221  1.0000
  H   H568      1.0  0.9084680247110646  0.25971049744049224  0.47764435855549164  1.0000
  H   H569      1.0  0.9129302180437219  0.3065982968097956  0.49387777164893065  1.0000
  H   H570      1.0  0.9400165565071886  0.2811985552378337  0.48772625920200796  1.0000
  H   H571      1.0  0.8860018206716067  0.23675988511414164  0.5119398771260313  1.0000
  H   H572      1.0  0.8911181375027382  0.2825504081810451  0.5295843791982138  1.0000
  H   H573      1.0  0.9018180140272191  0.23804828520625715  0.54683813632384  1.0000
  H   H574      1.0  0.9239481405958201  0.19991252514002258  0.5038198029610962  1.0000
  H   H575      1.0  0.9395057486607714  0.20389285792050552  0.5387729548533846  1.0000
  H   H576      1.0  0.9555010474445271  0.22130455579905356  0.513704145345876  1.0000
  N   N33       1.0  0.9191430060986657  0.8419076635166854  0.047959387827579816  1.0000
  C   C417      1.0  0.9244263316402571  0.8531038115851802  0.07660790345090962  1.0000
  C   C418      1.0  0.9429967696533639  0.8278157838675282  0.041280892428467775  1.0000
  C   C419      1.0  0.9096259948756665  0.8763056335175539  0.03127870193772494  1.0000
  C   C420      1.0  0.8996248047525154  0.8103548951978962  0.04277798528846007  1.0000
  H   H577      1.0  0.906854198450014  0.8638434044552296  0.08238606151604033  1.0000
  H   H578      1.0  0.9390408423189137  0.8769239648000398  0.08121221351935091  1.0000
  H   H579      1.0  0.9318367624559362  0.827895000642505  0.08977779127908193  1.0000
  H   H580      1.0  0.9396668487966797  0.8183556218242676  0.019951244534830433  1.0000
  H   H581      1.0  0.9579764313146001  0.8511480694879211  0.04441362587843989  1.0000
  H   H582      1.0  0.951123453463982  0.8024841771886085  0.05400882915346281  1.0000
  H   H583      1.0  0.9055445169381905  0.8690698720313045  0.009499114135881337  1.0000
  H   H584      1.0  0.9240401395537214  0.9005787691430384  0.03491183394436513  1.0000
  H   H585      1.0  0.891667437253643  0.8878509191683158  0.03581175377865463  1.0000
  H   H586      1.0  0.8951272233919234  0.8011204730634355  0.021332675906963243  1.0000
  H   H587      1.0  0.8813678503215224  0.8198315342728609  0.047710342384175694  1.0000
  H   H588      1.0  0.9064544264890951  0.7840313708526442  0.055124135522438604  1.0000
  N   N34       1.0  0.11451314390322258  0.027242373914820196  0.4262051136673817  1.0000
  C   C421      1.0  0.11624010847211885  0.9851555294498563  0.4203430600131421  1.0000
  C   C422      1.0  0.14049791950468174  0.04487847594655543  0.43187250237912406  1.0000
  C   C423      1.0  0.10324134745562699  0.03226513204237767  0.44978250065426206  1.0000
  C   C424      1.0  0.09809367596224035  0.046668128180556046  0.402744049977134  1.0000
  H   H589      1.0  0.12451494664825753  0.9805277955030044  0.40253812898549113  1.0000
  H   H590      1.0  0.09706625576821772  0.9706012161668046  0.4157995215998856  1.0000
  H   H591      1.0  0.1287107675173328  0.9693237190199677  0.43735684406772857  1.0000
  H   H592      1.0  0.1531941315259137  0.03201418162571606  0.4500344299160687  1.0000
  H   H593      1.0  0.14995938830216954  0.04011719599706074  0.414910623927058  1.0000
  H   H594      1.0  0.13988147660337205  0.07710006321057145  0.43482198338559164  1.0000
  H   H595      1.0  0.11509961955179747  0.017765687492983018  0.4678198384382136  1.0000
  H   H596      1.0  0.08359370760835645  0.0193549210234234  0.4461058963327142  1.0000
  H   H597      1.0  0.10178286689771925  0.06377812352560669  0.4547098462458154  1.0000
  H   H598      1.0  0.10600113896281113  0.04317379093583538  0.3845944441183855  1.0000
  H   H599      1.0  0.09672754127801995  0.07868121610038539  0.40614895648240545  1.0000
  H   H600      1.0  0.07830758075857332  0.03426352832247956  0.39784413900107596  1.0000
  N   N35       1.0  0.4543127543745336  0.079345566868411  0.1760964350762931  1.0000
  C   C425      1.0  0.45406001953440533  0.07522113875552842  0.20479295674537057  1.0000
  C   C426      1.0  0.43102229717063795  0.10023658656710357  0.1620329358350295  1.0000
  C   C427      1.0  0.4548697452874277  0.040153978117315595  0.16403763765699478  1.0000
  C   C428      1.0  0.4773050277880422  0.10176676094974811  0.1734299403060707  1.0000
  H   H601      1.0  0.4714815382125788  0.05992296628882328  0.21608650853452901  1.0000
  H   H602      1.0  0.4371205525968723  0.057900258182507075  0.20745652707679285  1.0000
  H   H603      1.0  0.45324298723940254  0.10417987199849399  0.21451054855634324  1.0000
  H   H604      1.0  0.43043310464609236  0.1034039311069126  0.14023897022526777  1.0000
  H   H605      1.0  0.41327641879513316  0.08445040603880648  0.1637849670576944  1.0000
  H   H606      1.0  0.43020583114928096  0.13016626283251956  0.17032951518817163  1.0000
  H   H607      1.0  0.43748980601622306  0.022722928687565872  0.1648933989186613  1.0000
  H   H608      1.0  0.4718473027966932  0.023149515695347844  0.1745167668706706  1.0000
  H   H609      1.0  0.4557551772772647  0.04219548162971545  0.14259382011757227  1.0000
  H   H610      1.0  0.4952912301295085  0.08668885930467941  0.18345147466279657  1.0000
  H   H611      1.0  0.47763146007840596  0.13150273366746998  0.18236096881269087  1.0000
  H   H612      1.0  0.4778401008052825  0.10558261092640343  0.15191064511113128  1.0000
  N   N36       1.0  0.08964496805798804  0.4852273386418213  0.7470977880192137  1.0000
  C   C429      1.0  0.07634322359092488  0.45741207060438865  0.7614684721661844  1.0000
  C   C430      1.0  0.07183224496418328  0.5167072188692563  0.7352955229054465  1.0000
  C   C431      1.0  0.09855791824970402  0.4644934899409115  0.7255873515815598  1.0000
  C   C432      1.0  0.11197644319978353  0.5023434760824148  0.7661733171750262  1.0000
  H   H613      1.0  0.08942033972425566  0.43366550078820915  0.771083885121082  1.0000
  H   H614      1.0  0.05943323333871106  0.44359910217927856  0.7477977378957725  1.0000
  H   H615      1.0  0.06951589103940194  0.4721882517880799  0.7779677428316172  1.0000
  H   H616      1.0  0.05481359480354371  0.5050120789704617  0.7205808843440846  1.0000
  H   H617      1.0  0.06464687193819335  0.5327414074553829  0.751039412329632  1.0000
  H   H618      1.0  0.08138649169704738  0.5386040985343558  0.7246622644703747  1.0000
  H   H619      1.0  0.1088449509860343  0.48474787119281915  0.7145535230284523  1.0000
  H   H620      1.0  0.08221490513937665  0.45122051828998927  0.7107433815099338  1.0000
  H   H621      1.0  0.11205943100901262  0.4405868368643326  0.7339286081270844  1.0000
  H   H622      1.0  0.12250333032824001  0.5238407761783959  0.756284961355422  1.0000
  H   H623      1.0  0.12579388150721607  0.4793838322898549  0.7755468103498563  1.0000
  H   H624      1.0  0.10593788371266515  0.5176959929398761  0.7828334334409672  1.0000
  N   N37       1.0  0.6138962213280431  0.9963621882518804  0.8233575328304955  1.0000
  C   C433      1.0  0.6407331217743996  0.9903947484041  0.837950966860978  1.0000
  C   C434      1.0  0.6006972061658034  0.020921561474552153  0.8397733326071525  1.0000
  C   C435      1.0  0.6007853802542639  0.958034556097141  0.8182940154650739  1.0000
  C   C436      1.0  0.6135758852027223  0.01613485256249536  0.7976169640273915  1.0000
  H   H625      1.0  0.6507793071134506  0.0188229190130349  0.8432621396262915  1.0000
  H   H626      1.0  0.6516642812453374  0.9733108368957972  0.8258274317087599  1.0000
  H   H627      1.0  0.6418548791462465  0.9742192808091792  0.8569761704511892  1.0000
  H   H628      1.0  0.5801387633481225  0.02506566318561565  0.8298447767318298  1.0000
  H   H629      1.0  0.6015617755965733  0.0075869171971458815  0.859832173127777  1.0000
  H   H630      1.0  0.6097502264174247  0.050447179621967875  0.8433260149865087  1.0000
  H   H631      1.0  0.610464169932378  0.9386713077252256  0.8061907647797336  1.0000
  H   H632      1.0  0.5804387771998537  0.9612639474584276  0.8072761173585314  1.0000
  H   H633      1.0  0.6008409506642014  0.9426756082656574  0.8375292584797914  1.0000
  H   H634      1.0  0.5936482861423654  0.020803709418137917  0.7858128465126901  1.0000
  H   H635      1.0  0.6239677026561283  0.99892168117093  0.7849618275091479  1.0000
  H   H636      1.0  0.6231827836202419  0.045319990945021704  0.8009904440537787  1.0000
  N   N38       1.0  0.005665632296873335  0.012117208684274017  0.7194111613557068  1.0000
  C   C437      1.0  0.005480794803878641  0.004870073492158067  0.6908723361373752  1.0000
  C   C438      1.0  0.9796087891409038  0.005683662645389775  0.723837743796179  1.0000
  C   C439      1.0  0.013828697519925326  0.05288185811797419  0.7265439575952445  1.0000
  C   C440      1.0  0.02372060503091511  0.9849702517668187  0.7364070013473267  1.0000
  H   H637      1.0  0.9995575002408165  0.9743037439036459  0.6848010835809194  1.0000
  H   H638      1.0  0.024748816835429066  0.009762228833483322  0.6866595395706981  1.0000
  H   H639      1.0  0.9918194003771403  0.02450286170047078  0.6773815867223746  1.0000
  H   H640      1.0  0.9788430832272833  0.01168022419742587  0.7450459307160435  1.0000
  H   H641      1.0  0.9654490298358528  0.02540859116532812  0.7111550460927402  1.0000
  H   H642      1.0  0.9728719124256223  0.9751379625307719  0.7189179759207027  1.0000
  H   H643      1.0  0.013875994603688158  0.05958755320006004  0.747873912246138  1.0000
  H   H644      1.0  0.0006821074613176936  0.07408886816216853  0.7139461026243195  1.0000
  H   H645      1.0  0.03348653611496233  0.058845060246365044  0.7236721265819757  1.0000
  H   H646      1.0  0.018095351450081454  0.9539309746473321  0.7314573844518444  1.0000
  H   H647      1.0  0.024274228790395647  0.9896177258134009  0.7580749869331226  1.0000
  H   H648      1.0  0.04359714483032362  0.9890206575177303  0.7335900274112913  1.0000
  N   N39       1.0  0.5745732815414123  0.03495245830052274  0.5826011149679307  1.0000
  C   C441      1.0  0.559296625552972  0.07074280302988911  0.575182495333024  1.0000
  C   C442      1.0  0.5717406171989899  0.021602073671136424  0.6092301749151613  1.0000
  C   C443      1.0  0.6019012393971599  0.043483885630400954  0.5837264049436128  1.0000
  C   C444      1.0  0.5654357476622286  0.004035293448974908  0.5623924072104033  1.0000
  H   H649      1.0  0.5384133866011002  0.06481642850838121  0.5725592943991437  1.0000
  H   H650      1.0  0.5625600535342664  0.08371376331058333  0.5563299981408629  1.0000
  H   H651      1.0  0.5645780030703109  0.09350632558187999  0.5910939240751334  1.0000
  H   H652      1.0  0.5830544536099702  0.9947527075824456  0.615596200993578  1.0000
  H   H653      1.0  0.5786572764777342  0.0443173845398428  0.6249444193715222  1.0000
  H   H654      1.0  0.551384924572655  0.014816367177139522  0.6091942507318079  1.0000
  H   H655      1.0  0.6139545135918312  0.017112690646787554  0.5891594939255036  1.0000
  H   H656      1.0  0.6095945749137632  0.06607140232378961  0.5990864690194604  1.0000
  H   H657      1.0  0.6049412147343755  0.05418723412566395  0.5641892243270401  1.0000
  H   H658      1.0  0.5452006969284662  0.9954312613269685  0.5616810115486591  1.0000
  H   H659      1.0  0.5771784989681908  0.9771647320126524  0.567034366155797  1.0000
  H   H660      1.0  0.5667630950440216  0.013484662843979311  0.5419868915323622  1.0000
  N   N40       1.0  0.41785262561121517  0.4087078250863381  0.6378546500208352  1.0000
  C   C445      1.0  0.42753659325128335  0.3736307684549748  0.6265141421708232  1.0000
  C   C446      1.0  0.40586436040493584  0.3972698251513334  0.660038104212677  1.0000
  C   C447      1.0  0.3985533751404415  0.42811734291204245  0.6166747158289885  1.0000
  C   C448      1.0  0.4394141061842068  0.4359609981959047  0.648178212344862  1.0000
  H   H661      1.0  0.43635166765711136  0.3813548176507735  0.6094565425737565  1.0000
  H   H662      1.0  0.4118107345497526  0.3522934824990577  0.6186946819042751  1.0000
  H   H663      1.0  0.44244137079937423  0.35847207502967726  0.6417875556794607  1.0000
  H   H664      1.0  0.3985542791890086  0.4233359872742866  0.6690486175190835  1.0000
  H   H665      1.0  0.3892927683188866  0.3771144268987729  0.6529559940362053  1.0000
  H   H666      1.0  0.4198160552520478  0.38243560144815636  0.6764074225324948  1.0000
  H   H667      1.0  0.39035426657917793  0.4541472043656003  0.6246294225948233  1.0000
  H   H668      1.0  0.38230352150239433  0.408190322210064  0.6078411408268181  1.0000
  H   H669      1.0  0.4070647579533309  0.4382470178564342  0.6000021816300882  1.0000
  H   H670      1.0  0.45416736709590133  0.4224939869742886  0.6644824247787854  1.0000
  H   H671      1.0  0.4327018361993203  0.46303889911685114  0.6565420999464235  1.0000
  H   H672      1.0  0.44909330844515816  0.44495781652190075  0.6320636875188052  1.0000
  N   N41       1.0  0.3400160594387786  0.9285767370602749  0.3978132464976842  1.0000
  C   C449      1.0  0.32686955319003347  0.9655707913245237  0.40102456053041985  1.0000
  C   C450      1.0  0.32606456659416894  0.8955499407534365  0.4066211597500469  1.0000
  C   C451      1.0  0.3666342835527116  0.9301039287077401  0.4141724873638479  1.0000
  C   C452      1.0  0.3405140307308233  0.9230965208607  0.3693027916583675  1.0000
  H   H673      1.0  0.33645149406475205  0.9909991697387236  0.39374086540567454  1.0000
  H   H674      1.0  0.3266702695854393  0.9712759204231177  0.4223690394734301  1.0000
  H   H675      1.0  0.30653847305435694  0.9651056702686862  0.3894110785192458  1.0000
  H   H676      1.0  0.3355016145436174  0.8672060964213413  0.404377524725304  1.0000
  H   H677      1.0  0.3252387030375691  0.8987329822497969  0.42804754074453455  1.0000
  H   H678      1.0  0.30592488934903056  0.8936363530501643  0.3945271096971786  1.0000
  H   H679      1.0  0.377672178872795  0.9546931157095804  0.4078864887258346  1.0000
  H   H680      1.0  0.37728706044098304  0.9028949696620101  0.41183821515193264  1.0000
  H   H681      1.0  0.3671780063163336  0.9340155925944738  0.43586096987292744  1.0000
  H   H682      1.0  0.3506769767039394  0.8957827328909229  0.3661145319981855  1.0000
  H   H683      1.0  0.35094861538119115  0.9474998754006053  0.3621586947836854  1.0000
  H   H684      1.0  0.32080749947845055  0.921845678393869  0.3562150642452931  1.0000
  N   N42       1.0  0.9009020644626494  0.16830756499054444  0.1408702805357478  1.0000
  C   C453      1.0  0.8794467159691628  0.1556011037920904  0.11877519869565874  1.0000
  C   C454      1.0  0.8931679597265703  0.20328269911689426  0.15403396563061464  1.0000
  C   C455      1.0  0.9235160116665618  0.1780151477910427  0.13005797778295294  1.0000
  C   C456      1.0  0.9075119831777698  0.1362679552900775  0.16049998416001424  1.0000
  H   H685      1.0  0.8847577517846684  0.12978463579819693  0.10796725240855772  1.0000
  H   H686      1.0  0.8737196935878828  0.17917639617668055  0.10372964875723388  1.0000
  H   H687      1.0  0.8621582091725211  0.14753532486817156  0.1262149178672556  1.0000
  H   H688      1.0  0.9089105379040431  0.21385087629132757  0.17075146125378396  1.0000
  H   H689      1.0  0.8881751710003679  0.2278930651202526  0.13953045016227636  1.0000
  H   H690      1.0  0.8760389522927171  0.19723538966279996  0.16229598434350753  1.0000
  H   H691      1.0  0.9192887546492937  0.20230308050428558  0.11531742182416244  1.0000
  H   H692      1.0  0.9296842697955847  0.15245918530051683  0.1196380610514488  1.0000
  H   H693      1.0  0.9401237226100534  0.18751397417993812  0.14617025777925036  1.0000
  H   H694      1.0  0.9237334323413462  0.1446692440665043  0.1774186278603053  1.0000
  H   H695      1.0  0.9133495981633258  0.10957021424959867  0.15087485312106358  1.0000
  H   H696      1.0  0.8909005271382419  0.1280836895577527  0.1690927351160236  1.0000
  N   N43       1.0  0.20357789099608292  0.5890122167567747  0.5764615747260183  1.0000
  C   C457      1.0  0.1848535817737446  0.5650662366054147  0.5571693903978882  1.0000
  C   C458      1.0  0.19454811221287927  0.5935835974029698  0.6015086634097114  1.0000
  C   C459      1.0  0.20596981319105162  0.6279626261909873  0.5648687308679335  1.0000
  C   C460      1.0  0.22883979825571762  0.5695843565435272  0.5821519214978086  1.0000
  H   H697      1.0  0.1910513845839357  0.5610563325932867  0.5379902101358895  1.0000
  H   H698      1.0  0.16560543153182858  0.5790334060439399  0.5522221088903684  1.0000
  H   H699      1.0  0.1825020435702431  0.535463865552701  0.5652191749133217  1.0000
  H   H700      1.0  0.2081622586703372  0.6116385603869888  0.6165053769909178  1.0000
  H   H701      1.0  0.17550258795128895  0.608336108365835  0.5975875698957389  1.0000
  H   H702      1.0  0.19235400208467407  0.564789771035276  0.6108139967267823  1.0000
  H   H703      1.0  0.22008703675431368  0.6468098162612016  0.5787204158345979  1.0000
  H   H704      1.0  0.18725447949691926  0.6434916361200118  0.5603307962717881  1.0000
  H   H705      1.0  0.21253955244814537  0.6256053122966602  0.5458417440225516  1.0000
  H   H706      1.0  0.24367188720008773  0.5872417911253769  0.596106553631952  1.0000
  H   H707      1.0  0.2357891173700855  0.5653104256631448  0.5633984693408391  1.0000
  H   H708      1.0  0.22789596716399818  0.5402465524438302  0.5911991946157631  1.0000
  N   N44       1.0  0.5251314653755715  0.27479223801099656  0.8983075299610012  1.0000
  C   C461      1.0  0.5062330332855817  0.3052610431850989  0.9004717561499096  1.0000
  C   C462      1.0  0.5131063919858948  0.23575307677852794  0.8982742765907942  1.0000
  C   C463      1.0  0.5473531737372587  0.2780150714390524  0.9214320658190228  1.0000
  C   C464      1.0  0.5338942676919909  0.28013753260653135  0.8731893049443427  1.0000
  H   H709      1.0  0.5147249412874072  0.3351409811596141  0.9010388346987425  1.0000
  H   H710      1.0  0.4993034811373322  0.30193001670184344  0.9192551522252946  1.0000
  H   H711      1.0  0.4891077507340622  0.30398640077676453  0.8834205536246695  1.0000
  H   H712      1.0  0.5270604284540541  0.21197736567777634  0.8974715824250611  1.0000
  H   H713      1.0  0.5061450427195894  0.2308920153045755  0.9169426129660967  1.0000
  H   H714      1.0  0.4963929458904191  0.23195670303199348  0.880998954305951  1.0000
  H   H715      1.0  0.5620846904209756  0.2554246591680985  0.9206592111568541  1.0000
  H   H716      1.0  0.5413242486125378  0.27346860512403987  0.9405445546912545  1.0000
  H   H717      1.0  0.5566608878205673  0.30733780397255783  0.9226230068213822  1.0000
  H   H718      1.0  0.5481980900678706  0.2575233626926262  0.8710621200611036  1.0000
  H   H719      1.0  0.5431361175454859  0.3092895187058885  0.8727029491537553  1.0000
  H   H720      1.0  0.5175838247349149  0.2779733970692869  0.8553131679350425  1.0000
  N   N45       1.0  0.5440066431435499  0.9293284937317108  0.0297420533585189  1.0000
  C   C465      1.0  0.5161567153569885  0.9208529936037353  0.022450572210250607  1.0000
  C   C466      1.0  0.5574967229828115  0.8968084241876675  0.04593651206286124  1.0000
  C   C467      1.0  0.5486749089686717  0.9659228390357019  0.045555753937727476  1.0000
  C   C468      1.0  0.553700484448841  0.9337489966207575  0.005059435563375958  1.0000
  H   H721      1.0  0.505277216640505  0.9447062287782791  0.010236610459363192  1.0000
  H   H722      1.0  0.5082020546669194  0.9172219420489877  0.04060486961684679  1.0000
  H   H723      1.0  0.5119855602134635  0.893339909213863  0.010570801151105869  1.0000
  H   H724      1.0  0.5786318241179101  0.9018568034153084  0.051507132527362665  1.0000
  H   H725      1.0  0.5505586702281845  0.892291274034141  0.06464148641407433  1.0000
  H   H726      1.0  0.5543658828779277  0.8687640988573644  0.03467198685376492  1.0000
  H   H727      1.0  0.5695348588796837  0.9731372583882941  0.05137600245692287  1.0000
  H   H728      1.0  0.5415382794363451  0.9635748511065448  0.06430234703885473  1.0000
  H   H729      1.0  0.5387699770891701  0.9911002220036266  0.033937528799033646  1.0000
  H   H730      1.0  0.5747127072124807  0.9400649530018872  0.009803260531556113  1.0000
  H   H731      1.0  0.5439426500200834  0.9579074064941225  0.9922533704498417  1.0000
  H   H732      1.0  0.5507377126601719  0.9065064763322058  0.9927469551429664  1.0000
  N   N46       1.0  0.9636027828118705  0.5236670274624007  0.08022291839708166  1.0000
  C   C469      1.0  0.9401201409067401  0.5064083195968597  0.06299887493193854  1.0000
  C   C470      1.0  0.9849892116200515  0.5209592869819029  0.06647220117623655  1.0000
  C   C471      1.0  0.9702937277481704  0.5020647028501277  0.10578470564173592  1.0000
  C   C472      1.0  0.9590029081171495  0.5651132651566526  0.08578980791335697  1.0000
  H   H733      1.0  0.923617487551838  0.5078254603760601  0.07287286276608816  1.0000
  H   H734      1.0  0.9427735701051906  0.4748773589538068  0.0588648339629096  1.0000
  H   H735      1.0  0.93443785354379  0.5217107795191062  0.043425042378118825  1.0000
  H   H736      1.0  0.0030090129745126135  0.533538673224296  0.07906578569872537  1.0000
  H   H737      1.0  0.9888837256468415  0.48997134663387915  0.06205953194668152  1.0000
  H   H738      1.0  0.9806250606874528  0.5370028840381521  0.04708865737188211  1.0000
  H   H739      1.0  0.9875431339165469  0.514670628852731  0.11972810597006042  1.0000
  H   H740      1.0  0.9738449295431449  0.47055862924735753  0.10255025195453474  1.0000
  H   H741      1.0  0.9543473897322958  0.5031938878132011  0.1162629491811392  1.0000
  H   H742      1.0  0.9762964695147681  0.578924168101212  0.09894242593856378  1.0000
  H   H743      1.0  0.9431501725935265  0.5680530296733407  0.09646879293689944  1.0000
  H   H744      1.0  0.9537643794999693  0.5824873450431676  0.06702632346981466  1.0000
  N   N47       1.0  0.6956566082693288  0.39381004523600865  0.48787106221192905  1.0000
  C   C473      1.0  0.722340696834865  0.40152048354536496  0.4857737408187126  1.0000
  C   C474      1.0  0.6955013534014897  0.38057761954614505  0.5152892028068895  1.0000
  C   C475      1.0  0.6840646578258861  0.36326908376129174  0.46825905100041726  1.0000
  C   C476      1.0  0.6806332607313769  0.43008388968296646  0.4820455039564666  1.0000
  H   H745      1.0  0.7230007048399126  0.4111084221186422  0.4651712859865485  1.0000
  H   H746      1.0  0.7344817665715685  0.3750303060960801  0.49040340068621585  1.0000
  H   H747      1.0  0.7314520950571521  0.42521558277627514  0.4997937404822691  1.0000
  H   H748      1.0  0.6755697011030344  0.37464098563495407  0.5174301498179621  1.0000
  H   H749      1.0  0.7066622622790958  0.3531979836997587  0.5203827041547973  1.0000
  H   H750      1.0  0.7040547388924693  0.40309491415351706  0.5305161736524288  1.0000
  H   H751      1.0  0.6837792398094199  0.37248577246182724  0.44731380993664693  1.0000
  H   H752      1.0  0.6637222963064408  0.35728748080513156  0.4689409214518444  1.0000
  H   H753      1.0  0.6947514724199401  0.33531138025213564  0.47199924013359323  1.0000
  H   H754      1.0  0.6888426770874789  0.4541180946564824  0.49619450284040584  1.0000
  H   H755      1.0  0.660233724388423  0.42546877123326826  0.48301652793703115  1.0000
  H   H756      1.0  0.6803982236990235  0.4405819306591672  0.46149835946639434  1.0000
  N   N48       1.0  0.0193496202999357  0.6645528600566061  0.5395589291573505  1.0000
  C   C477      1.0  0.9958465432753851  0.6502571380151054  0.5207652652332332  1.0000
  C   C478      1.0  0.0265926880357219  0.6368809372203569  0.5621206940998903  1.0000
  C   C479      1.0  0.014470744488826792  0.7034273786129486  0.5499495726006376  1.0000
  C   C480      1.0  0.040505792764728765  0.6677194894118703  0.5254721081249799  1.0000
  H   H757      1.0  0.9896114921052414  0.6706930029276988  0.5036870140821108  1.0000
  H   H758      1.0  0.9796207887686295  0.647391028221582  0.5309847743754138  1.0000
  H   H759      1.0  0.9988065562681869  0.6209987921575317  0.5125039442675932  1.0000
  H   H760      1.0  0.04415937719597962  0.6468830479393661  0.5767877492570561  1.0000
  H   H761      1.0  0.011074134446726669  0.6338486453535347  0.5732530866803552  1.0000
  H   H762      1.0  0.030442759401246633  0.6072419476923969  0.5550765214883256  1.0000
  H   H763      1.0  0.0314010819254924  0.7144051138538224  0.5650168289432289  1.0000
  H   H764      1.0  0.9981547022520373  0.7025280289591828  0.560012400757511  1.0000
  H   H765      1.0  0.009861287807372943  0.7255280792951753  0.5337083807648692  1.0000
  H   H766      1.0  0.058301195231099  0.679111194702234  0.5391079239399288  1.0000
  H   H767      1.0  0.03568813989152164  0.6881341467656635  0.5081955697227625  1.0000
  H   H768      1.0  0.045221093743167184  0.6388571392600252  0.5178401545888772  1.0000
