data_image0
_chemical_formula_structural       FeS2FeS2FeSFeS3FeS2FeS2FeSFeS3FeS2FeS2FeSFeS3FeS2FeS2FeSFeS3FeS2FeS2FeSFeS3FeS2FeS2FeSFeS3FeS2FeS2FeSFeS3FeS2FeS2FeSFeS3FeS2FeS2FeSFeS3FeS2FeS2FeSFeS3FeS2FeS2FeSFeS3FeS2FeS2FeSFeS3FeS2FeS2FeSFeS3FeS2FeS2FeSFeS3FeS2FeS2FeSFeS3FeS2FeS2FeSFeS3FeS2FeS2FeSFeS3FeS2FeS2FeSFeS3FeS2FeS2FeSFeS3FeS2FeS2FeSFeS3FeS2FeS2FeSFeS3FeS2FeS2FeSFeS3FeS2FeS2FeSFeS3FeS2FeS2FeSFeS3C6H4C6H4C6H4C6H4C6H4C6H4C6H4C6H4C6H4C6H4C6H4C6H4C6H4C6H4C6H4C6H4C6H4C6H4C6H4C6H4C6H4C6H4C6H4C6H4C6H4C6H4C6H4C6H4C6H4C6H4C6H4C6H4C6H4C6H4C6H4C6H4C6H4C6H4C6H4C6H4C6H4C6H4C6H4C6H4C6H4C6H4C6H4C6H4NC4H12NC4H12NC4H12NC4H12NC4H12NC4H12NC4H12NC4H12NC4H12NC4H12NC4H12NC4H12NC4H12NC4H12NC4H12NC4H12NC4H12NC4H12NC4H12NC4H12NC4H12NC4H12NC4H12NC4H12NC4H12NC4H12NC4H12NC4H12NC4H12NC4H12NC4H12NC4H12NC4H12NC4H12NC4H12NC4H12NC4H12NC4H12NC4H12NC4H12NC4H12NC4H12NC4H12NC4H12NC4H12NC4H12NC4H12NC4H12
_chemical_formula_sum              "Fe96 S192 C480 H768 N48"
_cell_length_a       25.71566215970721
_cell_length_b       46.07453943572335
_cell_length_c       45.976298958216944
_cell_angle_alpha    89.59149578956556
_cell_angle_beta     90.04390697765056
_cell_angle_gamma    89.55859291797167

_space_group_name_H-M_alt    "P 1"
_space_group_IT_number       1

loop_
  _space_group_symop_operation_xyz
  'x, y, z'

loop_
  _atom_site_type_symbol
  _atom_site_label
  _atom_site_symmetry_multiplicity
  _atom_site_fract_x
  _atom_site_fract_y
  _atom_site_fract_z
  _atom_site_occupancy
  Fe  Fe1       1.0  0.8890192876112879  0.9397491579411861  0.0908736514987436  1.0000
  S   S1        1.0  0.827679065211361  0.9121997342432204  0.07078880133725973  1.0000
  S   S2        1.0  0.928034533172075  0.920089258718673  0.12982104333117891  1.0000
  Fe  Fe2       1.0  0.8758887168962557  0.9882779657966461  0.04696219726895978  1.0000
  S   S3        1.0  0.8141878714826877  0.9647202232894694  0.022625583618918865  1.0000
  S   S4        1.0  0.893614642948927  0.032645033022771  0.029080483317615036  1.0000
  Fe  Fe3       1.0  0.7830227631073302  0.9537542486602951  0.06660874345721535  1.0000
  S   S5        1.0  0.6978336731873858  0.9580826569246963  0.07463143363388958  1.0000
  Fe  Fe4       1.0  0.8643444183569514  0.9253259451725883  0.028813317240148795  1.0000
  S   S6        1.0  0.8718885755614365  0.8912964541724893  0.9945477989238823  1.0000
  S   S7        1.0  0.8406798232096724  0.9803973594061278  0.0910226650099304  1.0000
  S   S8        1.0  0.930117413421858  0.949799580036009  0.048921989252739495  1.0000
  Fe  Fe5       1.0  0.35438496885095516  0.023806255890300054  0.5889986165734662  1.0000
  S   S9        1.0  0.3384975025341874  0.9958696595428334  0.5504481205811603  1.0000
  S   S10       1.0  0.2903374518606592  0.04392022067464074  0.6151837827257697  1.0000
  Fe  Fe6       1.0  0.4706731551507505  0.0138494447002524  0.5860491128383244  1.0000
  S   S11       1.0  0.46522936592526276  0.9848651483676675  0.5473682299912213  1.0000
  S   S12       1.0  0.5481679998897034  0.025958103284484668  0.6045590740910785  1.0000
  Fe  Fe7       1.0  0.40774001460663456  0.017794622014821293  0.5308616018917888  1.0000
  S   S13       1.0  0.4078443469734168  0.034550048175517656  0.4849735888984194  1.0000
  Fe  Fe8       1.0  0.39679028348907136  0.9656714716001041  0.5703591750363777  1.0000
  S   S14       1.0  0.3821065852803305  0.9179277894144247  0.5703445341936872  1.0000
  S   S15       1.0  0.41854736413890037  0.04867042982688474  0.5677836975162388  1.0000
  S   S16       1.0  0.40735233995735376  0.9916470384843691  0.6108438049526999  1.0000
  Fe  Fe9       1.0  0.5113584278688463  0.13015368471026734  0.7164330148472524  1.0000
  S   S17       1.0  0.5000932547667006  0.14675186897467393  0.671007525591425  1.0000
  S   S18       1.0  0.49887275398228004  0.08290766436200347  0.7251596980467357  1.0000
  Fe  Fe10      1.0  0.5318903425607643  0.18984967483883428  0.7401212765371591  1.0000
  S   S19       1.0  0.5227485201144609  0.21197617552250592  0.6967827363604815  1.0000
  S   S20       1.0  0.5472564001774496  0.21555886774080124  0.7803292042992674  1.0000
  Fe  Fe11      1.0  0.4543196336991905  0.18256742531943437  0.691449797191327  1.0000
  S   S21       1.0  0.3738682919920412  0.1941221427693022  0.6762941695349376  1.0000
  Fe  Fe12      1.0  0.5695614678339018  0.17407508368166627  0.6805292965886687  1.0000
  S   S22       1.0  0.6315744532731394  0.1775162899671704  0.6465512121769712  1.0000
  S   S23       1.0  0.4593576160454216  0.16363824136496088  0.7362608491391377  1.0000
  S   S24       1.0  0.5850088057713779  0.15440860924179517  0.7244859296643247  1.0000
  Fe  Fe13      1.0  0.6152797891140259  0.14435686845432455  0.919321439873395  1.0000
  S   S25       1.0  0.6590915208351599  0.186056914212478  0.9159042426531667  1.0000
  S   S26       1.0  0.5553768233591709  0.1299760930672327  0.8873743454835936  1.0000
  Fe  Fe14      1.0  0.6716719312924181  0.12495664111262328  0.97360870517158  1.0000
  S   S27       1.0  0.7206682087749388  0.16490790552685175  0.9753634588823897  1.0000
  S   S28       1.0  0.6727238347359914  0.08985255693996774  0.007432283258224759  1.0000
  Fe  Fe15      1.0  0.6470512746636587  0.18839584211178803  0.9640361685160975  1.0000
  S   S29       1.0  0.6238330382560814  0.2295118993203619  0.9862900167036494  1.0000
  Fe  Fe16      1.0  0.7286217506743162  0.15874003209307666  0.9271755468891758  1.0000
  S   S30       1.0  0.802656389404815  0.16680876893104493  0.9026741375502164  1.0000
  S   S31       1.0  0.5967892464255137  0.14906233376968325  0.9665303350408484  1.0000
  S   S32       1.0  0.6860898175686206  0.11651109722030008  0.9264033786605103  1.0000
  Fe  Fe17      1.0  0.28308181933836657  0.33718367323390336  0.732280663634722  1.0000
  S   S33       1.0  0.32366589028803167  0.3535245949822958  0.7719274732531743  1.0000
  S   S34       1.0  0.33168131795340766  0.327901387368648  0.6928953481417309  1.0000
  Fe  Fe18      1.0  0.17721010378617064  0.34223313479409945  0.76011335472029  1.0000
  S   S35       1.0  0.20820769392021754  0.35927303635605123  0.802141778156024  1.0000
  S   S36       1.0  0.09144319142834112  0.3378523848062776  0.7539472490514982  1.0000
  Fe  Fe19      1.0  0.2593149873213081  0.38632894066849155  0.7734619736985882  1.0000
  S   S37       1.0  0.2798187631490369  0.432564876114003  0.78202084122823  1.0000
  Fe  Fe20      1.0  0.26914143153337383  0.324778005979918  0.7965578985540908  1.0000
  S   S38       1.0  0.29549585961559677  0.29670677045092214  0.8338848872103611  1.0000
  S   S39       1.0  0.22275927002631346  0.37246922633810575  0.7317315907578112  1.0000
  S   S40       1.0  0.23405453957492903  0.30523140331438176  0.7566818204552284  1.0000
  Fe  Fe21      1.0  0.04128454753916544  0.20705917813210586  0.9847525326286273  1.0000
  S   S41       1.0  0.0425358145971666  0.24764538534161168  0.9576415537166981  1.0000
  S   S42       1.0  0.9698926563876145  0.1843835293804441  0.0006264991839830536  1.0000
  Fe  Fe22      1.0  0.1578941081639087  0.20219436426278944  0.9879626212513144  1.0000
  S   S43       1.0  0.1705784855783301  0.24213710540035088  0.9608536404214452  1.0000
  S   S44       1.0  0.22011459355412966  0.17586723176678487  0.01020203171729861  1.0000
  Fe  Fe23      1.0  0.1064506888029515  0.2614874684362587  0.987317921006343  1.0000
  S   S45       1.0  0.11460444074181186  0.30773264371496556  0.0013144665710500547  1.0000
  Fe  Fe24      1.0  0.10614422687940595  0.2250115321104017  0.9330982801431665  1.0000
  S   S46       1.0  0.10226583236996056  0.23001610779395326  0.8845176410365415  1.0000
  S   S47       1.0  0.09914461090828763  0.22313125583652246  0.017136276109258386  1.0000
  S   S48       1.0  0.0992729731787596  0.18293382681557327  0.9576922519778411  1.0000
  Fe  Fe25      1.0  0.940389550429433  0.4348014277908633  0.1350251073135191  1.0000
  S   S49       1.0  0.9130814870016994  0.4750057465891095  0.1117755369736524  1.0000
  S   S50       1.0  0.9740819078936739  0.436268490257092  0.18001605845809904  1.0000
  Fe  Fe26      1.0  0.9164456871178962  0.3959226346555499  0.08392611252794402  1.0000
  S   S51       1.0  0.8864295152233553  0.43294669795912794  0.05649695575464264  1.0000
  S   S52       1.0  0.9136176513944425  0.3496877082331123  0.06838750657675163  1.0000
  Fe  Fe27      1.0  0.9555558780256087  0.45688057597969794  0.07365918214485756  1.0000
  S   S53       1.0  0.0033712290354275254  0.48613549283921215  0.04529933741027792  1.0000
  Fe  Fe28      1.0  0.8469812185930717  0.44741077215953706  0.097428251041898  1.0000
  S   S54       1.0  0.7663028281090053  0.4662025543411267  0.09867109939212226  1.0000
  S   S55       1.0  0.9890614971155255  0.4187614503673072  0.09794601862811136  1.0000
  S   S56       1.0  0.8707130306791563  0.40836957100031873  0.1236182722119976  1.0000
  Fe  Fe29      1.0  0.19317354208274604  0.49724052419321146  0.6208810357578944  1.0000
  S   S57       1.0  0.18714775629234204  0.5379104784818034  0.5940444512673205  1.0000
  S   S58       1.0  0.13284325301393954  0.4625667981285954  0.6247323021853043  1.0000
  Fe  Fe30      1.0  0.299963498661585  0.5118422671641707  0.643867614709481  1.0000
  S   S59       1.0  0.3034533918517853  0.553985011254186  0.6193593189678696  1.0000
  S   S60       1.0  0.3671822890354379  0.49690154171260503  0.6711444058874144  1.0000
  Fe  Fe31      1.0  0.2205449161674553  0.5594968520154873  0.6334290280313649  1.0000
  S   S61       1.0  0.18433598108735766  0.6001387901049887  0.6513374212535767  1.0000
  Fe  Fe32      1.0  0.27021998220275373  0.5283853612253196  0.5825405218321675  1.0000
  S   S62       1.0  0.30259816649987786  0.5338370587270219  0.5375153560061805  1.0000
  S   S63       1.0  0.2198444101995842  0.5195029903880645  0.6613333933259894  1.0000
  S   S64       1.0  0.2736435735741198  0.4856526613164152  0.6060614955093215  1.0000
  Fe  Fe33      1.0  0.2296116089554425  0.6555954100410885  0.8018302383658683  1.0000
  S   S65       1.0  0.20561192483404886  0.6962296747849317  0.7788478969775956  1.0000
  S   S66       1.0  0.27705701308819874  0.6237957069888859  0.7761556994829444  1.0000
  Fe  Fe34      1.0  0.17890824774683023  0.6740494350279077  0.858319579252807  1.0000
  S   S67       1.0  0.1496288188876554  0.7163494574594951  0.8398122877316987  1.0000
  S   S68       1.0  0.1693909518003965  0.6644696387150093  0.9059928978394073  1.0000
  Fe  Fe35      1.0  0.12915522728135234  0.6897620268492111  0.8008553523430164  1.0000
  S   S69       1.0  0.056635555161719475  0.6949015548154771  0.7742156661816612  1.0000
  Fe  Fe36      1.0  0.22866247153694888  0.7186972819473739  0.8196018570222435  1.0000
  S   S70       1.0  0.2739741772334823  0.759708179800402  0.8158383474991328  1.0000
  S   S71       1.0  0.1511390614677685  0.6468638387264251  0.8210479117239358  1.0000
  S   S72       1.0  0.26003180706066914  0.6785809178353526  0.8410919260680625  1.0000
  Fe  Fe37      1.0  0.9141981627686335  0.6583407274102019  0.9882792294550508  1.0000
  S   S73       1.0  0.845674906888893  0.686262438132118  0.9991409443395162  1.0000
  S   S74       1.0  0.9320286391634698  0.6576005149108439  0.9406023222099158  1.0000
  Fe  Fe38      1.0  0.9292553982536463  0.6395778157400898  0.05107646976790714  1.0000
  S   S75       1.0  0.8610012815138849  0.6655436379843171  0.06706115691072978  1.0000
  S   S76       1.0  0.9778867733229734  0.6161334363945233  0.0845293569010106  1.0000
  Fe  Fe39      1.0  0.8216288346838417  0.6488695256347166  0.02703268286702709  1.0000
  S   S77       1.0  0.7384432783009003  0.636717446478365  0.02170399055127592  1.0000
  Fe  Fe40      1.0  0.8915809666632749  0.7001863672339932  0.037432783760321886  1.0000
  S   S78       1.0  0.8996326113641901  0.7470444282776297  0.048550073858813825  1.0000
  S   S79       1.0  0.8867302020208084  0.6195341030092496  0.013514241662555992  1.0000
  S   S80       1.0  0.9630731307746725  0.6755249781194101  0.024453196058616955  1.0000
  Fe  Fe41      1.0  0.6252649910253603  0.771658455244052  0.9143020825347684  1.0000
  S   S81       1.0  0.5698103026737877  0.7522724314369451  0.9463001604945753  1.0000
  S   S82       1.0  0.6537258048061699  0.7443539168923248  0.8774897608483985  1.0000
  Fe  Fe42      1.0  0.6211612485211222  0.8308668784299097  0.9416279875587131  1.0000
  S   S83       1.0  0.5650319873214635  0.8167970378355056  0.9760466240086133  1.0000
  S   S84       1.0  0.6472632949130602  0.877109501974358  0.9416117585490072  1.0000
  Fe  Fe43      1.0  0.6152071371273019  0.7771677017735188  0.9791958718331346  1.0000
  S   S85       1.0  0.6381098727233796  0.7616458606759186  0.023679135372939086  1.0000
  Fe  Fe44      1.0  0.5245941096620997  0.7935488014279698  0.9398961652468503  1.0000
  S   S86       1.0  0.43839741235774216  0.789701650357248  0.9331290085927471  1.0000
  S   S87       1.0  0.67541380453989  0.7929568220718745  0.9477279354985666  1.0000
  S   S88       1.0  0.5763267046505409  0.8111154688576225  0.9050718499372781  1.0000
  Fe  Fe45      1.0  0.4917202902220352  0.8400318549827873  0.7016012283395399  1.0000
  S   S89       1.0  0.4894409615776908  0.7999403731711104  0.6743025515934018  1.0000
  S   S90       1.0  0.43598236154371917  0.8776319244913058  0.6979549697358163  1.0000
  Fe  Fe46      1.0  0.584190942046034  0.818477178499565  0.7372175902011895  1.0000
  S   S91       1.0  0.5894082040350984  0.7763335474742434  0.7133764528565373  1.0000
  S   S92       1.0  0.6378517213958903  0.8325797349298703  0.7726883937454536  1.0000
  Fe  Fe47      1.0  0.5764381478804338  0.8040170544820581  0.6736734412409495  1.0000
  S   S93       1.0  0.6261486186259564  0.8002168671871711  0.633789407843125  1.0000
  Fe  Fe48      1.0  0.5022125854769259  0.7765511365848147  0.7166424886785159  1.0000
  S   S94       1.0  0.4581184522164908  0.7361772642184424  0.7283945188780129  1.0000
  S   S95       1.0  0.5775375517785212  0.8462803232969659  0.6972808065988413  1.0000
  S   S96       1.0  0.4983320300519914  0.8164372691017636  0.7442190599794136  1.0000
  Fe  Fe49      1.0  0.17202737848479474  0.7680858430165487  0.04284081624142666  1.0000
  S   S97       1.0  0.24990954620236355  0.7469733070008668  0.04862015397475772  1.0000
  S   S98       1.0  0.12625645896294693  0.7619729342395815  0.0019213040180090513  1.0000
  Fe  Fe50      1.0  0.17339587662857978  0.7955518754574386  0.10229303244486988  1.0000
  S   S99       1.0  0.2519421540696386  0.7771385491685082  0.11370394189239996  1.0000
  S   S100      1.0  0.12354528843043529  0.8235349550702941  0.1309451552041564  1.0000
  Fe  Fe51      1.0  0.2724637699050927  0.7896727210555904  0.06780767888012473  1.0000
  S   S101      1.0  0.34658195653337553  0.8126984532661375  0.057163282190779485  1.0000
  Fe  Fe52      1.0  0.22235255912681576  0.7362143524818199  0.09351783023694038  1.0000
  S   S102      1.0  0.2348390622651843  0.6906444106313769  0.10971594736545877  1.0000
  S   S103      1.0  0.19649058858614032  0.8117697288971822  0.05816899156207245  1.0000
  S   S104      1.0  0.1418754289106952  0.7533822384956927  0.08616224645290216  1.0000
  Fe  Fe53      1.0  0.023776227721457044  0.7628013161347533  0.6302283249693218  1.0000
  S   S105      1.0  0.949631696661387  0.744717980212571  0.6481272982065628  1.0000
  S   S106      1.0  0.09899759959748766  0.7582151928554335  0.654875037030082  1.0000
  Fe  Fe54      1.0  0.9704993323669642  0.7885032568203795  0.5772914955613578  1.0000
  S   S107      1.0  0.8920704948208166  0.772408657677057  0.5908420421117432  1.0000
  S   S108      1.0  0.9732353845253018  0.8111983948450079  0.5339743049803541  1.0000
  Fe  Fe55      1.0  0.9146013042711534  0.7874278241835992  0.635148847917458  1.0000
  S   S109      1.0  0.8623560983061204  0.8081173267174946  0.6682145515084453  1.0000
  Fe  Fe56      1.0  0.9344679198156345  0.7314075337030529  0.602294352065716  1.0000
  S   S110      1.0  0.8934136549669701  0.6901955725104318  0.5913881400130239  1.0000
  S   S111      1.0  0.9899719827049063  0.8070156001127595  0.6209821404252032  1.0000
  S   S112      1.0  0.011496775806652204  0.7459774517367639  0.5850400452312051  1.0000
  Fe  Fe57      1.0  0.11188340066119995  0.5857879461756965  0.2978234282224466  1.0000
  S   S113      1.0  0.09555272433626393  0.5456038671895747  0.2724391064102191  1.0000
  S   S114      1.0  0.11745296732359937  0.584567947260565  0.3465884038196253  1.0000
  Fe  Fe58      1.0  0.11464628917345498  0.62397775444624  0.24408483969845646  1.0000
  S   S115      1.0  0.09862557383372828  0.5871117599821907  0.21406880290640876  1.0000
  S   S116      1.0  0.11444317934593307  0.6699177991788785  0.22750559951885913  1.0000
  Fe  Fe59      1.0  0.039911152158182084  0.57379983170438  0.24724219866613376  1.0000
  S   S117      1.0  0.9607105127191221  0.5624943154668881  0.23036460116827792  1.0000
  Fe  Fe60      1.0  0.15578457183601266  0.5623024811336873  0.24152087063222563  1.0000
  S   S118      1.0  0.20610868843514651  0.5288463114267831  0.21956222469721184  1.0000
  S   S119      1.0  0.050927933774207235  0.6126517036279109  0.27524841340249606  1.0000
  S   S120      1.0  0.17747295468335655  0.6005261139415107  0.26908470647811494  1.0000
  Fe  Fe61      1.0  0.9333653479322443  0.5021720314044502  0.5120688439572827  1.0000
  S   S121      1.0  0.9915284897804022  0.5235466448678991  0.4829345311397608  1.0000
  S   S122      1.0  0.9478495278529128  0.45972165190697134  0.5344153725177168  1.0000
  Fe  Fe62      1.0  0.8525524947633479  0.5493669140652131  0.5035096588577764  1.0000
  S   S123      1.0  0.9036075650918587  0.5753704599177739  0.4739620760681868  1.0000
  S   S124      1.0  0.7703310328080847  0.5640721044073373  0.5100362938692231  1.0000
  Fe  Fe63      1.0  0.9230387129840155  0.532623947259209  0.45379972186605055  1.0000
  S   S125      1.0  0.9196796026457503  0.5282561806761461  0.40524094104147973  1.0000
  Fe  Fe64      1.0  0.9665563300794403  0.5641110882509599  0.5059459157029764  1.0000
  S   S126      1.0  0.023861589067738498  0.5965375487875725  0.5226559519307885  1.0000
  S   S127      1.0  0.8669558125144072  0.5072519142839252  0.4809450295258355  1.0000
  S   S128      1.0  0.9135512963325277  0.5418795132934504  0.5376290882303585  1.0000
  Fe  Fe65      1.0  0.6037264304705395  0.4392801067236674  0.5280653188105183  1.0000
  S   S129      1.0  0.6551328652638734  0.4173948562764007  0.4956711856597797  1.0000
  S   S130      1.0  0.6413538537825091  0.46198067375092755  0.5653977418086116  1.0000
  Fe  Fe66      1.0  0.5051722942026144  0.419056882485554  0.4992102372294276  1.0000
  S   S131      1.0  0.5480302182169186  0.3945136579895242  0.46433068456379273  1.0000
  S   S132      1.0  0.4186676281203775  0.41703891267557797  0.5060726601817745  1.0000
  Fe  Fe67      1.0  0.6010787194466822  0.37981799174100794  0.500402154514589  1.0000
  S   S133      1.0  0.637407758134438  0.33519190086044437  0.5045543919804324  1.0000
  Fe  Fe68      1.0  0.5983554888200805  0.43417846742497146  0.46252326177880926  1.0000
  S   S134      1.0  0.6316077157356639  0.4543228347478837  0.4218918920933124  1.0000
  S   S135      1.0  0.5535106534326697  0.4005684604262615  0.5355287474070902  1.0000
  S   S136      1.0  0.5515813692338789  0.4599283995803134  0.4946980355815363  1.0000
  Fe  Fe69      1.0  0.5150770676035321  0.4562322677269819  0.27020566971008225  1.0000
  S   S137      1.0  0.5520852352831085  0.49983315669550327  0.2653343946323972  1.0000
  S   S138      1.0  0.4851594351033016  0.43874755334405  0.31268308907640635  1.0000
  Fe  Fe70      1.0  0.5091384207698243  0.4467962074576556  0.2050975080112773  1.0000
  S   S139      1.0  0.5447349572556849  0.4897961848960792  0.19454286151703468  1.0000
  S   S140      1.0  0.4850512981874714  0.41815402006698255  0.16833469712400123  1.0000
  Fe  Fe71      1.0  0.6004979598744912  0.4785991401777647  0.2305967835176793  1.0000
  S   S141      1.0  0.6879745854537695  0.4827426238861399  0.22756748859136  1.0000
  Fe  Fe72      1.0  0.49325550405056606  0.5069620742122609  0.22980961450578039  1.0000
  S   S142      1.0  0.4485476632881463  0.5490883194721625  0.22747507877223486  1.0000
  S   S143      1.0  0.5684405943608164  0.43401239519027407  0.23865109858512426  1.0000
  S   S144      1.0  0.4527468525955199  0.4647937661612061  0.2372138623210216  1.0000
  Fe  Fe73      1.0  0.8704394591808787  0.2501988433133358  0.6522527516583345  1.0000
  S   S145      1.0  0.9376227279335266  0.23635781166185743  0.624614273135419  1.0000
  S   S146      1.0  0.8427978233903776  0.22734707138040974  0.6925419394081038  1.0000
  Fe  Fe74      1.0  0.8451553353879103  0.3020980932000739  0.6141641718844726  1.0000
  S   S147      1.0  0.9099020034023841  0.29311951000533853  0.5827837604199151  1.0000
  S   S148      1.0  0.7893334484760005  0.33952551159622546  0.6118458968993586  1.0000
  Fe  Fe75      1.0  0.8848620260849239  0.24667587705791974  0.5869841317859913  1.0000
  S   S149      1.0  0.8854883622598789  0.2165985374801464  0.5486066409196024  1.0000
  Fe  Fe76      1.0  0.9569892838557441  0.2837542300860197  0.6229172932935889  1.0000
  S   S150      1.0  0.040781182547373174  0.2969613914429889  0.6269856319571234  1.0000
  S   S151      1.0  0.8156657758943143  0.2566776144808271  0.6149212687103258  1.0000
  S   S152      1.0  0.8940277253758507  0.29671293658296255  0.6540858795302369  1.0000
  Fe  Fe77      1.0  0.5146549404902605  0.22026933650498304  0.13081139465981906  1.0000
  S   S153      1.0  0.44581846840149214  0.19958189501879428  0.10982325262015213  1.0000
  S   S154      1.0  0.5938897022464866  0.20345993040742433  0.11958699990524324  1.0000
  Fe  Fe78      1.0  0.44809980757824647  0.25916375726518615  0.16899149073332584  1.0000
  S   S155      1.0  0.37336923673775796  0.24241867790358174  0.15087391942892497  1.0000
  S   S156      1.0  0.44724132133822  0.28862847325240876  0.20759445964884285  1.0000
  Fe  Fe79      1.0  0.412023757685317  0.19884118300747705  0.15478318505810923  1.0000
  S   S157      1.0  0.3751700788972445  0.16205557571203696  0.17905362376443615  1.0000
  Fe  Fe80      1.0  0.4142745002382414  0.24505906963484117  0.10789684899361318  1.0000
  S   S158      1.0  0.377445001421748  0.26273416569672625  0.06719920719884676  1.0000
  S   S159      1.0  0.4840391413082519  0.21534985038538848  0.17587672257841547  1.0000
  S   S160      1.0  0.486067247947748  0.26603713277592006  0.1255714408894597  1.0000
  Fe  Fe81      1.0  0.6207528453051818  0.9854273309321571  0.22124221106774392  1.0000
  S   S161      1.0  0.6387705939416104  0.026763525048378645  0.19770882079513394  1.0000
  S   S162      1.0  0.6662657012186756  0.9457362354303614  0.2093158547897584  1.0000
  Fe  Fe82      1.0  0.5418127378106082  0.013960766646920586  0.26017297953281965  1.0000
  S   S163      1.0  0.552910149067383  0.05816597757754072  0.24048133241659725  1.0000
  S   S164      1.0  0.4850382027426991  0.0045674195153229125  0.2959643345812386  1.0000
  Fe  Fe83      1.0  0.5527439041652152  0.03430294019272595  0.1981865870188026  1.0000
  S   S165      1.0  0.5161690899369452  0.051992214823699534  0.15743182395949668  1.0000
  Fe  Fe84      1.0  0.637580121112774  0.04685664446846083  0.24164639882899244  1.0000
  S   S166      1.0  0.7011285437643482  0.07779500187654143  0.25251133573729395  1.0000
  S   S167      1.0  0.534307943169933  0.9908649654632408  0.21759145536005456  1.0000
  S   S168      1.0  0.6271218806374479  0.004808098041087394  0.2655473413950965  1.0000
  Fe  Fe85      1.0  0.7704292707612749  0.12156336274863144  0.4252398695344269  1.0000
  S   S169      1.0  0.7285056833737258  0.16437693776416706  0.4218012812076793  1.0000
  S   S170      1.0  0.8570495903248598  0.11976268417567537  0.42099895451996333  1.0000
  Fe  Fe86      1.0  0.6718997297081285  0.08795975523120036  0.4373822084852631  1.0000
  S   S171      1.0  0.6217231622940301  0.12781753580980304  0.43543153951106184  1.0000
  S   S172      1.0  0.642377202740583  0.043274766368463835  0.4471374704752841  1.0000
  Fe  Fe87      1.0  0.6696399693962213  0.13940458865172367  0.39644865504141624  1.0000
  S   S173      1.0  0.627149896786902  0.1556586626656673  0.35688382887820663  1.0000
  Fe  Fe88      1.0  0.6852659456783249  0.1483912543785022  0.4609565066518704  1.0000
  S   S174      1.0  0.6685928685195829  0.17640881438912687  0.4993947934181139  1.0000
  S   S175      1.0  0.7154100313118885  0.09773029972395642  0.39636384800111923  1.0000
  S   S176      1.0  0.731758092170023  0.10750110255235823  0.4665165206153632  1.0000
  Fe  Fe89      1.0  0.10301939144492223  0.9943166640035224  0.22910392421633524  1.0000
  S   S177      1.0  0.12119864123797841  0.9466491607098664  0.2303588175495698  1.0000
  S   S178      1.0  0.025832401673744565  0.011939233279481654  0.21415520550963776  1.0000
  Fe  Fe90      1.0  0.21055540764392783  0.0109975798825801  0.2491308650252756  1.0000
  S   S179      1.0  0.2381161380813067  0.9648306423207871  0.2521183636357338  1.0000
  S   S180      1.0  0.2639107483465229  0.04869734682279225  0.2555929929454405  1.0000
  Fe  Fe91      1.0  0.19677593662070111  0.9591223899212153  0.2097414487245847  1.0000
  S   S181      1.0  0.23998731709611365  0.9352115856347097  0.17470351381483776  1.0000
  Fe  Fe92      1.0  0.16061257988612138  0.9566449231926868  0.2723452193091983  1.0000
  S   S182      1.0  0.1519393621877793  0.9260195038520354  0.3099852725767403  1.0000
  S   S183      1.0  0.17558434951517682  0.006041448708288488  0.20485190561415698  1.0000
  S   S184      1.0  0.1359101870711769  0.0034892460841684514  0.27323449693372936  1.0000
  Fe  Fe93      1.0  0.023102552044386382  0.9922559875926767  0.4649497133282963  1.0000
  S   S185      1.0  0.08254911819993738  0.9572474033663038  0.45676156442114596  1.0000
  S   S186      1.0  0.9453802618585302  0.9931228874590429  0.44243409237384695  1.0000
  Fe  Fe94      1.0  0.09039666710322303  0.02399808512470525  0.5077156734053797  1.0000
  S   S187      1.0  0.15692077935307802  0.9928381482713468  0.5027976983951534  1.0000
  S   S188      1.0  0.08898076431596302  0.06124215521689225  0.5388325455292793  1.0000
  Fe  Fe95      1.0  0.1387355963627639  0.9941605969969192  0.45523866701464794  1.0000
  S   S189      1.0  0.2008275595867639  0.9993684681981213  0.42133113077302586  1.0000
  Fe  Fe96      1.0  0.09592837615243521  0.9583887037290201  0.5049833656275894  1.0000
  S   S190      1.0  0.11826468708606686  0.9213449569600662  0.5346674619235156  1.0000
  S   S191      1.0  0.07858169037182972  0.029164295090046588  0.4598701951637037  1.0000
  S   S192      1.0  0.030406277491668243  0.9895379000529244  0.5135510166800774  1.0000
  C   C1        1.0  0.17163739856563986  0.9442988603380366  0.3413188084895374  1.0000
  C   C2        1.0  0.15784075692724397  0.933689283348552  0.3688027254459483  1.0000
  C   C3        1.0  0.16849858436406273  0.9500414031738966  0.393692799866966  1.0000
  C   C4        1.0  0.19273875557077202  0.9770067580303107  0.3910529561059371  1.0000
  C   C5        1.0  0.20928633025387997  0.9867490101764766  0.36374442178352473  1.0000
  C   C6        1.0  0.1982791493037943  0.9705481935654624  0.33885006190917233  1.0000
  H   H1        1.0  0.1376622603889801  0.9132460337752765  0.3707982079132499  1.0000
  H   H2        1.0  0.15748885232320853  0.9418582207988525  0.41482717780428113  1.0000
  H   H3        1.0  0.2288769265062991  0.007381608121219907  0.3616606428782876  1.0000
  H   H4        1.0  0.20990903834140548  0.9786374607188453  0.3177343859836931  1.0000
  C   C7        1.0  0.8807925902444957  0.0843688581134312  0.42597046833561664  1.0000
  C   C8        1.0  0.9344187622431864  0.0793220064889395  0.42521489933531015  1.0000
  C   C9        1.0  0.9543127971739617  0.051374579207544846  0.4303067468540985  1.0000
  C   C10       1.0  0.9207583574973704  0.028288838272035433  0.43606051054970907  1.0000
  C   C11       1.0  0.8669668314148531  0.03323802976911683  0.43616129591340336  1.0000
  C   C12       1.0  0.8469670113818344  0.06131404813783048  0.4313671819529539  1.0000
  H   H5        1.0  0.9605731374052126  0.09705574252192761  0.42061308127474  1.0000
  H   H6        1.0  0.9954831415860516  0.04768589041955118  0.42882887337830533  1.0000
  H   H7        1.0  0.8407321874419769  0.0154229493322382  0.440320261661951  1.0000
  H   H8        1.0  0.80541172251741  0.06503544983640608  0.43182850659969413  1.0000
  C   C13       1.0  0.4232054793964399  0.01809890533838132  0.28687753925476245  1.0000
  C   C14       1.0  0.3788094777206446  0.0027229962512742567  0.2951089833301043  1.0000
  C   C15       1.0  0.3294184498815976  0.012472191861368165  0.28626288957304047  1.0000
  C   C16       1.0  0.3243739714173494  0.03792275318413885  0.2697052857110261  1.0000
  C   C17       1.0  0.3685503045288635  0.05410769627932899  0.2628300284787886  1.0000
  C   C18       1.0  0.41798656135864676  0.0439606658460876  0.27098451994330613  1.0000
  H   H9        1.0  0.38266803719239634  0.9828849622882116  0.30769468477218026  1.0000
  H   H10       1.0  0.2952849173399762  0.000397431273584381  0.29244928497999545  1.0000
  H   H11       1.0  0.36461882039661747  0.0740719674337238  0.2504690693700715  1.0000
  H   H12       1.0  0.45188644132573363  0.056320830267614364  0.2651834399841035  1.0000
  C   C19       1.0  0.6497384714703304  0.13712188206024067  0.3261787485076877  1.0000
  C   C20       1.0  0.6154565265710114  0.1312120905985783  0.3033733388267627  1.0000
  C   C21       1.0  0.6311486600647624  0.11306793727486464  0.28058463880634954  1.0000
  C   C22       1.0  0.6817052782518569  0.10159221453485734  0.2801143435804648  1.0000
  C   C23       1.0  0.7167317683748603  0.10871085487547294  0.3021762423779321  1.0000
  C   C24       1.0  0.7005793722772976  0.1261861062126839  0.32537025267535297  1.0000
  H   H13       1.0  0.5762367964886606  0.13985897471076325  0.3038683906191954  1.0000
  H   H14       1.0  0.6042185430504993  0.10819182440831332  0.26334657788025206  1.0000
  H   H15       1.0  0.7559990774432844  0.10009557041148409  0.3017791268425555  1.0000
  H   H16       1.0  0.7276095229706716  0.1312436729799913  0.34260094403651364  1.0000
  C   C25       1.0  0.4739427680137689  0.0812925309503123  0.16337557823099236  1.0000
  C   C26       1.0  0.46293756541136016  0.10045427115747164  0.14043002703155505  1.0000
  C   C27       1.0  0.43224113612893494  0.12519134248449504  0.14520808860123982  1.0000
  C   C28       1.0  0.41113022650571057  0.13032989229846392  0.17271311997178695  1.0000
  C   C29       1.0  0.4204560536679023  0.11057540381893018  0.19542920774738726  1.0000
  C   C30       1.0  0.4524362069924439  0.08622778987311121  0.19084715621714907  1.0000
  H   H17       1.0  0.4790472160690678  0.09650251611525042  0.11906379314512615  1.0000
  H   H18       1.0  0.42427551337660674  0.14005973487282605  0.12746991073138408  1.0000
  H   H19       1.0  0.40386036636042016  0.11441195070383527  0.2166900064576134  1.0000
  H   H20       1.0  0.4597703051702649  0.07113584961839847  0.2084710976077696  1.0000
  C   C31       1.0  0.8245689689118436  0.20599730691430918  0.5353377508132185  1.0000
  C   C32       1.0  0.822697330372609  0.18698307797874023  0.5117989712754105  1.0000
  C   C33       1.0  0.7747953263642249  0.17770642381002494  0.5009818891359743  1.0000
  C   C34       1.0  0.728449656105726  0.1873241552891986  0.5137153946836504  1.0000
  C   C35       1.0  0.7300798975990351  0.2066755993955441  0.5369792683624811  1.0000
  C   C36       1.0  0.7781547913340088  0.21607804261244953  0.547722806200911  1.0000
  H   H21       1.0  0.8583565969359485  0.17955700402096175  0.5017558665553009  1.0000
  H   H22       1.0  0.7740265119142413  0.1632763200208827  0.48261806897185977  1.0000
  H   H23       1.0  0.694272565043249  0.2143590882502077  0.5466433162946248  1.0000
  H   H24       1.0  0.7791986158011959  0.231060948535524  0.5654974232487666  1.0000
  C   C37       1.0  0.4705510886306897  0.38281105407719274  0.17983458210540992  1.0000
  C   C38       1.0  0.4584201310985052  0.36184800911265685  0.15908969072459586  1.0000
  C   C39       1.0  0.45040328237327126  0.3329779899731687  0.16764256531745533  1.0000
  C   C40       1.0  0.4546883808106798  0.3249874883509923  0.19694861488066265  1.0000
  C   C41       1.0  0.4657863924308416  0.3460744714214045  0.21779435016176868  1.0000
  C   C42       1.0  0.47379452135800393  0.37499698300235035  0.20924014374543906  1.0000
  H   H25       1.0  0.45568702661807803  0.3678825182556089  0.13634731649247966  1.0000
  H   H26       1.0  0.4407077940709348  0.31697687501549915  0.1515363990392658  1.0000
  H   H27       1.0  0.46886127037963937  0.34000443715048384  0.24051295334453393  1.0000
  H   H28       1.0  0.482745048771662  0.39114953130520447  0.22539575937840203  1.0000
  C   C43       1.0  0.5905018734673549  0.450693949388079  0.3915942461909289  1.0000
  C   C44       1.0  0.6082421285906674  0.4586164820930986  0.36383384602235874  1.0000
  C   C45       1.0  0.5760121417166583  0.4552252621068273  0.3394093762774891  1.0000
  C   C46       1.0  0.5260653254064813  0.4438416994533503  0.3427646265141897  1.0000
  C   C47       1.0  0.5081683674885914  0.436321987188723  0.3705429264407341  1.0000
  C   C48       1.0  0.5402246577417837  0.43985927792691987  0.39492502077995273  1.0000
  H   H29       1.0  0.6471327446066003  0.4669198070832261  0.36112034850674885  1.0000
  H   H30       1.0  0.5900587738432734  0.4609523097391697  0.3179775619777725  1.0000
  H   H31       1.0  0.4695373910994522  0.42756277859750136  0.37323078692840855  1.0000
  H   H32       1.0  0.5259189098049182  0.43415769016473754  0.41627183094182435  1.0000
  C   C49       1.0  0.6779135743018452  0.33475555656142886  0.5352535238503439  1.0000
  C   C50       1.0  0.7168044797159767  0.3134907804854395  0.5385844714230711  1.0000
  C   C51       1.0  0.7505789008879553  0.3142754001257722  0.5625793050204221  1.0000
  C   C52       1.0  0.7449185162817187  0.3361217341888453  0.583359065391348  1.0000
  C   C53       1.0  0.7048772991974265  0.3565933039754178  0.5805838290400888  1.0000
  C   C54       1.0  0.6720932358644685  0.356189750099108  0.5563613427973025  1.0000
  H   H33       1.0  0.7221610038395541  0.29703603929133526  0.5222394148063861  1.0000
  H   H34       1.0  0.781819639146287  0.29850404258404284  0.5645255609353889  1.0000
  H   H35       1.0  0.6997638529449465  0.3732259011134606  0.5968629103233548  1.0000
  H   H36       1.0  0.6424610817878996  0.3726485368043815  0.5540810954721966  1.0000
  C   C55       1.0  0.7337770215041043  0.5369939032043944  0.5271604963525482  1.0000
  C   C56       1.0  0.7568784904139276  0.5182608266813797  0.5475475059341951  1.0000
  C   C57       1.0  0.7275280150262444  0.4960627761516221  0.5603908608772816  1.0000
  C   C58       1.0  0.6760962216535101  0.4915753759166145  0.5516135890105369  1.0000
  C   C59       1.0  0.6532097815825997  0.5101517180472623  0.5310276089257533  1.0000
  C   C60       1.0  0.6816264542910532  0.5333064336203048  0.519372997899217  1.0000
  H   H37       1.0  0.7970748532421503  0.5211924464084161  0.5537414960762248  1.0000
  H   H38       1.0  0.7449647146887837  0.4820321010721645  0.5766501487127843  1.0000
  H   H39       1.0  0.613323482470987  0.5069543745526146  0.5244186285353202  1.0000
  H   H40       1.0  0.6635570713880291  0.5478701190572532  0.5037631506776531  1.0000
  C   C61       1.0  0.273238373457726  0.5355775080587406  0.2203078287709178  1.0000
  C   C62       1.0  0.2927422306991737  0.5618334439193788  0.23060965989818097  1.0000
  C   C63       1.0  0.3466869418454973  0.5662182686417637  0.23198835081348512  1.0000
  C   C64       1.0  0.38122028417571996  0.5443575787243516  0.2231130533688522  1.0000
  C   C65       1.0  0.36160334730036964  0.5184357455469435  0.21209321579121004  1.0000
  C   C66       1.0  0.30775266999031226  0.5140217526604508  0.21076396954958132  1.0000
  H   H41       1.0  0.2664388147593427  0.5787943006658132  0.2375004631035222  1.0000
  H   H42       1.0  0.3616693342045574  0.5864362340753649  0.24026639681228124  1.0000
  H   H43       1.0  0.3878855167398607  0.5019452539990095  0.20411991482895436  1.0000
  H   H44       1.0  0.29291336399649964  0.4938234500836938  0.2023928045604463  1.0000
  C   C67       1.0  0.06171010995959802  0.5695233941582857  0.3625962716424181  1.0000
  C   C68       1.0  0.022541079531261277  0.5574548689504503  0.34542403544522365  1.0000
  C   C69       1.0  0.9789043471806979  0.5447959463836146  0.3585887372528052  1.0000
  C   C70       1.0  0.9740392978552133  0.5445033271952353  0.38892750587358604  1.0000
  C   C71       1.0  0.012651104448718087  0.5571215295659153  0.4060666347325403  1.0000
  C   C72       1.0  0.05656494164585002  0.5694461165908182  0.39291747273979366  1.0000
  H   H45       1.0  0.02596633848022023  0.5577555833638457  0.322019825441465  1.0000
  H   H46       1.0  0.9490115378146319  0.5352390454472842  0.3452677733900928  1.0000
  H   H47       1.0  0.00864901983772115  0.5574722637668554  0.42942076984991223  1.0000
  H   H48       1.0  0.08642646365612361  0.5791464864221971  0.4061554821988878  1.0000
  C   C73       1.0  0.013208199150622324  0.8419469623451948  0.5342494205999805  1.0000
  C   C74       1.0  0.006856349500007575  0.8635725385183682  0.512907961085915  1.0000
  C   C75       1.0  0.03851566237307069  0.8882963906316452  0.5130438072832423  1.0000
  C   C76       1.0  0.07721432783686266  0.8910893365130143  0.5342085897025723  1.0000
  C   C77       1.0  0.08395540146824221  0.86928733279218  0.5553018270659666  1.0000
  C   C78       1.0  0.051778155971603956  0.8448463621207477  0.5554530721908834  1.0000
  H   H49       1.0  0.9769959980171764  0.8614195484511191  0.49649574035984184  1.0000
  H   H50       1.0  0.033128136418260956  0.9050787899610004  0.4967231349036807  1.0000
  H   H51       1.0  0.11402752844850439  0.8713035237687394  0.5716022722079586  1.0000
  H   H52       1.0  0.05738050190893085  0.8280706251875176  0.5717248116070062  1.0000
  C   C79       1.0  0.9308859069972775  0.6646200386886063  0.5725229854446532  1.0000
  C   C80       1.0  0.9852727953331477  0.6658695466579744  0.5721547222450634  1.0000
  C   C81       1.0  0.0140699010021057  0.6453155006624438  0.5562932172034468  1.0000
  C   C82       1.0  0.988438186324686  0.623371647701867  0.5411225637731731  1.0000
  C   C83       1.0  0.9341586259137651  0.6221622373861095  0.5417215943428123  1.0000
  C   C84       1.0  0.9055040074999064  0.6426364669626368  0.5574588065558478  1.0000
  H   H53       1.0  0.005168762810926486  0.6824696830308382  0.5842505274885164  1.0000
  H   H54       1.0  0.056102644153323444  0.6462753992261048  0.5560106839089722  1.0000
  H   H55       1.0  0.9138980271530966  0.6054081109108537  0.5301078626427782  1.0000
  H   H56       1.0  0.8634599302496739  0.6414988064166595  0.5577310559653255  1.0000
  C   C85       1.0  0.20670509184715624  0.905115276619289  0.16094124226833562  1.0000
  C   C86       1.0  0.2336377382549948  0.8842713391471081  0.14468438274304132  1.0000
  C   C87       1.0  0.20814786144451652  0.8592559786411154  0.13507153033089767  1.0000
  C   C88       1.0  0.15583484885683466  0.8549197047766188  0.14202829208383377  1.0000
  C   C89       1.0  0.1288079391688044  0.8758823514991906  0.15803985587223665  1.0000
  C   C90       1.0  0.15398941104140312  0.9011387744458966  0.16703695471069285  1.0000
  H   H57       1.0  0.27437998151156795  0.887312352511338  0.1397095621695234  1.0000
  H   H58       1.0  0.2292105553588814  0.8432414505380161  0.1225362339613726  1.0000
  H   H59       1.0  0.08823179289422933  0.8727298214715561  0.1633216977026528  1.0000
  H   H60       1.0  0.1323660857219146  0.9176067200598913  0.17843767264106813  1.0000
  C   C91       1.0  0.20216970629993386  0.6848700774136627  0.14268070043242495  1.0000
  C   C92       1.0  0.2034821475273665  0.6574255928984154  0.15598654778486357  1.0000
  C   C93       1.0  0.17710026154876782  0.6526780889789605  0.18230146157896654  1.0000
  C   C94       1.0  0.1492682322521254  0.6753850529713117  0.19521413993747816  1.0000
  C   C95       1.0  0.14762855071608622  0.7027204894221522  0.1817495048871981  1.0000
  C   C96       1.0  0.1740549325202191  0.7074762046870249  0.1555226767279001  1.0000
  H   H61       1.0  0.22550919002330458  0.6399496932734217  0.14618142246968677  1.0000
  H   H62       1.0  0.17892350278386912  0.6315982708739764  0.1927617905206713  1.0000
  H   H63       1.0  0.12614398289185952  0.7203180819182792  0.19170998482567816  1.0000
  H   H64       1.0  0.17314616780117467  0.728762749003777  0.14548212155639245  1.0000
  C   C97       1.0  0.6910864976405613  0.8070868181393175  0.6429481331939982  1.0000
  C   C98       1.0  0.7057936442249149  0.8094806330271697  0.6721233307897546  1.0000
  C   C99       1.0  0.7585108629814565  0.8110882008418895  0.6796259555271013  1.0000
  C   C100      1.0  0.7966966549028032  0.8101709621675689  0.658000396452594  1.0000
  C   C101      1.0  0.7819650944360858  0.8090306977428633  0.6287382114465626  1.0000
  C   C102      1.0  0.7291446152264531  0.8075396263864209  0.6212167525334785  1.0000
  H   H65       1.0  0.6767425330635819  0.8093796490975832  0.689066037219613  1.0000
  H   H66       1.0  0.7696115650184516  0.8122244690256673  0.7022997846387063  1.0000
  H   H67       1.0  0.8111580495105473  0.8093562299842156  0.611898432110193  1.0000
  H   H68       1.0  0.7178013875907889  0.8061530174853179  0.5986014056411524  1.0000
  C   C103      1.0  0.4066815544875212  0.7999381275246272  0.9651492381288822  1.0000
  C   C104      1.0  0.3624563080180564  0.7849656276668111  0.9743123762323614  1.0000
  C   C105      1.0  0.34156519555554443  0.7901289625773875  0.0019883031726546374  1.0000
  C   C106      1.0  0.36528583824596333  0.8099920302179809  0.02059454221889223  1.0000
  C   C107      1.0  0.40764866496258273  0.8261124762394437  0.010689210197091015  1.0000
  C   C108      1.0  0.42810752607232927  0.8212038753397537  0.9829346286249295  1.0000
  H   H69       1.0  0.34588733103522373  0.7685010380785264  0.9605676745781703  1.0000
  H   H70       1.0  0.30829335860145124  0.7780642653699903  0.009186450734031348  1.0000
  H   H71       1.0  0.4254083193740271  0.8419940091483632  0.02472609557978478  1.0000
  H   H72       1.0  0.460652361814242  0.8338181493424607  0.975374422110753  1.0000
  C   C109      1.0  0.6554229371137722  0.7677102449794252  0.847293460254584  1.0000
  C   C110      1.0  0.6406536337120518  0.7578767236312247  0.8197758767819973  1.0000
  C   C111      1.0  0.6356237000015325  0.777648174976071  0.7965079075473631  1.0000
  C   C112      1.0  0.646712731101196  0.8070394945643786  0.800667957834745  1.0000
  C   C113      1.0  0.6634639515533044  0.8165242513895276  0.8279128268724102  1.0000
  C   C114      1.0  0.6672522026181684  0.7969638364650017  0.8512647616622724  1.0000
  H   H73       1.0  0.6313034096304431  0.7352570539397704  0.8166778775398865  1.0000
  H   H74       1.0  0.6229418432983647  0.7702202780640721  0.7754440530382073  1.0000
  H   H75       1.0  0.6720545521991645  0.839236716357896  0.8311855864151058  1.0000
  H   H76       1.0  0.6789631974562328  0.8046732223513294  0.8724380661346911  1.0000
  C   C115      1.0  0.9589416828955547  0.7565401474343123  0.03268270289034292  1.0000
  C   C116      1.0  0.9728680331395991  0.7450184019361615  0.005642990057502795  1.0000
  C   C117      1.0  0.023754116766973032  0.7481009662214717  0.9951963972024824  1.0000
  C   C118      1.0  0.06065448022043029  0.7625427758895982  0.011949682237860193  1.0000
  C   C119      1.0  0.04595085370609264  0.7753049702824009  0.03820748622346737  1.0000
  C   C120      1.0  0.9949956962127955  0.7725170073904246  0.04852799147817222  1.0000
  H   H77       1.0  0.9449283152715175  0.7327802015910319  0.9932160380281944  1.0000
  H   H78       1.0  0.0349691888483361  0.7380870593015438  0.9748943673031794  1.0000
  H   H79       1.0  0.07436013111112372  0.786685810875714  0.05097265136651674  1.0000
  H   H80       1.0  0.9845079540344613  0.7811651998035557  0.06956410051181461  1.0000
  C   C121      1.0  0.7059150972567707  0.6701123831065318  0.023697711234577756  1.0000
  C   C122      1.0  0.7210094142741508  0.6901210904682754  0.0447298118557693  1.0000
  C   C123      1.0  0.6986671512950225  0.7178821618512259  0.0451258721760841  1.0000
  C   C124      1.0  0.6626579831489932  0.726113663763603  0.023789158328680227  1.0000
  C   C125      1.0  0.647474247089044  0.7061598191798653  0.0026515494907803916  1.0000
  C   C126      1.0  0.6685723096134992  0.6779601037583921  0.0028633925662688853  1.0000
  H   H81       1.0  0.7498210957411057  0.6841478880069086  0.06086621846712559  1.0000
  H   H82       1.0  0.7102464827075865  0.7331184477416358  0.061651762556712564  1.0000
  H   H83       1.0  0.619179307098735  0.7122824185641037  0.9863517739982652  1.0000
  H   H84       1.0  0.6569673316969722  0.6625140546165611  0.9865341976908789  1.0000
  C   C127      1.0  0.07165216246527084  0.71072905584319  0.7405757216498587  1.0000
  C   C128      1.0  0.043036738953220244  0.7032599721310581  0.715906485960607  1.0000
  C   C129      1.0  0.05295018924445616  0.7169320759532155  0.6891825619140551  1.0000
  C   C130      1.0  0.09064899205580934  0.7385490955797535  0.6872348999023652  1.0000
  C   C131      1.0  0.12004444554827343  0.7456226106303794  0.711767515326699  1.0000
  C   C132      1.0  0.11063892426638722  0.7316705715867783  0.7384187358319663  1.0000
  H   H85       1.0  0.013311854999799921  0.6868253629952952  0.7174692089902801  1.0000
  H   H86       1.0  0.03173288715769673  0.7105331324125507  0.6700390343855456  1.0000
  H   H87       1.0  0.14890224560763254  0.76254755440894  0.7103924034838074  1.0000
  H   H88       1.0  0.13181114795562054  0.7381553086848438  0.7575957940726193  1.0000
  C   C133      1.0  0.32378196629955824  0.7533183852968058  0.7906737574937528  1.0000
  C   C134      1.0  0.34223361098887445  0.725053213145772  0.7862908033162788  1.0000
  C   C135      1.0  0.38325056301880833  0.7199392990405795  0.7669422862288761  1.0000
  C   C136      1.0  0.40532218406050574  0.7429853072824897  0.7514744493874786  1.0000
  C   C137      1.0  0.385612178460322  0.7711359233921421  0.7550441992774864  1.0000
  C   C138      1.0  0.3452806188272691  0.7763551117835964  0.7749111486522999  1.0000
  H   H89       1.0  0.3257550697140536  0.707110546770494  0.7982657021086136  1.0000
  H   H90       1.0  0.39832416997584785  0.6981175108975448  0.7642554130989643  1.0000
  H   H91       1.0  0.4010548196093799  0.7888819194569423  0.7423530775686255  1.0000
  H   H92       1.0  0.3304423594392135  0.7981901329725782  0.7778374012375572  1.0000
  C   C139      1.0  0.10352439778226596  0.6628835825190837  0.9157318702357055  1.0000
  C   C140      1.0  0.06485405733072236  0.6654759521243507  0.8944788579524829  1.0000
  C   C141      1.0  0.01229511249343096  0.663883397453026  0.9023783927270139  1.0000
  C   C142      1.0  0.9982125651577982  0.6599954302864844  0.931555544461155  1.0000
  C   C143      1.0  0.03690946689415786  0.6577748532001615  0.952914198499278  1.0000
  C   C144      1.0  0.08958310778230527  0.6591544277396498  0.9449690136338557  1.0000
  H   H93       1.0  0.07535041337016478  0.6683632730557909  0.8718734653084818  1.0000
  H   H94       1.0  0.9825187863889937  0.6655579029086863  0.8857994033383498  1.0000
  H   H95       1.0  0.02626160861024429  0.6544993646802174  0.9753862966046221  1.0000
  H   H96       1.0  0.11957483416112402  0.6570759111134512  0.9613371266634553  1.0000
  C   C145      1.0  0.2105642224832045  0.6075006697769483  0.6857010985916057  1.0000
  C   C146      1.0  0.1824043713100238  0.6242803248872879  0.7056005908275962  1.0000
  C   C147      1.0  0.20274625944546726  0.6295230284954489  0.7334054230327058  1.0000
  C   C148      1.0  0.251748948213839  0.618491783846178  0.7411188098829783  1.0000
  C   C149      1.0  0.2802806676017869  0.602244466341155  0.720957517276625  1.0000
  C   C150      1.0  0.2594437340152682  0.5964253536886013  0.693450011377478  1.0000
  H   H97       1.0  0.14444438003446136  0.6328033065744745  0.699748558545171  1.0000
  H   H98       1.0  0.18003510727495417  0.641704610779044  0.7489643878735919  1.0000
  H   H99       1.0  0.31857223303571086  0.5940647402324376  0.726541655604807  1.0000
  H   H100      1.0  0.2815393624333145  0.58360304656127  0.678122365640828  1.0000
  C   C151      1.0  0.0001780318942645746  0.46096015609337565  0.5588070917202058  1.0000
  C   C152      1.0  0.009451917543264354  0.43732935047708454  0.577377130983417  1.0000
  C   C153      1.0  0.050258682563673496  0.438137990793141  0.5975107001352719  1.0000
  C   C154      1.0  0.08272009799102031  0.46231494089978753  0.5987826111994242  1.0000
  C   C155      1.0  0.0740475093394719  0.48582292970671775  0.5798667947792354  1.0000
  C   C156      1.0  0.032329629851256536  0.4853139249090913  0.5601064931468113  1.0000
  H   H101      1.0  0.9848750054404892  0.41841835885970574  0.576393474634881  1.0000
  H   H102      1.0  0.05657912865801795  0.41993118946199115  0.612093469567572  1.0000
  H   H103      1.0  0.09886815660054138  0.504488381510872  0.5807432431331591  1.0000
  H   H104      1.0  0.024993668789002  0.5036414767718417  0.545862393410978  1.0000
  C   C157      1.0  0.3327673128544654  0.5015289330395535  0.5262580377749492  1.0000
  C   C158      1.0  0.37973860294041234  0.502436573328552  0.5108796060198989  1.0000
  C   C159      1.0  0.40626367778222255  0.4765653899730736  0.5041569898421665  1.0000
  C   C160      1.0  0.38535279112416837  0.4497835298670599  0.5123904418838465  1.0000
  C   C161      1.0  0.3372791959163852  0.4489387843451789  0.5266210423974608  1.0000
  C   C162      1.0  0.3112165998225334  0.4747459334902731  0.5337188394834895  1.0000
  H   H105      1.0  0.39630211558426337  0.5231353575097757  0.5048256695164656  1.0000
  H   H106      1.0  0.4426621398275401  0.4773484029645589  0.4924992231524063  1.0000
  H   H107      1.0  0.32060484164525804  0.4282441795913872  0.5326070623043787  1.0000
  H   H108      1.0  0.27416861935148257  0.4738460356028927  0.5447320104765558  1.0000
  C   C163      1.0  0.001011789290213061  0.5223965678870607  0.05648306144017723  1.0000
  C   C164      1.0  0.9993012623746496  0.5446245801571007  0.03558200243208298  1.0000
  C   C165      1.0  0.9932111162658286  0.5735986997155992  0.04415785807510586  1.0000
  C   C166      1.0  0.9902413515378076  0.5804096252052933  0.07369360943666359  1.0000
  C   C167      1.0  0.994401442280226  0.5583430321573049  0.09467426243606658  1.0000
  C   C168      1.0  0.9991015031229573  0.5293168485960943  0.08605715820854276  1.0000
  H   H109      1.0  0.0010826324158272893  0.539331471816315  0.012693713839309284  1.0000
  H   H110      1.0  0.9905818420542543  0.590591205984921  0.027856293921496134  1.0000
  H   H111      1.0  0.9921089962180648  0.5634927789979052  0.1175402356023374  1.0000
  H   H112      1.0  0.0008312836556851888  0.5123050483781176  0.10228407317555788  1.0000
  C   C169      1.0  0.9649713252933899  0.4700538637335483  0.1964353287891841  1.0000
  C   C170      1.0  0.9276509783251792  0.48976093656261316  0.18598603109026032  1.0000
  C   C171      1.0  0.9256235401989397  0.5181069109659062  0.1968127565661038  1.0000
  C   C172      1.0  0.9607187302324178  0.5266054703521622  0.21829169864461223  1.0000
  C   C173      1.0  0.9956838624202915  0.5063356470236926  0.23002721349087563  1.0000
  C   C174      1.0  0.9975640049949758  0.4780265314641288  0.2192916458639104  1.0000
  H   H113      1.0  0.8999906989676811  0.4831371576434885  0.16981226186733117  1.0000
  H   H114      1.0  0.8974076880090156  0.5334813195176816  0.188236117179496  1.0000
  H   H115      1.0  0.02118361817726222  0.5123035937963603  0.24749029664587396  1.0000
  H   H116      1.0  0.025327247754528104  0.46256543391124466  0.22818415634552766  1.0000
  C   C175      1.0  0.7471685662185038  0.473647144374309  0.13447119480276848  1.0000
  C   C176      1.0  0.7798289526316626  0.46686727605888273  0.1579586359644664  1.0000
  C   C177      1.0  0.7621259618117414  0.4706879848390473  0.18658131282537932  1.0000
  C   C178      1.0  0.7117271070664646  0.4812049090200982  0.1917524144150027  1.0000
  C   C179      1.0  0.6801704435889928  0.4891871957227611  0.16820913248860384  1.0000
  C   C180      1.0  0.6978643730230509  0.4854916440577632  0.1396354281967656  1.0000
  H   H117      1.0  0.8181057647903162  0.45785462253452963  0.1541509761795578  1.0000
  H   H118      1.0  0.786701621538163  0.46432957242158107  0.20463295351409128  1.0000
  H   H119      1.0  0.6422144159488795  0.49842931880638036  0.1719322901865362  1.0000
  H   H120      1.0  0.6727805952995372  0.491248837792395  0.12154593301548111  1.0000
  C   C181      1.0  0.2662720817682071  0.19898721795512567  0.02537953301695528  1.0000
  C   C182      1.0  0.2867329419845024  0.19300028303834277  0.05302674850406364  1.0000
  C   C183      1.0  0.321227632023746  0.21248910939410945  0.06601156842545386  1.0000
  C   C184      1.0  0.3360570628434097  0.23762051025103023  0.05104255592898799  1.0000
  C   C185      1.0  0.3167907599561635  0.24316127900873435  0.023082358826065352  1.0000
  C   C186      1.0  0.28167225941314705  0.22396044153889905  0.010345926735240818  1.0000
  H   H121      1.0  0.2748100018440169  0.17368372970687596  0.06470522779823695  1.0000
  H   H122      1.0  0.33570963269177545  0.2082008807503122  0.08772033166201676  1.0000
  H   H123      1.0  0.3286997257306647  0.26242336376080433  0.011313936192426377  1.0000
  H   H124      1.0  0.2670741536962506  0.22827760192716512  0.9887120444101336  1.0000
  C   C187      1.0  0.05827761309566171  0.319509623685039  0.01934808792839271  1.0000
  C   C188      1.0  0.018777686747325273  0.2998811798480063  0.02607127340261961  1.0000
  C   C189      1.0  0.974395629714146  0.30935596153821143  0.04109975068975924  1.0000
  C   C190      1.0  0.9692951842004457  0.3384625063515982  0.04931942269301848  1.0000
  C   C191      1.0  0.00862710117141563  0.35812142022527305  0.042308655137999196  1.0000
  C   C192      1.0  0.05321604476093533  0.34861650135016725  0.02746286371484663  1.0000
  H   H125      1.0  0.022534275487047006  0.2773466910433125  0.019965130576408585  1.0000
  H   H126      1.0  0.9441823898039624  0.29409980562430216  0.04664205451278458  1.0000
  H   H127      1.0  0.004547826694615731  0.380688550519509  0.04814286853108429  1.0000
  H   H128      1.0  0.0835786798268825  0.36389502652927375  0.022181257248763186  1.0000
  C   C193      1.0  0.07886495230806445  0.3288863511287968  0.7178100753644792  1.0000
  C   C194      1.0  0.02958055146890115  0.3341852771460119  0.7059966071554412  1.0000
  C   C195      1.0  0.018340513323457763  0.3254418925723873  0.6775825379927555  1.0000
  C   C196      1.0  0.05583834572292945  0.31064548395724756  0.6613183309065812  1.0000
  C   C197      1.0  0.10546668988566399  0.3058193083425125  0.672964922479975  1.0000
  C   C198      1.0  0.11715931462650397  0.31519861844279373  0.7011126435655806  1.0000
  H   H129      1.0  0.0001528967188211272  0.34514333998319136  0.7187745619697242  1.0000
  H   H130      1.0  0.9807162072422467  0.33025596576608035  0.668269040908022  1.0000
  H   H131      1.0  0.13451674341321995  0.29426648264152966  0.6604316180308138  1.0000
  H   H132      1.0  0.15525596562967836  0.31098576519282145  0.710189733636535  1.0000
  C   C199      1.0  0.24313554706445406  0.2762364323759161  0.8468492819647914  1.0000
  C   C200      1.0  0.1955120153109168  0.2768663255491578  0.8321413484363763  1.0000
  C   C201      1.0  0.15312144648568465  0.2613330760372354  0.8430995985697352  1.0000
  C   C202      1.0  0.1578026072908425  0.24576578553118913  0.8692102873229478  1.0000
  C   C203      1.0  0.20572341689847118  0.24457916848528757  0.8836123297476312  1.0000
  C   C204      1.0  0.24846621015646342  0.2597243839657353  0.8723615231783531  1.0000
  H   H133      1.0  0.1909454425758318  0.2896385490889493  0.8125288149795509  1.0000
  H   H134      1.0  0.1161667720953925  0.2622096232919278  0.8318449287099041  1.0000
  H   H135      1.0  0.20997531710048922  0.23188680671083892  0.9033161670195355  1.0000
  H   H136      1.0  0.2853982340577139  0.2589743463681096  0.883651307378405  1.0000
  C   C205      1.0  0.3058891984265858  0.4479597061056702  0.75030884005717  1.0000
  C   C206      1.0  0.3541803966826906  0.46170810300745385  0.7513984881417406  1.0000
  C   C207      1.0  0.37389185482987847  0.47569576493045557  0.7266118355474694  1.0000
  C   C208      1.0  0.3446708635517141  0.4766735470141054  0.7009366525704656  1.0000
  C   C209      1.0  0.29647392627305286  0.46277696347420505  0.6997538325287556  1.0000
  C   C210      1.0  0.27730650304791565  0.44818343323796916  0.7243742948659952  1.0000
  H   H137      1.0  0.3763668309166584  0.46150816428984126  0.7714089915618273  1.0000
  H   H138      1.0  0.41111332273839135  0.48644427921593586  0.7275785495322674  1.0000
  H   H139      1.0  0.2738791184604817  0.4633375777802242  0.6799112345762478  1.0000
  H   H140      1.0  0.2396947733631854  0.43787917267638643  0.7235647248101099  1.0000
  C   C211      1.0  0.6210088903443322  0.22380934599310096  0.023927968609012806  1.0000
  C   C212      1.0  0.5949630363875955  0.24388333123482042  0.041411441402102955  1.0000
  C   C213      1.0  0.5871528901465521  0.2378395774991255  0.0709768070389929  1.0000
  C   C214      1.0  0.6069433650380468  0.21219655291128117  0.08328043416694442  1.0000
  C   C215      1.0  0.6350741653586497  0.19273587241209947  0.06609309129416707  1.0000
  C   C216      1.0  0.6415249907785553  0.19836359255510924  0.03634867243077955  1.0000
  H   H141      1.0  0.5792282210981232  0.2636506753948144  0.031923803986276145  1.0000
  H   H142      1.0  0.5660274110139525  0.2531296481438689  0.08424095843505008  1.0000
  H   H143      1.0  0.6500784065232549  0.1727569035145358  0.07548662756727009  1.0000
  H   H144      1.0  0.6609451607678988  0.18250380601343627  0.023016886736956677  1.0000
  C   C217      1.0  0.8532928708827535  0.16847021953001168  0.9281027806823029  1.0000
  C   C218      1.0  0.8979786453028793  0.1846499416676588  0.9222633077344289  1.0000
  C   C219      1.0  0.9352416244381713  0.18872324276365218  0.9441929152050172  1.0000
  C   C220      1.0  0.9271271436534861  0.17707051236354884  0.9720138891593346  1.0000
  C   C221      1.0  0.8832668870972558  0.16017051085148948  0.977458217476134  1.0000
  C   C222      1.0  0.8471609584630426  0.15535885915369388  0.9553291214638021  1.0000
  H   H145      1.0  0.9032068047977473  0.19459435237008268  0.9010853197905253  1.0000
  H   H146      1.0  0.9694575868334018  0.20145690966340365  0.9397033754327739  1.0000
  H   H147      1.0  0.8768881806858585  0.15085190316029712  0.9988161313370775  1.0000
  H   H148      1.0  0.8144483103078637  0.14145204263027975  0.9593235798647756  1.0000
  C   C223      1.0  0.6916749241193632  0.1873508742904577  0.6614032527724502  1.0000
  C   C224      1.0  0.7360566225924268  0.1864117020254441  0.6438818521388174  1.0000
  C   C225      1.0  0.7831525535745265  0.1974524277478387  0.654110331395308  1.0000
  C   C226      1.0  0.7861466676628921  0.20932877944588998  0.6819529596983381  1.0000
  C   C227      1.0  0.742355590602099  0.20915174999832697  0.7000356066397543  1.0000
  C   C228      1.0  0.6949708343014689  0.1982801173067514  0.6896952525116072  1.0000
  H   H149      1.0  0.7337282354492253  0.17788436645196612  0.6220384514338493  1.0000
  H   H150      1.0  0.8170864325039006  0.1971478127249091  0.6402076104094212  1.0000
  H   H151      1.0  0.7444535771139779  0.2185834699592923  0.721475078597951  1.0000
  H   H152      1.0  0.6606619036556935  0.19933751425344262  0.7032215586783084  1.0000
  C   C229      1.0  0.3613099374287018  0.2313633462272526  0.6793166510362474  1.0000
  C   C230      1.0  0.3132332557322961  0.24090071689266307  0.690020716571141  1.0000
  C   C231      1.0  0.30386270479534044  0.27060206132345194  0.6942117349330904  1.0000
  C   C232      1.0  0.3421861220080477  0.2908012798421171  0.6871148436288416  1.0000
  C   C233      1.0  0.3896501595860817  0.2813257881874734  0.6755253007016963  1.0000
  C   C234      1.0  0.3994564028699004  0.2515774533357881  0.671915154595809  1.0000
  H   H153      1.0  0.2835104481387262  0.22529029577857085  0.6954743402951796  1.0000
  H   H154      1.0  0.2666646002148255  0.2778680223733393  0.7024125728155614  1.0000
  H   H155      1.0  0.41912670762211307  0.2969791428310405  0.6697645351179101  1.0000
  H   H156      1.0  0.4363164316085624  0.24429081099205452  0.6632107098200243  1.0000
  C   C235      1.0  0.543958746194206  0.19247854074806023  0.8106274517371813  1.0000
  C   C236      1.0  0.5333728258967338  0.16299940669937485  0.8070007496497266  1.0000
  C   C237      1.0  0.534741778865208  0.14409638213483936  0.8309627807285611  1.0000
  C   C238      1.0  0.5472297078576809  0.15456670238320674  0.8585324972341866  1.0000
  C   C239      1.0  0.5562752052020311  0.1842017733753173  0.8623465083904748  1.0000
  C   C240      1.0  0.5544876437845325  0.20319771664780814  0.8383824351185307  1.0000
  H   H157      1.0  0.5257856650770206  0.15443470534546877  0.7856491210442231  1.0000
  H   H158      1.0  0.5277384241718746  0.12116617977889722  0.8279545555404729  1.0000
  H   H159      1.0  0.5643859016471715  0.19250646768167548  0.8837615480024518  1.0000
  H   H160      1.0  0.5622744491157577  0.22604259229970988  0.8412856590117349  1.0000
  C   C241      1.0  0.39145474842697797  0.9045174237129605  0.6057302292545518  1.0000
  C   C242      1.0  0.41802660458642016  0.8782809524633342  0.6103764959413757  1.0000
  C   C243      1.0  0.43048005931120625  0.8692579378650528  0.6387892533008392  1.0000
  C   C244      1.0  0.415637004938074  0.8862744409401628  0.6625216244815243  1.0000
  C   C245      1.0  0.3869412211030952  0.9117952072741866  0.6578500255138654  1.0000
  C   C246      1.0  0.37508100627070073  0.9209464308328914  0.6295010342962575  1.0000
  H   H161      1.0  0.43069541225475266  0.8654765208619356  0.5920135567861042  1.0000
  H   H162      1.0  0.4527095630966957  0.8495705438398733  0.6421865646296275  1.0000
  H   H163      1.0  0.37506942333488213  0.9248776067215497  0.6761768596184641  1.0000
  H   H164      1.0  0.3533709481113767  0.9407634040294577  0.6260497002103979  1.0000
  C   C247      1.0  0.5182027244125086  0.06458305782758789  0.6938000624228812  1.0000
  C   C248      1.0  0.49242768585908775  0.039357274656856456  0.6854972199922796  1.0000
  C   C249      1.0  0.5022554323614548  0.027207596673376022  0.6581955626787693  1.0000
  C   C250      1.0  0.5390855380458398  0.039651806522593924  0.6396399469692833  1.0000
  C   C251      1.0  0.5672541214014271  0.06376887145840815  0.6487828003161112  1.0000
  C   C252      1.0  0.5561012420801279  0.07656753650707615  0.675631292822669  1.0000
  H   H165      1.0  0.46359403219864265  0.029852543369353723  0.6997015857340453  1.0000
  H   H166      1.0  0.4814072011014462  0.008196022998643082  0.6515844793945083  1.0000
  H   H167      1.0  0.5964681122172811  0.07322951479511364  0.6348423249021171  1.0000
  H   H168      1.0  0.5766053956430629  0.09588495398029062  0.6821638716741273  1.0000
  C   C253      1.0  0.47150240922977843  0.03574501734261104  0.4716926642694528  1.0000
  C   C254      1.0  0.4884584322192549  0.06021126349698536  0.45633307041698984  1.0000
  C   C255      1.0  0.5408724379599581  0.06259731871642482  0.44835131475571655  1.0000
  C   C256      1.0  0.5760638827314284  0.04026305645754191  0.4551459030294138  1.0000
  C   C257      1.0  0.5584621725458987  0.01522363818463468  0.46924767788941324  1.0000
  C   C258      1.0  0.5063298686088537  0.013043680275354852  0.47768383073486725  1.0000
  H   H169      1.0  0.461476639743615  0.07776766130278845  0.45158212175621604  1.0000
  H   H170      1.0  0.5538043741665124  0.08176366660870871  0.4371506870525783  1.0000
  H   H171      1.0  0.585436638500496  0.9977152795446316  0.4742176074676884  1.0000
  H   H172      1.0  0.4932004804013874  0.993697697140514  0.4886877482243953  1.0000
  C   C259      1.0  0.23584442716270285  0.05194712282246883  0.5935686823020672  1.0000
  C   C260      1.0  0.188487000199936  0.059014967988693545  0.6068203216330166  1.0000
  C   C261      1.0  0.1436329912621453  0.06305767357511383  0.589826379892345  1.0000
  C   C262      1.0  0.1459952162129303  0.059526693352064175  0.5596482711755626  1.0000
  C   C263      1.0  0.19362694218427004  0.053233396297960756  0.546364615641172  1.0000
  C   C264      1.0  0.2386726247381055  0.04991645684494772  0.5632806598589274  1.0000
  H   H173      1.0  0.18618922968053286  0.06081545077172357  0.6302282142540743  1.0000
  H   H174      1.0  0.10681759795422807  0.06797987701557529  0.6001208712084758  1.0000
  H   H175      1.0  0.19584136380901873  0.05127324927658505  0.5229619112883581  1.0000
  H   H176      1.0  0.27546900043861694  0.04582204245231236  0.5527868338534863  1.0000
  C   C265      1.0  0.709655329886009  0.8798541578036497  0.9563930850730342  1.0000
  C   C266      1.0  0.7164478953998082  0.8949848073926362  0.9823125574612667  1.0000
  C   C267      1.0  0.7662088043220898  0.8980488636643309  0.9941450967784368  1.0000
  C   C268      1.0  0.8095603164145353  0.8863735982781527  0.9799122017976335  1.0000
  C   C269      1.0  0.8027246783865919  0.8706426603624842  0.9542527575913988  1.0000
  C   C270      1.0  0.7526548742900796  0.8672936015549351  0.9425133766083018  1.0000
  H   H177      1.0  0.6830539617041755  0.9040364405648743  0.9934474585960803  1.0000
  H   H178      1.0  0.7706838412347049  0.9091782127056226  0.014517016348474243  1.0000
  H   H179      1.0  0.83611733381532  0.8614744734473628  0.9432304894619489  1.0000
  H   H180      1.0  0.7473676116721233  0.8555548193293028  0.9224295713016023  1.0000
  C   C271      1.0  0.8328048026389976  0.049411975920617746  0.023108546285977027  1.0000
  C   C272      1.0  0.8268694836760807  0.07162651543664733  0.0023419398690271986  1.0000
  C   C273      1.0  0.7776677995222473  0.08421963195949167  0.9973687969975988  1.0000
  C   C274      1.0  0.7346043387733816  0.07480899475570446  0.013339975608342103  1.0000
  C   C275      1.0  0.7405531631161455  0.052648782600225985  0.03399089005728939  1.0000
  C   C276      1.0  0.7894159400293426  0.039907907193573955  0.038738281035378686  1.0000
  H   H181      1.0  0.8597728215806216  0.07864899067826592  0.989592444481239  1.0000
  H   H182      1.0  0.7728779144017793  0.10099022081312592  0.9810409364182874  1.0000
  H   H183      1.0  0.7073120907654686  0.04526494513172907  0.04636426758734302  1.0000
  H   H184      1.0  0.7933289528833246  0.022860210717520424  0.05476746833531232  1.0000
  C   C277      1.0  0.6853878287534905  0.9515571636515802  0.11144375141790674  1.0000
  C   C278      1.0  0.6428847207186866  0.9650642069610739  0.12476495786440613  1.0000
  C   C279      1.0  0.6353924420196263  0.9620626537285899  0.154793272828921  1.0000
  C   C280      1.0  0.6696540849008816  0.9449642557551844  0.1713609943531568  1.0000
  C   C281      1.0  0.7104908253927197  0.9301488832831452  0.15776326970675508  1.0000
  C   C282      1.0  0.7190552801835639  0.9339611343519509  0.1278906473696269  1.0000
  H   H185      1.0  0.6167930932596929  0.9786644341210327  0.11206665503216902  1.0000
  H   H186      1.0  0.6034748393563513  0.9733411473101719  0.16513666769964164  1.0000
  H   H187      1.0  0.7365977206423073  0.9165961095541915  0.17047117066485873  1.0000
  H   H188      1.0  0.7516702721616839  0.9232789491363246  0.11763031387944119  1.0000
  C   C283      1.0  0.9546267874324929  0.9459253801025572  0.15303097234138352  1.0000
  C   C284      1.0  0.9750218627162038  0.9369592043527225  0.179840933234327  1.0000
  C   C285      1.0  0.9963389728934259  0.9573273993153404  0.19879154628582618  1.0000
  C   C286      1.0  0.9975354961362742  0.9866617452544489  0.19089480504524128  1.0000
  C   C287      1.0  0.9765431276823917  0.9957167446469445  0.16421028461746007  1.0000
  C   C288      1.0  0.9552181707579772  0.9753113757362151  0.14518963581220648  1.0000
  H   H189      1.0  0.9742336393821066  0.9142523340384058  0.18599716522973977  1.0000
  H   H190      1.0  0.011194969641787234  0.9503698240084314  0.2197038419638626  1.0000
  H   H191      1.0  0.9778314928847502  0.01840035021048103  0.15801868644746286  1.0000
  H   H192      1.0  0.9400455635359966  0.9822714943433306  0.12433874809581766  1.0000
  N   N1        1.0  0.6168901648096717  0.12981938996049358  0.1691112512657964  1.0000
  C   C289      1.0  0.6624288230341401  0.1491037252578984  0.17095805847174939  1.0000
  C   C290      1.0  0.6090675491808275  0.12084226221473693  0.1386081890823596  1.0000
  C   C291      1.0  0.5700578003350454  0.1454057352484699  0.1794686703081496  1.0000
  C   C292      1.0  0.625950170811704  0.1038600436163124  0.1874976083778166  1.0000
  H   H193      1.0  0.6695110134833321  0.15612099686525616  0.19374014676617013  1.0000
  H   H194      1.0  0.6567878800549888  0.16904125803378656  0.15746236736678076  1.0000
  H   H195      1.0  0.6983798743039755  0.1380600207923508  0.16316630212394823  1.0000
  H   H196      1.0  0.57548903216926  0.10587148710146299  0.13658392057734225  1.0000
  H   H197      1.0  0.6012638367610466  0.13989343070425098  0.12415715514944758  1.0000
  H   H198      1.0  0.6438045245292534  0.10925643491874948  0.12994262890119712  1.0000
  H   H199      1.0  0.5351240954521489  0.13135978299949036  0.17872276698779732  1.0000
  H   H200      1.0  0.5615742079099607  0.1648615128168267  0.16574978690915865  1.0000
  H   H201      1.0  0.5748000527313243  0.15282680254614567  0.20228353148561729  1.0000
  H   H202      1.0  0.592402354313315  0.08881440436517951  0.18643128209826343  1.0000
  H   H203      1.0  0.6317926655299662  0.10975316635844123  0.21070147788168447  1.0000
  H   H204      1.0  0.6611245013434995  0.09157535401595673  0.18047292323669462  1.0000
  N   N2        1.0  0.20835405544728358  0.7508071328028106  0.9246366121611556  1.0000
  C   C293      1.0  0.2371699942365826  0.7451957602208827  0.8973963595677563  1.0000
  C   C294      1.0  0.21775074883674  0.7808891374618044  0.9341969103075559  1.0000
  C   C295      1.0  0.2263941711990117  0.7302963311282625  0.947438783478163  1.0000
  C   C296      1.0  0.1520680061638716  0.7467861173005076  0.9195687370849066  1.0000
  H   H205      1.0  0.22404267821971038  0.7598711424665806  0.879424740422294  1.0000
  H   H206      1.0  0.23150327060634723  0.7224699998956264  0.8899921245822765  1.0000
  H   H207      1.0  0.27971650549142135  0.7484659174684605  0.9002253407976895  1.0000
  H   H208      1.0  0.19659695514007336  0.7857082557988444  0.954793216442355  1.0000
  H   H209      1.0  0.25981944662006184  0.784757360738166  0.9382278595014355  1.0000
  H   H210      1.0  0.204489121992131  0.7969473511984135  0.9175311966708717  1.0000
  H   H211      1.0  0.20544910246298737  0.7338881657433625  0.9682829899983505  1.0000
  H   H212      1.0  0.2686983829987464  0.7326803953497892  0.9517731164707536  1.0000
  H   H213      1.0  0.21956515821797726  0.7073890528817953  0.9409950611712002  1.0000
  H   H214      1.0  0.1291334013137365  0.7506390577809529  0.9397296483900109  1.0000
  H   H215      1.0  0.1434885879649407  0.7243299779981403  0.9123553485743319  1.0000
  H   H216      1.0  0.1370868202798626  0.7618703743352088  0.9024696254738397  1.0000
  N   N3        1.0  0.3246395436219949  0.9603932507278923  0.46298065326254584  1.0000
  C   C297      1.0  0.3813604667540291  0.96388872920834  0.45934576459484866  1.0000
  C   C298      1.0  0.3018470218502869  0.9493161551174314  0.43573638638837847  1.0000
  C   C299      1.0  0.3007852406462155  0.9888159885420125  0.46981522804514375  1.0000
  C   C300      1.0  0.3144102532128501  0.9396507333620542  0.48697351662735416  1.0000
  H   H217      1.0  0.3998059541376362  0.9714993807190223  0.4798136366717697  1.0000
  H   H218      1.0  0.3903395248269239  0.9803414712871668  0.4422234472136516  1.0000
  H   H219      1.0  0.4006354468530149  0.9431110795752214  0.45327260273819575  1.0000
  H   H220      1.0  0.2591741775229335  0.9460156529037675  0.4380097019839154  1.0000
  H   H221      1.0  0.30730138152830366  0.9649428880924239  0.4173840207492363  1.0000
  H   H222      1.0  0.3195875156291632  0.9282219335884169  0.42935698859313526  1.0000
  H   H223      1.0  0.25821395844331874  0.9869843112019601  0.47327234936761015  1.0000
  H   H224      1.0  0.3067078354949353  0.0048597069698785855  0.45188076566100915  1.0000
  H   H225      1.0  0.3177389203919496  0.9983767770454746  0.48969264363485476  1.0000
  H   H226      1.0  0.27188979965213056  0.9369728915004407  0.4906843979706592  1.0000
  H   H227      1.0  0.33193271607366626  0.9470213604088347  0.507772113354603  1.0000
  H   H228      1.0  0.33116965301500545  0.9178343268242206  0.4823033476218635  1.0000
  N   N4        1.0  0.2560764945206379  0.5323324037857162  0.7798238497513166  1.0000
  C   C301      1.0  0.25188619161371306  0.5237267708536082  0.7489931688183017  1.0000
  C   C302      1.0  0.3062067487434116  0.5470797409601237  0.7845198123767296  1.0000
  C   C303      1.0  0.2538372587344539  0.5062897900424328  0.7987188580090566  1.0000
  C   C304      1.0  0.21261443825572826  0.5521735751968704  0.7870891190800032  1.0000
  H   H229      1.0  0.21590516354441402  0.5111479566165502  0.7448227906814265  1.0000
  H   H230      1.0  0.28536455298701696  0.5099504138303783  0.7424220457695931  1.0000
  H   H231      1.0  0.25146449392081394  0.5429552628544556  0.7341934293214933  1.0000
  H   H232      1.0  0.310263296846299  0.5661964498559098  0.7699429915922316  1.0000
  H   H233      1.0  0.30994360239566454  0.5550008725153414  0.8072320507084992  1.0000
  H   H234      1.0  0.33976567301262517  0.5323743395816587  0.7799788764342978  1.0000
  H   H235      1.0  0.2537535812537908  0.5121310482834829  0.8221509030254173  1.0000
  H   H236      1.0  0.2880369291776946  0.4918374464997226  0.7951374983934766  1.0000
  H   H237      1.0  0.21855244873771432  0.4931437357892992  0.7943544908881005  1.0000
  H   H238      1.0  0.21566201972075472  0.5602044656562779  0.8098063951623204  1.0000
  H   H239      1.0  0.17437156470538076  0.5413237016886066  0.7846691789912827  1.0000
  H   H240      1.0  0.21221756127945166  0.5716314766615248  0.7726349962961299  1.0000
  N   N5        1.0  0.37099922233223886  0.21812096184960347  0.25205691765093663  1.0000
  C   C305      1.0  0.34338793173635346  0.2297023126540727  0.2262194792372391  1.0000
  C   C306      1.0  0.42507861235393285  0.2105563847874127  0.24415025214310268  1.0000
  C   C307      1.0  0.3442340791999068  0.19181506063360615  0.26269524520695836  1.0000
  C   C308      1.0  0.3714597185136856  0.24044843907075045  0.27498931469441673  1.0000
  H   H241      1.0  0.30246686489264013  0.23568998078082257  0.23136977241773016  1.0000
  H   H242      1.0  0.34238972286306046  0.21346655372887544  0.20843028513841003  1.0000
  H   H243      1.0  0.3626964100561548  0.2494751261497193  0.21748885414728086  1.0000
  H   H244      1.0  0.447269003408886  0.20199480533972064  0.26317899857134514  1.0000
  H   H245      1.0  0.42616012939071585  0.19360138051360568  0.22701080653960581  1.0000
  H   H246      1.0  0.446266159487982  0.22987971575519345  0.23570983383368435  1.0000
  H   H247      1.0  0.364138882128511  0.18231527586654683  0.28208808699998805  1.0000
  H   H248      1.0  0.343356641842744  0.17470312083389747  0.2456170213310551  1.0000
  H   H249      1.0  0.30323013967814233  0.19662531892776808  0.26883952764779684  1.0000
  H   H250      1.0  0.33130955063478335  0.24681468897975273  0.28148816245866354  1.0000
  H   H251      1.0  0.39152809181713205  0.26050569287422387  0.26731180588912457  1.0000
  H   H252      1.0  0.3922236371238004  0.23257203634458903  0.29481230229592514  1.0000
  N   N6        1.0  0.36272619668192646  0.49842255783665  0.30771853912342634  1.0000
  C   C309      1.0  0.32088482026231924  0.520470894175622  0.3049274452474066  1.0000
  C   C310      1.0  0.41288457031452325  0.5114907298374405  0.2993568328205963  1.0000
  C   C311      1.0  0.35135854394714955  0.47379730939642106  0.2883455750422286  1.0000
  C   C312      1.0  0.3659519492658469  0.48790361961975554  0.3381225910714903  1.0000
  H   H253      1.0  0.31772294918570465  0.5287011647076005  0.2821462727922584  1.0000
  H   H254      1.0  0.32819323645455856  0.5395342952413928  0.3190414069442886  1.0000
  H   H255      1.0  0.2823061207010722  0.51143159218303  0.3109305454966482  1.0000
  H   H256      1.0  0.4455425608182  0.49566649906079663  0.3016074749636313  1.0000
  H   H257      1.0  0.41232309092381897  0.5189364348094325  0.2763548493253877  1.0000
  H   H258      1.0  0.4222763761801071  0.5306070082520021  0.31296313569183554  1.0000
  H   H259      1.0  0.38221851686073516  0.4567296652239744  0.28986417581309865  1.0000
  H   H260      1.0  0.34893815203859213  0.48096997670161934  0.26518751881962344  1.0000
  H   H261      1.0  0.31373466478079454  0.46343715694863086  0.2939716553358781  1.0000
  H   H262      1.0  0.3972936556844997  0.47118225048051815  0.34072467219316616  1.0000
  H   H263      1.0  0.32884705895725885  0.47783618028550634  0.3452324983177483  1.0000
  H   H264      1.0  0.37490362588736015  0.505875109015281  0.3533237593607876  1.0000
  N   N7        1.0  0.8427325665237002  0.5008792592400719  0.27876893742986475  1.0000
  C   C313      1.0  0.8548270400957078  0.4875639198687161  0.3073616733665971  1.0000
  C   C314      1.0  0.7860137316563914  0.5057699603326316  0.2761559068326997  1.0000
  C   C315      1.0  0.8602060462618673  0.48128155507136494  0.2553492136543646  1.0000
  C   C316      1.0  0.8699397706246572  0.5289168805468807  0.2761073624845571  1.0000
  H   H265      1.0  0.897384982210273  0.48349548571543893  0.30987709105443345  1.0000
  H   H266      1.0  0.8347435931195316  0.4664070171307929  0.3101963495564259  1.0000
  H   H267      1.0  0.8426409386344377  0.501915546059799  0.3255591108850056  1.0000
  H   H268      1.0  0.7756112563944163  0.5157010322363084  0.25471802894349277  1.0000
  H   H269      1.0  0.764120902379279  0.4850373315684065  0.27778309476763363  1.0000
  H   H270      1.0  0.7711284465454896  0.5204782351383935  0.29337166628337585  1.0000
  H   H271      1.0  0.8515954111390985  0.49074257034367924  0.2335200816716311  1.0000
  H   H272      1.0  0.840358670696699  0.45991984978631045  0.2565676528357453  1.0000
  H   H273      1.0  0.9028822900196974  0.4771528730095761  0.2564274130008825  1.0000
  H   H274      1.0  0.8619872909549062  0.5395448968686121  0.2547044557975657  1.0000
  H   H275      1.0  0.9129071522805167  0.5260644573890321  0.27789850673912253  1.0000
  H   H276      1.0  0.857805216588765  0.5443467478595815  0.2933705140613314  1.0000
  N   N8        1.0  0.7606351239906367  0.688607665505969  0.9194662766306295  1.0000
  C   C317      1.0  0.7530695929920481  0.6616456695503118  0.9365486994012707  1.0000
  C   C318      1.0  0.7371862187036969  0.6853016409582345  0.8903194321767471  1.0000
  C   C319      1.0  0.8168642789220105  0.6943076817769431  0.91625319076842  1.0000
  C   C320      1.0  0.7353808409732259  0.7131819042325962  0.9345937488693172  1.0000
  H   H277      1.0  0.7687309764003014  0.6636270785942074  0.9590060922667445  1.0000
  H   H278      1.0  0.773227672907645  0.6428246011673133  0.9263557625047089  1.0000
  H   H279      1.0  0.7111213249367281  0.6562585866138381  0.9386339606098658  1.0000
  H   H280      1.0  0.7430720374121443  0.7050850870741846  0.8766594928854227  1.0000
  H   H281      1.0  0.7545069426645847  0.6665923805997179  0.878499555382556  1.0000
  H   H282      1.0  0.6944098399782734  0.6819216693630218  0.8917204073480041  1.0000
  H   H283      1.0  0.837393762661215  0.676001354260444  0.9053232290491264  1.0000
  H   H284      1.0  0.8361039325216227  0.6971711229852025  0.9376718363511433  1.0000
  H   H285      1.0  0.8240273441757694  0.7143067563670441  0.9031924127527109  1.0000
  H   H286      1.0  0.6927354435749818  0.7097744921319078  0.936902634034168  1.0000
  H   H287      1.0  0.7404413038056092  0.7338944768993019  0.9222939055574272  1.0000
  H   H288      1.0  0.7516416353251596  0.71609302617253  0.9568302368456275  1.0000
  N   N9        1.0  0.12339745728379124  0.6646259229630727  0.047861771375308226  1.0000
  C   C321      1.0  0.18010382362903044  0.6606165188877126  0.04420392252864436  1.0000
  C   C322      1.0  0.09612436100906138  0.6387477658316114  0.03693505249139184  1.0000
  C   C323      1.0  0.10639446138285134  0.6906656387679042  0.03133297689395387  1.0000
  C   C324      1.0  0.11114318269416511  0.6685487309760322  0.07901781498136695  1.0000
  H   H289      1.0  0.20175080740411436  0.680114218450159  0.051470350260513165  1.0000
  H   H290      1.0  0.19049496135840877  0.6567925009054065  0.021042928937822447  1.0000
  H   H291      1.0  0.19497799838978938  0.6419416011008539  0.0573661045487317  1.0000
  H   H292      1.0  0.05335533363508493  0.6407755125906104  0.03985438376955708  1.0000
  H   H293      1.0  0.10357748207623228  0.635326061466566  0.013351327538074331  1.0000
  H   H294      1.0  0.10858798361668054  0.6187283497301894  0.04880960996374606  1.0000
  H   H295      1.0  0.1121442147096523  0.6880672598378396  0.007500794590874049  1.0000
  H   H296      1.0  0.12850899200924398  0.7101627277636416  0.038000404154466816  1.0000
  H   H297      1.0  0.06469389469700637  0.6958079738219899  0.03505048788659226  1.0000
  H   H298      1.0  0.06846597932344944  0.6707006331465489  0.08260813086198349  1.0000
  H   H299      1.0  0.12972956093924454  0.6883953317431802  0.0877550900586781  1.0000
  H   H300      1.0  0.125520934855446  0.6499151679711629  0.09239940075591702  1.0000
  N   N10       1.0  0.7257918282642507  0.5266908293347593  0.42815577830405105  1.0000
  C   C325      1.0  0.697971491847141  0.5533441595396826  0.4371490284531239  1.0000
  C   C326      1.0  0.7221820678423749  0.5045739593518456  0.4515225359131208  1.0000
  C   C327      1.0  0.7810717733526102  0.5334553354951164  0.42269768552558024  1.0000
  C   C328      1.0  0.7018230318684281  0.5154251973014488  0.4013171976775864  1.0000
  H   H301      1.0  0.6995153637917864  0.570416075825277  0.4199548736286335  1.0000
  H   H302      1.0  0.7153203288620184  0.5626015423731731  0.45718734694243596  1.0000
  H   H303      1.0  0.6563315585414247  0.5488963038404333  0.44195001112664306  1.0000
  H   H304      1.0  0.6809618976499195  0.4999591442607786  0.457276995181776  1.0000
  H   H305      1.0  0.7401824440478905  0.48359685918164924  0.44488130920474045  1.0000
  H   H306      1.0  0.7422300792727329  0.5117535644775985  0.4716245450190042  1.0000
  H   H307      1.0  0.8038763637667412  0.5136381439775829  0.41701285348058914  1.0000
  H   H308      1.0  0.7996101215308027  0.5431379049715749  0.4422259107149441  1.0000
  H   H309      1.0  0.7857184246228667  0.5493367077992  0.4045722246729936  1.0000
  H   H310      1.0  0.7055044364725895  0.5310154760650415  0.38288438629522237  1.0000
  H   H311      1.0  0.6595844632913863  0.5112230576111711  0.40449374119900366  1.0000
  H   H312      1.0  0.7199777626130749  0.4944592763102715  0.39471848222626343  1.0000
  N   N11       1.0  0.8115070187830361  0.5444036234037534  0.06271141715340112  1.0000
  C   C329      1.0  0.866728992930465  0.5529342367916104  0.061927992384070096  1.0000
  C   C330      1.0  0.8050746424738401  0.5170532208429609  0.046514806348513904  1.0000
  C   C331      1.0  0.7792209033759654  0.5675113033012855  0.04917049804604301  1.0000
  C   C332      1.0  0.7952409484243845  0.5400386174501357  0.093262149209  1.0000
  H   H313      1.0  0.8733330356926928  0.5736267967405201  0.07369140885914516  1.0000
  H   H314      1.0  0.8806762254436064  0.5559654598762784  0.039197416345060354  1.0000
  H   H315      1.0  0.8919527974077169  0.5359883170333947  0.07216573284277561  1.0000
  H   H316      1.0  0.7640988879087928  0.5094154474364726  0.047297208960404014  1.0000
  H   H317      1.0  0.816297433896373  0.5196061592040856  0.02327230731836627  1.0000
  H   H318      1.0  0.8296845739994336  0.49931183241343724  0.05592304446062979  1.0000
  H   H319      1.0  0.7372416651775491  0.5617869283388097  0.04929675799436328  1.0000
  H   H320      1.0  0.7905745156337628  0.5715844399151117  0.026137149802243353  1.0000
  H   H321      1.0  0.7830940766608926  0.5884910175827015  0.06084035058043735  1.0000
  H   H322      1.0  0.7540013951012859  0.5329132971364666  0.09467034576604583  1.0000
  H   H323      1.0  0.7990248964068488  0.5602936784546276  0.10608582215538576  1.0000
  H   H324      1.0  0.8191915141283592  0.5229034304265627  0.10419286456498855  1.0000
  N   N12       1.0  0.6747930045756952  0.9886958235181587  0.9757612044497297  1.0000
  C   C333      1.0  0.7274774028614683  0.9978823901626779  0.9669362062829028  1.0000
  C   C334      1.0  0.6394188407856431  0.014140010750160137  0.975643107203168  1.0000
  C   C335      1.0  0.6769432918721611  0.9761689619550038  0.005393579081951261  1.0000
  C   C336      1.0  0.6554362929262993  0.9666414273867292  0.9552724767115492  1.0000
  H   H325      1.0  0.7550853948404423  0.9791398405683612  0.9666249923742745  1.0000
  H   H326      1.0  0.7435030570074215  0.014220880308760231  0.9822321978610602  1.0000
  H   H327      1.0  0.7272890644462949  0.007870676084699157  0.9448381775066248  1.0000
  H   H328      1.0  0.6525238248072407  0.03082977161696676  0.9913967339817977  1.0000
  H   H329      1.0  0.637625631290182  0.024755515801887285  0.9538443716077826  1.0000
  H   H330      1.0  0.5991772959908171  0.007973420580088098  0.9819056746154837  1.0000
  H   H331      1.0  0.6378734896868384  0.9694528949438309  0.0132361828694183  1.0000
  H   H332      1.0  0.6923186562611519  0.9920565077591064  0.02135049635523667  1.0000
  H   H333      1.0  0.7025454294630011  0.9566260158270111  0.0064196897436392675  1.0000
  H   H334      1.0  0.6819168622961564  0.947413577188511  0.9543707793195596  1.0000
  H   H335      1.0  0.6520839716229003  0.9755213088524897  0.9327780781369716  1.0000
  H   H336      1.0  0.6164639945792343  0.9584953641464412  0.9618211528372452  1.0000
  N   N13       1.0  0.9882602981926386  0.643173579660795  0.17192301154207684  1.0000
  C   C337      1.0  0.9711852378353988  0.6126953913616939  0.1698043813542813  1.0000
  C   C338      1.0  0.9507201864313645  0.6622802300815168  0.15652123551702557  1.0000
  C   C339      1.0  0.04016378975510948  0.6462179698764983  0.15847622461564387  1.0000
  C   C340      1.0  0.990987730139699  0.6515011630807779  0.20287306359958004  1.0000
  H   H337      1.0  0.933137564527743  0.6093122100352472  0.1808087890577365  1.0000
  H   H338      1.0  0.9995411361246814  0.5975897625781038  0.18034064085584198  1.0000
  H   H339      1.0  0.966899453937626  0.6059623972871857  0.14676517617698248  1.0000
  H   H340      1.0  0.962367281660488  0.6854672475882809  0.1578397668203577  1.0000
  H   H341      1.0  0.9480356701377173  0.6566517173455794  0.13302819746008157  1.0000
  H   H342      1.0  0.9110283532305434  0.6603949759667513  0.1659377500130489  1.0000
  H   H343      1.0  0.05401760400487232  0.669037363672263  0.1594881103345673  1.0000
  H   H344      1.0  0.03974617522405999  0.6395756580531909  0.13525074199468975  1.0000
  H   H345      1.0  0.06976073769621527  0.6326179273841982  0.1699505385247476  1.0000
  H   H346      1.0  0.0050540231212889974  0.6741553819317339  0.2054432364422273  1.0000
  H   H347      1.0  0.018458365588310155  0.6372214654155437  0.2151561246756008  1.0000
  H   H348      1.0  0.9524925093658505  0.6497861539202769  0.21374019903267438  1.0000
  N   N14       1.0  0.031846492399997706  0.5793372582654394  0.6218535000323703  1.0000
  C   C341      1.0  0.07222365773393101  0.5920134765345936  0.6028887114517307  1.0000
  C   C342      1.0  0.9804469222250982  0.5914285348310195  0.6136061151360757  1.0000
  C   C343      1.0  0.043304486939248925  0.5864582136275857  0.6524958342149366  1.0000
  C   C344      1.0  0.031563625594801296  0.5474616204637534  0.6183213860402428  1.0000
  H   H349      1.0  0.07373697993691895  0.6160452151813323  0.6050334898972276  1.0000
  H   H350      1.0  0.06513278993163385  0.5869743605131392  0.5796227382935135  1.0000
  H   H351      1.0  0.11147638933347492  0.5835164363998762  0.6085663826128896  1.0000
  H   H352      1.0  0.9705181034734701  0.5860795402667769  0.5906813217172179  1.0000
  H   H353      1.0  0.9489649873838276  0.5826360273542901  0.6276325550016152  1.0000
  H   H354      1.0  0.9795510773077749  0.615525113882955  0.6154647462033029  1.0000
  H   H355      1.0  0.045774434588953694  0.6103530206927484  0.6557157714195427  1.0000
  H   H356      1.0  0.08133940666914528  0.5770063017158097  0.6595374054876273  1.0000
  H   H357      1.0  0.013006176021447043  0.5779091165074194  0.6674600320194614  1.0000
  H   H358      1.0  0.0017269930475087853  0.5370742812691001  0.6323976360509999  1.0000
  H   H359      1.0  0.0699152847346054  0.5375946350576021  0.6241927644302975  1.0000
  H   H360      1.0  0.022833059973697438  0.5413787757582537  0.5954379106698414  1.0000
  N   N15       1.0  0.4801467212015002  0.7764030818878535  0.8361419586750702  1.0000
  C   C345      1.0  0.4891191174686387  0.7605322345655319  0.8087618136226488  1.0000
  C   C346      1.0  0.42382362921761807  0.781855639894405  0.8399360130042381  1.0000
  C   C347      1.0  0.5077896093258437  0.8044147090706569  0.8350363812105491  1.0000
  C   C348      1.0  0.4998761608951445  0.7588211359736325  0.8608510862609167  1.0000
  H   H361      1.0  0.5311185011570827  0.7558391037804855  0.8053095311093302  1.0000
  H   H362      1.0  0.4754559963491498  0.7733300579599761  0.7896473616453517  1.0000
  H   H363      1.0  0.4681459811466032  0.7394948925702518  0.8085082859885925  1.0000
  H   H364      1.0  0.4155898801268703  0.7929831786509117  0.8609081349882055  1.0000
  H   H365      1.0  0.40799155270675014  0.7958105770367275  0.8221075726903311  1.0000
  H   H366      1.0  0.4013749932430236  0.7612794707795659  0.839889037192952  1.0000
  H   H367      1.0  0.5003445145413572  0.8174435088713172  0.8549201490947542  1.0000
  H   H368      1.0  0.495478286360598  0.8177737976070799  0.8159193784298766  1.0000
  H   H369      1.0  0.5505816364918041  0.8011514673093878  0.8333101908512085  1.0000
  H   H370      1.0  0.4935098951206326  0.7700899783807218  0.8818788073455512  1.0000
  H   H371      1.0  0.5423879717384171  0.7545079461784241  0.8588375123135854  1.0000
  H   H372      1.0  0.47994110501023235  0.7375216667820815  0.8622713109146125  1.0000
  N   N16       1.0  0.7123830927184596  0.1605004769947066  0.8256225088100522  1.0000
  C   C349      1.0  0.7048377255984738  0.18952526420023444  0.8385214633512462  1.0000
  C   C350      1.0  0.6953301470036505  0.13804666175505742  0.8465938129567616  1.0000
  C   C351      1.0  0.768047593505717  0.15604019438575664  0.818861626657523  1.0000
  C   C352      1.0  0.681369402434636  0.15841474117751891  0.7986305122070257  1.0000
  H   H373      1.0  0.7281861635145973  0.1919185004902902  0.858783554548372  1.0000
  H   H374      1.0  0.6633815471471664  0.19339942964173387  0.8443267306812409  1.0000
  H   H375      1.0  0.7165149844420146  0.2070808616311579  0.8231832678363921  1.0000
  H   H376      1.0  0.7185129105878572  0.13882460303158836  0.8670292899906772  1.0000
  H   H377      1.0  0.6537304394131761  0.14101424243413976  0.8526395302209997  1.0000
  H   H378      1.0  0.6995578904825652  0.11583452726693523  0.8375265234985074  1.0000
  H   H379      1.0  0.7751997054452575  0.13425973359402166  0.8092746006763142  1.0000
  H   H380      1.0  0.792472539288871  0.15755893249268563  0.8388499494936701  1.0000
  H   H381      1.0  0.782250975091485  0.17262073507320694  0.8031023541056123  1.0000
  H   H382      1.0  0.6859216970122171  0.13677748011913746  0.7882812885653437  1.0000
  H   H383      1.0  0.6927351357353371  0.1752140989481724  0.7823524302322759  1.0000
  H   H384      1.0  0.6392703182862567  0.16159803128981226  0.8030819733902413  1.0000
  N   N17       1.0  0.9505958715394898  0.1140026549512867  0.512600047492417  1.0000
  C   C353      1.0  0.9581299590805288  0.14420845177520092  0.5223783640724129  1.0000
  C   C354      1.0  0.9919648986798199  0.10605331640974347  0.4917323410643408  1.0000
  C   C355      1.0  0.8992765473022947  0.11158758091579601  0.4983292851022496  1.0000
  C   C356      1.0  0.9530962627959106  0.09409970629173592  0.5379337303584656  1.0000
  H   H385      1.0  0.9273627528128925  0.15105827420140217  0.5380290315275322  1.0000
  H   H386      1.0  0.9566229712333549  0.1598219665920757  0.5037846908067948  1.0000
  H   H387      1.0  0.9963809359292376  0.14685654554602623  0.533364890829995  1.0000
  H   H388      1.0  0.9909593399714139  0.12033705639851577  0.47210655265015494  1.0000
  H   H389      1.0  0.03130300261335295  0.10767705074111622  0.5017713962403688  1.0000
  H   H390      1.0  0.9877029874701279  0.08324653287436012  0.4842415595683782  1.0000
  H   H391      1.0  0.8961152051048592  0.1264635215285952  0.4791990706569192  1.0000
  H   H392      1.0  0.8670141707462258  0.11732430527962268  0.5134060690151088  1.0000
  H   H393      1.0  0.8924020028387215  0.0891725762733353  0.49031336488024774  1.0000
  H   H394      1.0  0.9224119140206237  0.09930898391411813  0.5541670023169304  1.0000
  H   H395      1.0  0.9914839481578345  0.09537468379089686  0.5491230252712369  1.0000
  H   H396      1.0  0.9481243793183429  0.07108671601324534  0.5312401123524854  1.0000
  N   N18       1.0  0.1878086231844922  0.8602685908707345  0.2469378692685309  1.0000
  C   C357      1.0  0.1325986302849429  0.8691175515916941  0.2443834295187001  1.0000
  C   C358      1.0  0.22112965778346538  0.8861515337684719  0.24443874448821806  1.0000
  C   C359      1.0  0.20095764363521718  0.8396999081811998  0.22345834422103136  1.0000
  C   C360      1.0  0.19652318256191093  0.8462467975965964  0.2755647118698052  1.0000
  H   H397      1.0  0.1062564765837013  0.850160224451143  0.24633132687151735  1.0000
  H   H398      1.0  0.1245165390666676  0.8796967197106161  0.2230154393050176  1.0000
  H   H399      1.0  0.12157617362772166  0.8848853040218828  0.2616452423572421  1.0000
  H   H400      1.0  0.2631532047407519  0.8803109668816504  0.24546925114000562  1.0000
  H   H401      1.0  0.21449640098604505  0.8978039692057572  0.22349210593514424  1.0000
  H   H402      1.0  0.21311366290814604  0.9017833545306738  0.26225256122188617  1.0000
  H   H403      1.0  0.24211133187800704  0.8321813038212033  0.22496958920987759  1.0000
  H   H404      1.0  0.1959534062713708  0.8499341980103099  0.20162032610541566  1.0000
  H   H405      1.0  0.17570951515112943  0.820182072764188  0.22411964075210208  1.0000
  H   H406      1.0  0.17216088820635322  0.8265401617597006  0.27821834113530536  1.0000
  H   H407      1.0  0.18660592347089944  0.8613318437421651  0.2936662846349522  1.0000
  H   H408      1.0  0.23791436430815627  0.839563270366412  0.2784099999536716  1.0000
  N   N19       1.0  0.46390278056576933  0.19080883441562838  0.010567020715739561  1.0000
  C   C361      1.0  0.5067881216107096  0.17462754861101903  0.02487552734770504  1.0000
  C   C362      1.0  0.4661056093488121  0.22169989133216705  0.018954236248199363  1.0000
  C   C363      1.0  0.41364057923278497  0.17844705998941374  0.019789740187781124  1.0000
  C   C364      1.0  0.46923940518124924  0.18848543915180668  0.9786372367500509  1.0000
  H   H409      1.0  0.5053692771224805  0.15103460377434672  0.019908901032231086  1.0000
  H   H410      1.0  0.5057151131682727  0.17708693247879434  0.04895835152951933  1.0000
  H   H411      1.0  0.545125830878116  0.18256482561181941  0.01731085147280087  1.0000
  H   H412      1.0  0.4331461045283847  0.2344155027758244  0.009490825918547996  1.0000
  H   H413      1.0  0.46420687283266554  0.22433929624533938  0.04299933630398067  1.0000
  H   H414      1.0  0.502755661592927  0.23194832523590836  0.01133503590514362  1.0000
  H   H415      1.0  0.3803462710836739  0.19004227996832473  0.00931930753093968  1.0000
  H   H416      1.0  0.4083867144205603  0.18004965397246264  0.04376155833988005  1.0000
  H   H417      1.0  0.41062168231140195  0.15513885570093222  0.013872848359436363  1.0000
  H   H418      1.0  0.43723107472053335  0.20025170598913805  0.9671330470738403  1.0000
  H   H419      1.0  0.46853706533625317  0.16544228100325326  0.971483610257547  1.0000
  H   H420      1.0  0.5066813929649535  0.19792734623050956  0.9709834275131423  1.0000
  N   N20       1.0  0.02764209378951521  0.8742143417742065  0.07225831750721691  1.0000
  C   C365      1.0  0.04420799565501965  0.8939098553758426  0.04856305156804353  1.0000
  C   C366      1.0  0.044274079955238355  0.886108197410606  0.10050963957519587  1.0000
  C   C367      1.0  0.051847839562066955  0.8453869376114655  0.06812462609969527  1.0000
  C   C368      1.0  0.9704267948831837  0.8713432843024095  0.07182337836977461  1.0000
  H   H421      1.0  0.030749972396283853  0.8861040432801071  0.0269708482448221  1.0000
  H   H422      1.0  0.08734442313529645  0.8957316887908681  0.047776110510985736  1.0000
  H   H423      1.0  0.028098919058696437  0.9161501260255951  0.05159418275865902  1.0000
  H   H424      1.0  0.03178989795173681  0.8719450435012959  0.11891382210680082  1.0000
  H   H425      1.0  0.08733043698595244  0.888047434388208  0.10172734470376456  1.0000
  H   H426      1.0  0.027378743312718612  0.908064368847748  0.10430568591274247  1.0000
  H   H427      1.0  0.04108058166560369  0.8361155121913689  0.04669647592043513  1.0000
  H   H428      1.0  0.039637335616448555  0.8298053406351037  0.0854225718494801  1.0000
  H   H429      1.0  0.09504924896887101  0.8465302560359543  0.06917021395643252  1.0000
  H   H430      1.0  0.9567125170369358  0.856781019012862  0.08961957030975999  1.0000
  H   H431      1.0  0.9564069447773393  0.8625082097545549  0.05076084755622112  1.0000
  H   H432      1.0  0.9509214973220984  0.8926554273229174  0.07504852994626998  1.0000
  N   N21       1.0  0.15428401775552286  0.5435262668215706  0.4926227577268351  1.0000
  C   C369      1.0  0.176583310186356  0.5684050666926916  0.5083395718773881  1.0000
  C   C370      1.0  0.12193390939375232  0.5543628904595934  0.4681773603002459  1.0000
  C   C371      1.0  0.12186679720324782  0.5263521379736091  0.5128263147848805  1.0000
  C   C372      1.0  0.1967475015545016  0.5250028741613042  0.48125179634135384  1.0000
  H   H433      1.0  0.2010650897605472  0.5610182299358105  0.5270107152871715  1.0000
  H   H434      1.0  0.14549022362023747  0.5829103474378087  0.5170524812204582  1.0000
  H   H435      1.0  0.20184350007358667  0.5817029594464239  0.4939025530189393  1.0000
  H   H436      1.0  0.104195658444735  0.5362161957713817  0.45584177674745713  1.0000
  H   H437      1.0  0.08953077590534586  0.5684928229574541  0.47599059180606224  1.0000
  H   H438      1.0  0.1452377720836794  0.5673874465019012  0.4524816989829976  1.0000
  H   H439      1.0  0.08960495666611988  0.5397501433994859  0.521937820535326  1.0000
  H   H440      1.0  0.14524756496893645  0.5177444396284683  0.5314203930270397  1.0000
  H   H441      1.0  0.10418526446309229  0.5073994663259027  0.5017593522080935  1.0000
  H   H442      1.0  0.22114851799645557  0.5158853868543889  0.49918899918647036  1.0000
  H   H443      1.0  0.22309636250348527  0.5374649354368333  0.46666820778758317  1.0000
  H   H444      1.0  0.18132317201429318  0.506365124361849  0.46871431553817633  1.0000
  N   N22       1.0  0.9649382115126982  0.7908605123364847  0.7341798460539083  1.0000
  C   C373      1.0  0.9274737912746155  0.8136328793598339  0.7430617383418806  1.0000
  C   C374      1.0  0.936575910247646  0.7640427624629624  0.7270618321822653  1.0000
  C   C375      1.0  0.0016040137499531149  0.7848358726600217  0.7582913240518108  1.0000
  C   C376      1.0  0.9941059281492747  0.8008636487752728  0.7083168488348799  1.0000
  H   H445      1.0  0.8992024409870158  0.8187260185115967  0.7253380112774303  1.0000
  H   H446      1.0  0.947513676306315  0.8342113255524725  0.7485048500778709  1.0000
  H   H447      1.0  0.9045183107078466  0.8067636004648446  0.7624010300474946  1.0000
  H   H448      1.0  0.9636894634126998  0.7465623287043026  0.7199005102160647  1.0000
  H   H449      1.0  0.9147035713186503  0.7556287017810359  0.7461734687294581  1.0000
  H   H450      1.0  0.9080986602871568  0.7678798393429687  0.7091760800912089  1.0000
  H   H451      1.0  0.030021573426025627  0.7675889029565953  0.752352688436425  1.0000
  H   H452      1.0  0.9809967741169427  0.7771482911996037  0.7781584381808946  1.0000
  H   H453      1.0  0.02416544626894246  0.8044671040169799  0.7641274651133221  1.0000
  H   H454      1.0  0.022278717757931776  0.7840987557298853  0.7007604002384678  1.0000
  H   H455      1.0  0.01644718958446978  0.8208984336892442  0.7128707867696978  1.0000
  H   H456      1.0  0.967562535325158  0.8058153786733399  0.6897722930250452  1.0000
  N   N23       1.0  0.8142541343989224  0.41509625022481983  0.5511852912253538  1.0000
  C   C377      1.0  0.8671876581874457  0.407494714744394  0.5613989004341066  1.0000
  C   C378      1.0  0.815603096513863  0.44231592933705066  0.5339905507365991  1.0000
  C   C379      1.0  0.7798799753488039  0.41908388100981403  0.5766094238585132  1.0000
  C   C380      1.0  0.7944044490104237  0.39143225799554804  0.5328078322623853  1.0000
  H   H457      1.0  0.8673200161183278  0.3871188804014662  0.5746378932460761  1.0000
  H   H458      1.0  0.883640140841455  0.4249823709977338  0.5751403712311863  1.0000
  H   H459      1.0  0.8943402810089602  0.4042344945484744  0.5428295431407868  1.0000
  H   H460      1.0  0.776105586071891  0.44861085082595775  0.5260922486282247  1.0000
  H   H461      1.0  0.8308363974139884  0.46062265355213744  0.5471016274475936  1.0000
  H   H462      1.0  0.8415526183501689  0.44019765588629106  0.5147310442070094  1.0000
  H   H463      1.0  0.7389303941365525  0.4236209248137448  0.5698840533604483  1.0000
  H   H464      1.0  0.7928978677009655  0.43743871067817025  0.5903241864400919  1.0000
  H   H465      1.0  0.7799425172263511  0.3994453294792468  0.5907888886357842  1.0000
  H   H466      1.0  0.7532620899717904  0.39538493455589907  0.5262608973445513  1.0000
  H   H467      1.0  0.7960110281746743  0.370260464788213  0.5444921075744465  1.0000
  H   H468      1.0  0.8178896011836783  0.3889867993651559  0.5126489688361591  1.0000
  N   N24       1.0  0.1135888963208249  0.48986746341396686  0.15342256406908295  1.0000
  C   C381      1.0  0.16462031447672967  0.5004297030362609  0.14322425165121455  1.0000
  C   C382      1.0  0.08082289934623699  0.514879565105877  0.16201484804826682  1.0000
  C   C383      1.0  0.1212834417516414  0.4703472769536363  0.17874878337444566  1.0000
  C   C384      1.0  0.087646154866456  0.4738167190378343  0.12980831579241503  1.0000
  H   H469      1.0  0.19052955223846504  0.4821669830682347  0.1366656737778087  1.0000
  H   H470      1.0  0.18516657830774716  0.5125737329554675  0.16062944881302577  1.0000
  H   H471      1.0  0.16035261465286918  0.5153244715679477  0.124197195520247  1.0000
  H   H472      1.0  0.041741462583679834  0.5077478412074645  0.16939562310157896  1.0000
  H   H473      1.0  0.09884014205604097  0.5270379182471647  0.18028314132555034  1.0000
  H   H474      1.0  0.07492139515471408  0.5303254995891024  0.14357601118872743  1.0000
  H   H475      1.0  0.08386167108818476  0.46079158247617036  0.18603237547931917  1.0000
  H   H476      1.0  0.13836182992303311  0.4821015215570833  0.19755278855858904  1.0000
  H   H477      1.0  0.1478935687234799  0.45197870835390724  0.1735107083539842  1.0000
  H   H478      1.0  0.08274074160074285  0.48748114068976195  0.10990671252927031  1.0000
  H   H479      1.0  0.04829557528763195  0.4663436990710631  0.13658892359418773  1.0000
  H   H480      1.0  0.11034684121157066  0.45419296506390006  0.12351242744957225  1.0000
  N   N25       1.0  0.27507679635877025  0.7077667040803259  0.6959511318810944  1.0000
  C   C385      1.0  0.22150309597978465  0.697352505651451  0.6912156682344401  1.0000
  C   C386      1.0  0.30060653905854684  0.7125392270344524  0.6675380785359963  1.0000
  C   C387      1.0  0.30493862434231667  0.6858279176323663  0.7127996572584759  1.0000
  C   C388      1.0  0.2734679822774847  0.7354019135920373  0.7120968162569041  1.0000
  H   H481      1.0  0.1979452320953298  0.7133227647048342  0.6784098539828133  1.0000
  H   H482      1.0  0.20095483672135572  0.6935886156777106  0.7121980961218585  1.0000
  H   H483      1.0  0.22129871930122  0.6765170498883697  0.6790958659598171  1.0000
  H   H484      1.0  0.3411447316904867  0.7204941475787258  0.6703562271163461  1.0000
  H   H485      1.0  0.3026434443735741  0.6921106785742221  0.6547780150821529  1.0000
  H   H486      1.0  0.27908716599162137  0.7289739567957416  0.6542177252645168  1.0000
  H   H487      1.0  0.3055682129775809  0.6644451246339961  0.7016739021456359  1.0000
  H   H488      1.0  0.2879382305502278  0.6822494406147717  0.7347856490753643  1.0000
  H   H489      1.0  0.34603122728066016  0.6926122660594743  0.7159231004932877  1.0000
  H   H490      1.0  0.3132272557708464  0.7441498365482887  0.715449393306882  1.0000
  H   H491      1.0  0.2556737123020976  0.7326198938376722  0.7339780571971557  1.0000
  H   H492      1.0  0.25038720273714987  0.75226993349262  0.7002478624138376  1.0000
  N   N26       1.0  0.20931861307299202  0.29239844650876184  0.07441063725017671  1.0000
  C   C389      1.0  0.24138318074772508  0.30765232939756393  0.05252860221502864  1.0000
  C   C390      1.0  0.24121503784672654  0.28590794895143656  0.10046540483414601  1.0000
  C   C391      1.0  0.19002193029155934  0.2649960785366145  0.062022753774438444  1.0000
  C   C392      1.0  0.16460992657786438  0.3110222940809131  0.08251273728146957  1.0000
  H   H493      1.0  0.21888601103403768  0.312176707686785  0.03223986499866349  1.0000
  H   H494      1.0  0.27616823923786615  0.2945392856589826  0.04646280972044314  1.0000
  H   H495      1.0  0.25573251134988784  0.32872961446277593  0.06088954187977924  1.0000
  H   H496      1.0  0.2570961862242582  0.30605936834767505  0.11016773524361123  1.0000
  H   H497      1.0  0.21825414291407894  0.27446819075912643  0.11747713323427167  1.0000
  H   H498      1.0  0.2750904283874732  0.2717240860605769  0.09502568612834561  1.0000
  H   H499      1.0  0.16437054927228514  0.25324165089125267  0.07753000773058827  1.0000
  H   H500      1.0  0.2225373471183839  0.2500747116155367  0.05635481036282197  1.0000
  H   H501      1.0  0.1673104951347094  0.26906168726355195  0.04178594504688915  1.0000
  H   H502      1.0  0.13905630455052043  0.300101448659669  0.09869190178308762  1.0000
  H   H503      1.0  0.1400682483141113  0.31641889715811394  0.06321452433010522  1.0000
  H   H504      1.0  0.17758440170333986  0.3318888470976587  0.09203238191772178  1.0000
  N   N27       1.0  0.21134556000170662  0.9554428723251283  0.5979425299991225  1.0000
  C   C393      1.0  0.1674757482292048  0.9409157743020072  0.6126692129488637  1.0000
  C   C394      1.0  0.24127231293407878  0.9338237178135476  0.5810408904065552  1.0000
  C   C395      1.0  0.2456475752921889  0.9687856636225453  0.6198265626839176  1.0000
  C   C396      1.0  0.1908800630322497  0.9782726192069643  0.5782051073708648  1.0000
  H   H505      1.0  0.18136671966810614  0.9234326567357865  0.627654450959637  1.0000
  H   H506      1.0  0.14087067882264012  0.9306798019099995  0.5966037586137802  1.0000
  H   H507      1.0  0.1438634193202095  0.9565939525078684  0.6254968239008765  1.0000
  H   H508      1.0  0.274248894165809  0.9439890041121993  0.5692555843390611  1.0000
  H   H509      1.0  0.25807050654810315  0.9165004704102174  0.5953077999959526  1.0000
  H   H510      1.0  0.2164147688412885  0.9230551403237203  0.5645366106763513  1.0000
  H   H511      1.0  0.27973279265283435  0.9793056740778847  0.6093475072839346  1.0000
  H   H512      1.0  0.2607160738535419  0.9523563464923039  0.6356287610284855  1.0000
  H   H513      1.0  0.22488134976011714  0.9859623627675379  0.6322938706882275  1.0000
  H   H514      1.0  0.16328738781287191  0.969191970494257  0.5621292046246114  1.0000
  H   H515      1.0  0.22258908479240314  0.9890078865673657  0.5658567450329376  1.0000
  H   H516      1.0  0.16948108624315966  0.9954759811956427  0.5902819895458958  1.0000
  N   N28       1.0  0.646271813733166  0.2694179431606058  0.6235968362296711  1.0000
  C   C397      1.0  0.6666644734101574  0.2478346013866119  0.6027858636379426  1.0000
  C   C398      1.0  0.6085669177124947  0.25543550054907166  0.6433893962568389  1.0000
  C   C399      1.0  0.6201696038942526  0.2932113764902333  0.6073733659511121  1.0000
  C   C400      1.0  0.6897846332914512  0.2811761313545339  0.6408152307135939  1.0000
  H   H517      1.0  0.6867392042251251  0.22962681123887346  0.6142263280120981  1.0000
  H   H518      1.0  0.6952852607162641  0.2576996531949748  0.5875490043716192  1.0000
  H   H519      1.0  0.6349550893823632  0.23814311427681684  0.5896345991027578  1.0000
  H   H520      1.0  0.5902460680092041  0.27140678985697025  0.6583264027263538  1.0000
  H   H521      1.0  0.5770078168565084  0.2444649395046922  0.6311511314171864  1.0000
  H   H522      1.0  0.6277454227045184  0.23857001045387988  0.657180452130029  1.0000
  H   H523      1.0  0.6471823300883067  0.3036880656480713  0.5916974224481819  1.0000
  H   H524      1.0  0.6056965849613356  0.3104327857607226  0.6222351486643585  1.0000
  H   H525      1.0  0.5864332501286345  0.28513564856661117  0.594667837819191  1.0000
  H   H526      1.0  0.6760127676280594  0.29733184292892767  0.6569961113136356  1.0000
  H   H527      1.0  0.7186202371347589  0.29225294465865015  0.6266487569994896  1.0000
  H   H528      1.0  0.7109468544203158  0.2636255589490799  0.6528990438801289  1.0000
  N   N29       1.0  0.35092738051461736  0.09775317499500269  0.6791691927795248  1.0000
  C   C401      1.0  0.3015666019943124  0.10863319539001948  0.6665139152276763  1.0000
  C   C402      1.0  0.392597290764091  0.10001654600703191  0.6571609985538815  1.0000
  C   C403      1.0  0.34541353952967774  0.06711125243596738  0.6882839340053166  1.0000
  C   C404      1.0  0.36432464704559686  0.11534853058331507  0.7047974706930301  1.0000
  H   H529      1.0  0.30467960242641395  0.13191639528827714  0.6599679210864701  1.0000
  H   H530      1.0  0.26891203412721215  0.1067891280160933  0.6822333668086593  1.0000
  H   H531      1.0  0.2907155361301894  0.09628028443165793  0.6467367736258645  1.0000
  H   H532      1.0  0.39748007823627085  0.12286453652150486  0.6496191079603664  1.0000
  H   H533      1.0  0.43063843517295575  0.09239883324805143  0.6660525184056482  1.0000
  H   H534      1.0  0.3838466645567713  0.08662668571043763  0.6376884797883116  1.0000
  H   H535      1.0  0.3133995494239144  0.0644173138524653  0.7042937853818693  1.0000
  H   H536      1.0  0.38185718839320315  0.0587893525017793  0.6985924285045172  1.0000
  H   H537      1.0  0.3369254713746238  0.05293863182778735  0.6694324758220059  1.0000
  H   H538      1.0  0.40120706840794745  0.10773610478126772  0.7150059837464324  1.0000
  H   H539      1.0  0.3335160931051099  0.11435289382779268  0.7217177742285966  1.0000
  H   H540      1.0  0.36957320953009165  0.13849456778504976  0.6987593480388631  1.0000
  N   N30       1.0  0.808795728672108  0.9976272626521042  0.19064462794224687  1.0000
  C   C405      1.0  0.8264289293840174  0.9672492352001094  0.1869119237381895  1.0000
  C   C406      1.0  0.7864109157982452  0.001201191480843633  0.2200476424624426  1.0000
  C   C407      1.0  0.768743375650848  0.004763239846608647  0.16858994345102463  1.0000
  C   C408      1.0  0.8534908793907835  0.01729206863674837  0.1869946682965317  1.0000
  H   H541      1.0  0.8409201625654843  0.9632709758897051  0.16443813609901775  1.0000
  H   H542      1.0  0.7942365491392009  0.9517761684475681  0.1910857675427401  1.0000
  H   H543      1.0  0.8586593919883675  0.9615389034598006  0.2021443480469502  1.0000
  H   H544      1.0  0.7722397658399868  0.023827357103747504  0.2236115001955195  1.0000
  H   H545      1.0  0.7525891618310306  0.9865502460576524  0.2234753224853302  1.0000
  H   H546      1.0  0.8155280401057373  0.9960413590496627  0.23727203661379948  1.0000
  H   H547      1.0  0.7833669589214326  0.0012983980690322028  0.14609312586002574  1.0000
  H   H548      1.0  0.7554184695255135  0.027707997178116228  0.17029442003502307  1.0000
  H   H549      1.0  0.7339186647334942  0.9909051528238283  0.17130179527635955  1.0000
  H   H550      1.0  0.8419652363731874  0.04034377815972001  0.19042601768935352  1.0000
  H   H551      1.0  0.870277180105269  0.015577338255762907  0.16475723255067523  1.0000
  H   H552      1.0  0.8852212505232628  0.012029772871226196  0.2027622682741952  1.0000
  N   N31       1.0  0.9968029665992564  0.24409580603620792  0.7297415280870903  1.0000
  C   C409      1.0  0.01996798638490782  0.21514951990558462  0.7245052555330886  1.0000
  C   C410      1.0  0.9813353867404012  0.25730284238627266  0.7016490009306187  1.0000
  C   C411      1.0  0.03531491517835361  0.26280418545870565  0.7442035559461244  1.0000
  C   C412      1.0  0.9504135841996364  0.24113232676365245  0.7484706812302273  1.0000
  H   H553      1.0  0.032045718024292125  0.20443577672459934  0.7452348071220941  1.0000
  H   H554      1.0  0.05495994337677601  0.2167059640597423  0.710319159529521  1.0000
  H   H555      1.0  0.9917911602000945  0.20062018418775254  0.7134538558877453  1.0000
  H   H556      1.0  0.9519444479163828  0.2438672049830367  0.690307052484256  1.0000
  H   H557      1.0  0.963842576978146  0.27922357259069924  0.7047182755400951  1.0000
  H   H558      1.0  0.015131234678983585  0.25967583475966416  0.6867139261258459  1.0000
  H   H559      1.0  0.018968715523004498  0.28481033009331497  0.7485816954976034  1.0000
  H   H560      1.0  0.07053138761676903  0.2658482543036683  0.7304755599800448  1.0000
  H   H561      1.0  0.04831020724071089  0.253479975633128  0.7654114140172033  1.0000
  H   H562      1.0  0.9312862149929493  0.26255641150554115  0.7521908906400067  1.0000
  H   H563      1.0  0.9606034965602424  0.2316313901538668  0.7700684600353311  1.0000
  H   H564      1.0  0.9207975020488001  0.22687802347348873  0.7382805345514215  1.0000
  N   N32       1.0  0.7539311892245506  0.7163903136185821  0.629821458971673  1.0000
  C   C413      1.0  0.7044873294664028  0.7255714119143314  0.6434918445265382  1.0000
  C   C414      1.0  0.7580885852981755  0.7296141556631897  0.6005309817056677  1.0000
  C   C415      1.0  0.755189215621811  0.6844280742464408  0.6272786763895735  1.0000
  C   C416      1.0  0.7980585831992569  0.7259379593044494  0.6479381442376438  1.0000
  H   H565      1.0  0.6994703324851512  0.7156412498671425  0.6654295259048888  1.0000
  H   H566      1.0  0.6702338288404044  0.719654215931169  0.6300146194311755  1.0000
  H   H567      1.0  0.702826239984869  0.7494726738065618  0.646353894034325  1.0000
  H   H568      1.0  0.757983272786199  0.7536944145927224  0.6016399596642504  1.0000
  H   H569      1.0  0.7948055019863673  0.7229438816989551  0.5895324543875186  1.0000
  H   H570      1.0  0.7250566503800288  0.7232614125575311  0.5863502494240522  1.0000
  H   H571      1.0  0.7524384003994795  0.6736945892589637  0.6489734362847053  1.0000
  H   H572      1.0  0.791989463170649  0.6768126045255405  0.6169405658429253  1.0000
  H   H573      1.0  0.7224114076732457  0.6765168752541331  0.6137152375198001  1.0000
  H   H574      1.0  0.8359693377067084  0.7193088263655506  0.6382802546260874  1.0000
  H   H575      1.0  0.7960844260324628  0.7165978827370895  0.6702752929972567  1.0000
  H   H576      1.0  0.7985112006769168  0.7499752171982373  0.6500960126006037  1.0000
  N   N33       1.0  0.555226499649627  0.9352858050612433  0.6586052956017746  1.0000
  C   C417      1.0  0.5749364967795932  0.9571692284798735  0.6377807677350786  1.0000
  C   C418      1.0  0.5076644839963433  0.9465559061812244  0.6727521907426472  1.0000
  C   C419      1.0  0.5951449878880296  0.9290859904455241  0.6810082446302036  1.0000
  C   C420      1.0  0.5430192435709337  0.9082944817642861  0.6429089268027681  1.0000
  H   H577      1.0  0.5455916879691403  0.9623515344613333  0.620629382845208  1.0000
  H   H578      1.0  0.6108000488886834  0.9494438714883784  0.6266354092015881  1.0000
  H   H579      1.0  0.5843810251345588  0.9779350461582461  0.6487925304107137  1.0000
  H   H580      1.0  0.49191397065954023  0.9306393730641964  0.6887572876844051  1.0000
  H   H581      1.0  0.5153786619797215  0.9670045641080849  0.6846976963624295  1.0000
  H   H582      1.0  0.47642420552187065  0.9510778950999458  0.6565347886817021  1.0000
  H   H583      1.0  0.6312351142974658  0.9198961361927942  0.6712256732705163  1.0000
  H   H584      1.0  0.5808975004813419  0.9130085230185014  0.6973372174000281  1.0000
  H   H585      1.0  0.6058883621503383  0.949063845869676  0.6930148108322222  1.0000
  H   H586      1.0  0.5279983749530504  0.8913525913154301  0.6580190455847784  1.0000
  H   H587      1.0  0.5779778979900893  0.8990119809568905  0.6320235921063114  1.0000
  H   H588      1.0  0.512752011842841  0.912091710765807  0.6259308115595321  1.0000
  N   N34       1.0  0.029444710315374323  0.001446814156248033  0.3570338968055377  1.0000
  C   C421      1.0  0.9791574452746794  0.01721804649784442  0.3562514352924756  1.0000
  C   C422      1.0  0.030701995614320854  0.9794786552272403  0.3337507182878769  1.0000
  C   C423      1.0  0.03559057787320329  0.9869082088033091  0.3855850785716589  1.0000
  C   C424      1.0  0.07241881448617882  0.022154514647643175  0.3526531242227465  1.0000
  H   H589      1.0  0.9724300994263131  0.027888879085826046  0.33476802978349285  1.0000
  H   H590      1.0  0.9774933705670663  0.03440625797423924  0.3731164346766056  1.0000
  H   H591      1.0  0.9460030253024677  0.0023760134976258396  0.36060653172850293  1.0000
  H   H592      1.0  0.06812127716752349  0.9671361547874349  0.3338509347883258  1.0000
  H   H593      1.0  0.9988842531352223  0.9634440626779553  0.33642483953823504  1.0000
  H   H594      1.0  0.026551290692577105  0.9896825580673476  0.31182632141753086  1.0000
  H   H595      1.0  0.035386481031907335  0.002862158603588405  0.4036156308603363  1.0000
  H   H596      1.0  0.07278866274782025  0.9746018699709257  0.38695085703288756  1.0000
  H   H597      1.0  0.003489972306687238  0.9713768554047426  0.3899577124492378  1.0000
  H   H598      1.0  0.11083552056438384  0.010880018912974743  0.35305329307817496  1.0000
  H   H599      1.0  0.07311774261992698  0.03883211794934427  0.37006453776119513  1.0000
  H   H600      1.0  0.06906679956801787  0.03363080549172093  0.33133096784938354  1.0000
  N   N35       1.0  0.6754303291586825  0.2590963655050723  0.455136347433499  1.0000
  C   C425      1.0  0.6421429053369411  0.25659746886956597  0.4812381933704348  1.0000
  C   C426      1.0  0.6861582052533524  0.29005180812498366  0.44918431680923193  1.0000
  C   C427      1.0  0.6483173353750266  0.24631322045841475  0.42996500709110924  1.0000
  C   C428      1.0  0.725019152359476  0.24337713380238574  0.46014177887443364  1.0000
  H   H601      1.0  0.6050369545047052  0.268948548215318  0.47850521050533146  1.0000
  H   H602      1.0  0.6616999058459123  0.26538198842382565  0.5008181392927323  1.0000
  H   H603      1.0  0.6322965618283551  0.2335844063066831  0.4860475816806816  1.0000
  H   H604      1.0  0.7100097719497139  0.2929210041023819  0.42921250423474844  1.0000
  H   H605      1.0  0.6495036141112795  0.30281655606437635  0.446246252308435  1.0000
  H   H606      1.0  0.7075455245082597  0.3001373861148268  0.46754724686113697  1.0000
  H   H607      1.0  0.6393179263157087  0.22297312189781132  0.43393854482367794  1.0000
  H   H608      1.0  0.6724916488220827  0.24744935864615353  0.40991189112302223  1.0000
  H   H609      1.0  0.6108907427381072  0.25777915190784817  0.4254060024431023  1.0000
  H   H610      1.0  0.7451765934768443  0.2510972228337343  0.4800709576154268  1.0000
  H   H611      1.0  0.7521456670753819  0.2459853253340941  0.4414790988567594  1.0000
  H   H612      1.0  0.7184906751667544  0.21971292367007259  0.46296577056572724  1.0000
  N   N36       1.0  0.4022969989611141  0.25829842514960955  0.775680404760246  1.0000
  C   C429      1.0  0.3994236699154792  0.29026405430867175  0.7734965862991597  1.0000
  C   C430      1.0  0.4258215235026533  0.24976739660263336  0.8038566432766026  1.0000
  C   C431      1.0  0.4345725351068988  0.2470704388800004  0.7516758740512549  1.0000
  C   C432      1.0  0.34940737264545124  0.24613394215741297  0.7735634377661459  1.0000
  H   H613      1.0  0.37616427992340495  0.299528058499484  0.7916166349405611  1.0000
  H   H614      1.0  0.38106108735062016  0.29742646341079443  0.7526394187746973  1.0000
  H   H615      1.0  0.43871457961734805  0.3001431062267943  0.7745418185284014  1.0000
  H   H616      1.0  0.4658807129380941  0.2585007983754633  0.80610236295366  1.0000
  H   H617      1.0  0.4022359404604117  0.2579318509845431  0.8224662989611473  1.0000
  H   H618      1.0  0.4290782234387925  0.22572717282584315  0.8060632336233363  1.0000
  H   H619      1.0  0.4381362207896495  0.22306298224384294  0.752782568751097  1.0000
  H   H620      1.0  0.47464920592582494  0.25599909213927813  0.7523947790276386  1.0000
  H   H621      1.0  0.4176071694938271  0.2528914579680106  0.7302073998722852  1.0000
  H   H622      1.0  0.3503051384544024  0.22199881136831282  0.7746143043100577  1.0000
  H   H623      1.0  0.3302522716858953  0.2525650268550813  0.7527652483825038  1.0000
  H   H624      1.0  0.3240947244563981  0.2539266363736781  0.7915721328681848  1.0000
  N   N37       1.0  0.9633073075953189  0.7310382496561224  0.4946537362230001  1.0000
  C   C433      1.0  0.005482912874507084  0.7524824663224379  0.491535674468685  1.0000
  C   C434      1.0  0.9227702376140934  0.7426540280728254  0.5142637749037088  1.0000
  C   C435      1.0  0.9847231254034973  0.7037673064523763  0.5070382057145434  1.0000
  C   C436      1.0  0.9402231164324852  0.7252785433525551  0.46584057795569384  1.0000
  H   H625      1.0  0.03680030823941549  0.7445899682487453  0.4768432098725028  1.0000
  H   H626      1.0  0.023640332738940284  0.7574316630930557  0.5129448094337216  1.0000
  H   H627      1.0  0.9906057861999651  0.773532639311424  0.48262736068554984  1.0000
  H   H628      1.0  0.8903959512963594  0.7270423173815184  0.5173855160840308  1.0000
  H   H629      1.0  0.9389777860208699  0.747362585517695  0.5360982351836704  1.0000
  H   H630      1.0  0.906146957986871  0.7634907669543212  0.5058337815934623  1.0000
  H   H631      1.0  0.003286436462370146  0.7075851651082151  0.5285337591525462  1.0000
  H   H632      1.0  0.014793916783099492  0.6940110648332517  0.49262498796630244  1.0000
  H   H633      1.0  0.9538104002612244  0.6872604250783689  0.5103867207259442  1.0000
  H   H634      1.0  0.9083313278309654  0.7091273300865606  0.4674486019617565  1.0000
  H   H635      1.0  0.9697583911268828  0.7165391935354845  0.45044478811525673  1.0000
  H   H636      1.0  0.9236223238993811  0.7454794755352094  0.45598373283745547  1.0000
  N   N38       1.0  0.01375310473957736  0.09769461176179028  0.02350978467491882  1.0000
  C   C437      1.0  0.05332490465870543  0.10675847675290662  0.002025048579810562  1.0000
  C   C438      1.0  0.024968741087865398  0.06779227707449698  0.03372071712456548  1.0000
  C   C439      1.0  0.9618400055301721  0.09859991640991606  0.009771845681368685  1.0000
  C   C440      1.0  0.014523872845149777  0.11771836686280945  0.04848888776018212  1.0000
  H   H637      1.0  0.04565731670808093  0.12930668987282345  0.9939972916061285  1.0000
  H   H638      1.0  0.05354959382841118  0.09229572008973785  0.9827365120139165  1.0000
  H   H639      1.0  0.09312629234733416  0.1064443089821483  0.011591256159360963  1.0000
  H   H640      1.0  0.9952385153749729  0.060326554609139604  0.04970418279612021  1.0000
  H   H641      1.0  0.024204424747265696  0.052097829805686446  0.015410385880075816  1.0000
  H   H642      1.0  0.06378123630666921  0.06615514356876617  0.044339844714652354  1.0000
  H   H643      1.0  0.9306477506785682  0.09334557065619853  0.02571457861169657  1.0000
  H   H644      1.0  0.9588224654243218  0.08267132186947612  0.9917596637331932  1.0000
  H   H645      1.0  0.9532069947818846  0.12042151237658905  0.0005401600596559586  1.0000
  H   H646      1.0  0.9850970862196532  0.11154403681621816  0.06512481134358827  1.0000
  H   H647      1.0  0.00566287980095459  0.14042811567454683  0.04148986550116707  1.0000
  H   H648      1.0  0.05330710334550326  0.11780627222504725  0.059251854790612235  1.0000
  N   N39       1.0  0.4597432679179965  0.4753401606267404  0.596954236656863  1.0000
  C   C441      1.0  0.49076247715901183  0.4774955549045934  0.6239276515620018  1.0000
  C   C442      1.0  0.4946538631375332  0.4686428990738009  0.5723090283030116  1.0000
  C   C443      1.0  0.4324827495009133  0.503205340265034  0.5914169803472312  1.0000
  C   C444      1.0  0.42100626958302734  0.45199926734816737  0.6002339483152284  1.0000
  H   H649      1.0  0.46566850582082026  0.482606653727135  0.6430008525808409  1.0000
  H   H650      1.0  0.520498592841912  0.4948481963395525  0.6221247333092534  1.0000
  H   H651      1.0  0.5116518215829092  0.4567824601922658  0.6288376230761994  1.0000
  H   H652      1.0  0.472514266943329  0.4660359433285536  0.5517079734284087  1.0000
  H   H653      1.0  0.5238463189697434  0.4860483247860504  0.5687616456197072  1.0000
  H   H654      1.0  0.5167540713571068  0.4481101130899143  0.5761652311461537  1.0000
  H   H655      1.0  0.46036086336389825  0.5213446603626951  0.5885738027379399  1.0000
  H   H656      1.0  0.40608208860271666  0.5089291466741329  0.6097513864230104  1.0000
  H   H657      1.0  0.40826731205248107  0.5022444791827209  0.5713982160142994  1.0000
  H   H658      1.0  0.4401051871484991  0.4305819418617913  0.6042280254796005  1.0000
  H   H659      1.0  0.3967862496267033  0.44991379858029523  0.5802683863715665  1.0000
  H   H660      1.0  0.3942298752031413  0.45634845774408334  0.6187950794466635  1.0000
  N   N40       1.0  0.5989563906182048  0.08341682269926753  0.5375193206805603  1.0000
  C   C445      1.0  0.6142447315491838  0.10370504532216085  0.5140623638408753  1.0000
  C   C446      1.0  0.6317639557004957  0.05695839767429223  0.5361478862387399  1.0000
  C   C447      1.0  0.5438362221238897  0.07539180075084917  0.5338412821410045  1.0000
  C   C448      1.0  0.6058984389546903  0.09750106717167961  0.5660316898353707  1.0000
  H   H661      1.0  0.5895620579448937  0.12367168445876309  0.513913842614228  1.0000
  H   H662      1.0  0.610809638087818  0.09340633167664691  0.4923223692766958  1.0000
  H   H663      1.0  0.655233873357547  0.11084810351868257  0.516680238394402  1.0000
  H   H664      1.0  0.6211360892380522  0.04112947016577451  0.5535657432852658  1.0000
  H   H665      1.0  0.6273468194926837  0.04576970734841046  0.5148744685693115  1.0000
  H   H666      1.0  0.6736929219131303  0.06214210743696924  0.5387374379463558  1.0000
  H   H667      1.0  0.5372572677197146  0.06466895621577162  0.5126228560796605  1.0000
  H   H668      1.0  0.5176839049898561  0.09471130426487817  0.5347804880689107  1.0000
  H   H669      1.0  0.5312836368348276  0.05991575357439838  0.5510970089189798  1.0000
  H   H670      1.0  0.5941201051611528  0.08278870942121341  0.584119483877004  1.0000
  H   H671      1.0  0.5819793557364069  0.11766428099554394  0.5677389652765874  1.0000
  H   H672      1.0  0.6471644620704953  0.10361127202030862  0.5697557928222756  1.0000
  N   N41       1.0  0.18813617866637355  0.3750850344514341  0.6373057723560757  1.0000
  C   C449      1.0  0.2251045895742232  0.35528691829806275  0.6522757565970528  1.0000
  C   C450      1.0  0.15287375344410314  0.3883647238814141  0.6589377172098799  1.0000
  C   C451      1.0  0.15723900991726492  0.3586701097771304  0.6159357896224955  1.0000
  C   C452      1.0  0.21739445851049388  0.39811399527056585  0.6220508737097167  1.0000
  H   H673      1.0  0.2516024665150107  0.3442165240983738  0.6366812767682343  1.0000
  H   H674      1.0  0.20462029879387167  0.33809044784704856  0.6647951584158638  1.0000
  H   H675      1.0  0.25012095290228653  0.3671996880202178  0.6678812737728117  1.0000
  H   H676      1.0  0.1245120308136598  0.403481377363886  0.648404460849354  1.0000
  H   H677      1.0  0.13016724868537777  0.3716194772377472  0.6709053198666276  1.0000
  H   H678      1.0  0.17478854730912263  0.40111343329791166  0.6753011123279252  1.0000
  H   H679      1.0  0.1287437508574103  0.373001525595684  0.6044034131259745  1.0000
  H   H680      1.0  0.1345938519860641  0.3410947892073459  0.6265815662828415  1.0000
  H   H681      1.0  0.1824895549647807  0.34834236274464603  0.5992470471325315  1.0000
  H   H682      1.0  0.19090215149664203  0.41268317521794623  0.6094244785269302  1.0000
  H   H683      1.0  0.2460641954685021  0.38881375587216965  0.6065071756061563  1.0000
  H   H684      1.0  0.23901499581891628  0.41194077375792837  0.6376601719546959  1.0000
  N   N42       1.0  0.3539261696021333  0.009949349694778453  0.18054925922827306  1.0000
  C   C453      1.0  0.34850982866632985  0.9941530365737312  0.20844394556395565  1.0000
  C   C454      1.0  0.34041284032753305  0.040877399631181754  0.18480013525292374  1.0000
  C   C455      1.0  0.31852075286027176  0.9973224879644749  0.158777226746285  1.0000
  C   C456      1.0  0.4082073502517339  0.007435928176954487  0.17030113745554365  1.0000
  H   H685      1.0  0.3770119499259287  0.0018122956718253924  0.22487935490205102  1.0000
  H   H686      1.0  0.35463985032839745  0.970376622671596  0.20575241292646795  1.0000
  H   H687      1.0  0.30910840040132403  0.9974964458939876  0.21778052434147369  1.0000
  H   H688      1.0  0.345424890962343  0.05376025049490196  0.1644386969075417  1.0000
  H   H689      1.0  0.29941484787423917  0.04362109029031824  0.19221854702717558  1.0000
  H   H690      1.0  0.36541077626888224  0.05077465022289718  0.20168132188745902  1.0000
  H   H691      1.0  0.32115117959201467  0.00887951081587568  0.13751554928446696  1.0000
  H   H692      1.0  0.27728859414634427  0.9984239970105799  0.16613582258233622  1.0000
  H   H693      1.0  0.3276686787797963  0.9739794492548344  0.15494742354584976  1.0000
  H   H694      1.0  0.4357961860397374  0.0168246267666885  0.18628696178329482  1.0000
  H   H695      1.0  0.4140741599712322  0.019236923395919092  0.14934892152190601  1.0000
  H   H696      1.0  0.41987057820454393  0.9843809565603447  0.16699154322264775  1.0000
  N   N43       1.0  0.8124122548631136  0.23963212307943055  0.005544725187398347  1.0000
  C   C457      1.0  0.8402148863621292  0.26571614248371384  0.015563481048020078  1.0000
  C   C458      1.0  0.8242696446701444  0.2345922547447586  0.9745121046964001  1.0000
  C   C459      1.0  0.7557545068375022  0.2439354488216432  0.009159908732580435  1.0000
  C   C460      1.0  0.8294705447924335  0.21416915990851074  0.022923763887953807  1.0000
  H   H697      1.0  0.8324313257087774  0.27014533428866966  0.03895329647752721  1.0000
  H   H698      1.0  0.8282256032559118  0.2854080789956742  0.0030010930159920512  1.0000
  H   H699      1.0  0.8831099591616467  0.26314233971016543  0.01302970483214927  1.0000
  H   H700      1.0  0.8043816346170969  0.21488958967687236  0.9662620880776583  1.0000
  H   H701      1.0  0.8114997243984012  0.2532154405080363  0.9606515594340322  1.0000
  H   H702      1.0  0.8667526496940354  0.23135715751524905  0.9709909287335845  1.0000
  H   H703      1.0  0.7338251272443517  0.22456678041351755  0.0019039834206622253  1.0000
  H   H704      1.0  0.7410537015141444  0.26274086404556696  0.9961293596767443  1.0000
  H   H705      1.0  0.7451017743311478  0.24780399591594066  0.03228571867013019  1.0000
  H   H706      1.0  0.8205851260798145  0.21702460745840232  0.04641921376512004  1.0000
  H   H707      1.0  0.8721658082523385  0.2104379914099992  0.020929899131713503  1.0000
  H   H708      1.0  0.8098392370938814  0.19401244025581726  0.01563466613256792  1.0000
  N   N44       1.0  0.6408480914166051  0.39700232219793713  0.15638690107423894  1.0000
  C   C461      1.0  0.6813508523958598  0.4070883789599872  0.17667624071145097  1.0000
  C   C462      1.0  0.6123836716154634  0.42233236123856227  0.14426653629657712  1.0000
  C   C463      1.0  0.6042148921528198  0.3779734755452808  0.17212713328353496  1.0000
  C   C464      1.0  0.6654908565357773  0.3806920875915028  0.13242333999701245  1.0000
  H   H709      1.0  0.7026541394768527  0.3885880638368371  0.18696177612263867  1.0000
  H   H710      1.0  0.6643653755315823  0.42049392392758084  0.1944491073619321  1.0000
  H   H711      1.0  0.7104580290764536  0.42068039144324343  0.16519600336933077  1.0000
  H   H712      1.0  0.6383032196838677  0.4364458945222428  0.13108938102702425  1.0000
  H   H713      1.0  0.5796271182484578  0.4155384498635835  0.13005194709203802  1.0000
  H   H714      1.0  0.5952355859424412  0.4359264349979416  0.16180700654784919  1.0000
  H   H715      1.0  0.6241544379220225  0.35865661148918543  0.18172437268121908  1.0000
  H   H716      1.0  0.5730027869057861  0.37001935766641497  0.15746611216797365  1.0000
  H   H717      1.0  0.5845997684277779  0.38975839988441946  0.19015971888450625  1.0000
  H   H718      1.0  0.6359017109540819  0.37289143879091674  0.11666235075275677  1.0000
  H   H719      1.0  0.6873587102847666  0.3614114167875931  0.14074744253091812  1.0000
  H   H720      1.0  0.6934762558878569  0.3945021479682986  0.12013126801656815  1.0000
  N   N45       1.0  0.7824713664078419  0.8049827033774088  0.024037909080653952  1.0000
  C   C465      1.0  0.7397372415520429  0.8246830178223932  0.01496338647473805  1.0000
  C   C466      1.0  0.7832371909278815  0.7792245484725919  0.0050484541209336875  1.0000
  C   C467      1.0  0.7741547179486171  0.7957641898438762  0.05451910663841786  1.0000
  C   C468      1.0  0.832675125111581  0.8202390900257694  0.021598645221978074  1.0000
  H   H721      1.0  0.7011251411613445  0.8141463797488153  0.017207751951944017  1.0000
  H   H722      1.0  0.7438775230580003  0.8313142524616796  0.9918278986558361  1.0000
  H   H723      1.0  0.7388833242373501  0.8448216277608072  0.028201752777714528  1.0000
  H   H724      1.0  0.7894879145033148  0.7854737089827792  0.9819003925882993  1.0000
  H   H725      1.0  0.814878887463899  0.7638198613236327  0.011395471579433103  1.0000
  H   H726      1.0  0.7459720735813953  0.7672190535920481  0.006357929727809353  1.0000
  H   H727      1.0  0.8052083506961701  0.7804349652742734  0.06196549890873415  1.0000
  H   H728      1.0  0.7361968171021803  0.7845645085847532  0.05710055698174399  1.0000
  H   H729      1.0  0.7741226268337597  0.8146693316188772  0.0694550887558556  1.0000
  H   H730      1.0  0.865665180581141  0.8061321845611663  0.028832545695166356  1.0000
  H   H731      1.0  0.8331091180764574  0.8402754225384926  0.03500075915851064  1.0000
  H   H732      1.0  0.8406514828620203  0.8270101083951251  0.9987516763493074  1.0000
  N   N46       1.0  0.48157957298783693  0.7519668774450734  0.0524998489635069  1.0000
  C   C469      1.0  0.42821501352545704  0.7434772953870852  0.06075841851672604  1.0000
  C   C470      1.0  0.5193408665654374  0.731368997524462  0.06564970887776389  1.0000
  C   C471      1.0  0.49211270771230353  0.781571829123192  0.06310217512040106  1.0000
  C   C472      1.0  0.48672044098543216  0.7514955698066033  0.02047920886859811  1.0000
  H   H733      1.0  0.4193920146176997  0.7209509758930033  0.05386625971446014  1.0000
  H   H734      1.0  0.3986897518448352  0.7580231437122108  0.05046012444660497  1.0000
  H   H735      1.0  0.4221758099332537  0.7447694743787381  0.08469672385763038  1.0000
  H   H736      1.0  0.5600499375444687  0.7374835224441072  0.06032861612976381  1.0000
  H   H737      1.0  0.5159229194170938  0.7308558898113734  0.08978031420254129  1.0000
  H   H738      1.0  0.513434480919043  0.7089068746214032  0.05761318034607644  1.0000
  H   H739      1.0  0.4894200412619398  0.7827347415424536  0.08721894953147415  1.0000
  H   H740      1.0  0.46352809008316725  0.7975620680140606  0.05419277508158916  1.0000
  H   H741      1.0  0.5316490138401353  0.7889376447281224  0.05658293217414113  1.0000
  H   H742      1.0  0.4791813254922251  0.729541359246163  0.011593403468692866  1.0000
  H   H743      1.0  0.5264149914995967  0.7579760685382226  0.013493464472316141  1.0000
  H   H744      1.0  0.45881850745106345  0.7668386915307353  0.009924627089923366  1.0000
  N   N47       1.0  0.11656496534938432  0.32869256202825686  0.9063889424297539  1.0000
  C   C473      1.0  0.10319671019482723  0.32236565245237503  0.8758140799538264  1.0000
  C   C474      1.0  0.06865908974752188  0.3291823506818112  0.9241553567317359  1.0000
  C   C475      1.0  0.1424667409348912  0.35716089938609885  0.9079812241754233  1.0000
  C   C476      1.0  0.15208176052180122  0.3059046646711429  0.9176358599271162  1.0000
  H   H745      1.0  0.07613556170209579  0.33896350206405235  0.866533951044833  1.0000
  H   H746      1.0  0.08423583115576871  0.300779951802383  0.8738571532611447  1.0000
  H   H747      1.0  0.13853671915507082  0.32195284119545237  0.8618079723272174  1.0000
  H   H748      1.0  0.048667905230844966  0.30782473280022554  0.9236852451656129  1.0000
  H   H749      1.0  0.07735927592094827  0.33396290065527146  0.9473735050664323  1.0000
  H   H750      1.0  0.04064761656389737  0.34597861650755457  0.9162329143509684  1.0000
  H   H751      1.0  0.1531366608612008  0.36249568878348554  0.9308094770954077  1.0000
  H   H752      1.0  0.11681348982468931  0.3749097510304869  0.8996059723172182  1.0000
  H   H753      1.0  0.17886651486854843  0.35737891175362596  0.89482300951878  1.0000
  H   H754      1.0  0.16277191347852105  0.3097615019861367  0.9407623640930328  1.0000
  H   H755      1.0  0.1886849537551485  0.30477281346472224  0.904738028299686  1.0000
  H   H756      1.0  0.1336726433340618  0.2841695637838799  0.9165848616479872  1.0000
  N   N48       1.0  0.5616916215880193  0.05638159787593566  0.3546653818702398  1.0000
  C   C477      1.0  0.5262416628420494  0.07283496240608134  0.33520692237359406  1.0000
  C   C478      1.0  0.5899246303510232  0.0768242394862626  0.37340951423153235  1.0000
  C   C479      1.0  0.5995579843660515  0.03974717204004463  0.3371107368067268  1.0000
  C   C480      1.0  0.5312696264182467  0.036196313252059076  0.37297435344102603  1.0000
  H   H757      1.0  0.5037531496848978  0.05812937649413463  0.32097045354686793  1.0000
  H   H758      1.0  0.5480852256867637  0.08786706053471827  0.32080699172335936  1.0000
  H   H759      1.0  0.4977051129116367  0.0859730453725458  0.3477730928985207  1.0000
  H   H760      1.0  0.6151112399654775  0.06507854283712344  0.3893569300299531  1.0000
  H   H761      1.0  0.6153935231238215  0.09128558224750116  0.36035150236211955  1.0000
  H   H762      1.0  0.5627813113110486  0.09100459895206048  0.38576699132853504  1.0000
  H   H763      1.0  0.6276397471655152  0.027638259173282442  0.3511981955688699  1.0000
  H   H764      1.0  0.6225002451775523  0.05425135283920546  0.32254914432755094  1.0000
  H   H765      1.0  0.5796834933910927  0.023591595501828877  0.3231822686657013  1.0000
  H   H766      1.0  0.55692887604882  0.02353499099671308  0.3880332327655829  1.0000
  H   H767      1.0  0.5095641206908395  0.02039242876777858  0.3593922252398045  1.0000
  H   H768      1.0  0.5023938535838847  0.0480381012863913  0.3865684917486886  1.0000
