data_image0
_chemical_formula_structural       FeSHFeSHFeSFeS4CSCSFeS2FeS2FeSFeS3C2H2CHCH2C3H4C6H4CHNC3HC2H2C2HC6H4SNCH8NC4H5CH8CHNCH5SH2CHCH3CH2NCH3CH2C3H2C2H3CFeH2C2FeCH2CH2C2HCH3CHCNFeS2FeSFeCS2FeS2FeS2FeSFeS3H2C6H4C2HCHC6H5CH12CH2CH2SCHC2H2CH7CH2NCSH4CH6NCHCH2CSHFeSH3FeCHFeS2FeSHSNFeS2FeS2FeSFeS3C6H7CH3C3HCHC4HCNHCH2CSC2H2C2H3C6H2C2H2CNHCSC2HCH4CH2CH6FeCH3SH3CHCH7CHSHCHCH2NHNSH2CHC2HS2H2C2SH4FeCH5FeC2HCHNH3CHSH2SCHCHFeS2FeSHFeSFeS4C6H4C2H2C2H2CH2FeNHCH2CHSC2NC2NC4H6CH2CH2CH2CH3CH5NH2CHCHCHCHCFeH5SHCH2CH4SHSCH4C2H2Fe2SCFeS2HFeSHSFeS2HS3H2S3FeSFeSNFeSFe2H3SHCH2CH2NHFeC2HC2HCH4CH2FeC2H2CHCHC4H4C6H6C4H2CSFeHNHCHCH2CFeSHCSH2SCNH2FeH2SH2CHSHS2CH2C2HCHCH5CSCHC2H3NCSCH4SC6H4C2HCNCH3CFeHCHCH2CSH5NH5CHSH3C2H4SH3SHCSH2C3FeHCH4CHCHCHCH7CHC2H2CHNH2C2HNH5CHSH6C2NH4CH3CSNH2C2FeS2FeSCFeSFeS3HSHSCSFeSHFeSFeS3FeS3HCNH2CFeH4C5H2C7H4C4H4CHC6H6C2HNC4H13C3HFeHCH2SC3H5SHCHCH2C2NCH3CHC2H2FeHCHSH2SC2H4CH2NHCH8FeCNH2C2FeCHCFeH2FeSCHCSHNSH4SH4CHCH2SCHCHSC6H5C3HSHC3H7CHNHNH3SC2FeC2H2CFeH5C2HFeC2S4HSFeHSCSHFeSFeHSHFeH2SFeSNCHSC3H4NHFeCH2C6H3C6H4C4HCH3C2SCH2CH5CHFeC3HSHNHSHCHSNC4H11CH5CHSC2SHSHCHCH2SC2SH2FeH2C2FeHC2FeHSHCHSH9CFeHSHCSHSFeSHFeS2FeHFeS3CHC2SFeS2H2NSH2CHC5H3FeHC2NHC2H2CHC6SH2C4H4CH2SH2CSH3C2HCH4CHCH4C2SH3C2NH2CHFeH2FeNHCHFeSCH6CHCH4CH3C2HSHSFeS2FeS2FeSFeS3FeHSCFeS2C6H4C6H4C6H4C6H8SH2NC4H10NC4H15SH3CH3NH2CSHCHFeH2CH2NFeSCHCHCSHCSFeS2FeSFeSFeHSH4SCHC2H3C3H3C3HC2SCH2SC4HCHSCH6C2H4FeCH2CH5FeNC3HC2H2C2HNCH3CHNCHC2HCHSCH7CH2SH4CSHFeSHSHFeS2FeS2FeSFeS3FeSH3C6H4C6H4C6H10C6H4FeNSHSFeSHCH4CH3C2H3C2H2CH6CH5CHC2HNCH3CHCNSH7NHCH2SNS2H4SHFeHSCS2C6HSH2C6H4FeSNFeCH2FeHNC4H5CH3CH8C2H3CH3FeC2HSH2SCH3CSH4CH2CH3CFeHS2CSFeS2FeSHS2NFe2S3FeCSC2SHC4FeCH4C6H4C6H3C2FeH2CFeC2H2CHCHC3H5SCHCSCSHSHSCHSHCHFeCNC4H12NH2CSH2CSH3SNSH2FeCHNCH2SH3CH5CH2NH2CHC2H5CH4NCH2FeSH3S2CH5CH2CH3C5H2SH2SHNHCH4CH3C2SCHCNFeHSH2CNC2HCHCFeHCH3CH8CSHFeSCFeS2FeCFeSCSHSFeS2FeSHFeSFeS3CFeSNC2H3SC3HCHC7H4C5H4CSCHC3H3C6H4CH5SFeNC4H14CH4CNH2SH3CHC2HSH2NHCHC2HFeS2H2FeH5CHCH2FeSHSFeSH4CFe2SHFeS2HFeH2S2FeSFeCSCSNHCSHC3HSHC6H6CFeHSHC3H2C2HNHC2FeCSHCHCH2CH2CSC3SH2SCNFeCHSH2SC2HC2HCNH2NC4H14SC2H4C3H2CH7CH5C2H2C2SC2HC2S2H7SH3C4HC3HCH3CH2NC4H3FeHFeH2CH4SCSHFeSH4CH2SCFeS2FeSFeCSHFeSCFeS2FeSFeS3HSCHFeSH3C2H3CFeCSNCHCFeHC2SH3C5H3C2HSH2C6H4C2H3C2H7SHSHC2H2CHCHCH2NH2CH4CNC4H12CHCHCH2SCH2FeH4NCH3C3H2SHCHCH2NFeSHFeS2FeSFeS4FeS2HSH2C9HNHSH3C6H4C2H2CH3C2H2CH6CH4CH6CHFeH14NCHC2H2N2HCHC4NHCH4C2HCHCH2CHCHCHCH3FeHS2FeS2FeS2FeSFeS3FeS2FeS2FeSFeS3FeCSHNCHC4H2C7H2CH2C7H6C2H2C3HCH2C6H10NH3NH5CH2NC4H9SCHNH2CHCH2CH3FeCHC3HCH2CHCH7CH3CHC2H8FeS2FeSHFeSCSFeS2FeS2FeSFeHS2FeH4C2HC5H3C7H4SHCH2SCSC3HCH2CHC2H3NC4H17CHCSHCNH5CH2CH2
_chemical_formula_sum              "Fe192 S384 H1536 C960 N96"
_cell_length_a       75.0806
_cell_length_b       75.703
_cell_length_c       34.9099
_cell_angle_alpha    88.9864
_cell_angle_beta     88.5892
_cell_angle_gamma    87.5964

_space_group_name_H-M_alt    "P 1"
_space_group_IT_number       1

loop_
  _space_group_symop_operation_xyz
  'x, y, z'

loop_
  _atom_site_type_symbol
  _atom_site_label
  _atom_site_symmetry_multiplicity
  _atom_site_fract_x
  _atom_site_fract_y
  _atom_site_fract_z
  _atom_site_occupancy
  Fe  Fe1       1.0  0.03736  0.15090  0.25177  1.0000
  S   S1        1.0  0.06041  0.14134  0.21404  1.0000
  H   H1        1.0  0.22564  0.17383  0.08276  1.0000
  Fe  Fe2       1.0  0.03613  0.11513  0.29506  1.0000
  S   S2        1.0  0.05858  0.10289  0.25941  1.0000
  H   H2        1.0  0.32862  0.14607  0.45148  1.0000
  Fe  Fe3       1.0  0.07211  0.12866  0.26668  1.0000
  S   S3        1.0  0.10105  0.12732  0.28553  1.0000
  Fe  Fe4       1.0  0.04508  0.11666  0.20975  1.0000
  S   S4        1.0  0.04249  0.10615  0.15010  1.0000
  S   S5        1.0  0.05036  0.14018  0.30532  1.0000
  S   S6        1.0  0.02134  0.12686  0.24441  1.0000
  S   S7        1.0  0.02356  0.02065  0.03420  1.0000
  C   C1        1.0  0.02706  0.07701  0.18246  1.0000
  S   S8        1.0  0.04080  0.03113  0.43775  1.0000
  C   C2        1.0  0.15930  0.11429  0.17543  1.0000
  S   S9        1.0  0.29180  0.16577  0.46300  1.0000
  Fe  Fe5       1.0  0.22500  0.15145  0.19667  1.0000
  S   S10       1.0  0.20900  0.17375  0.16997  1.0000
  S   S11       1.0  0.23461  0.12709  0.16239  1.0000
  Fe  Fe6       1.0  0.22382  0.16913  0.27684  1.0000
  S   S12       1.0  0.20732  0.19266  0.25426  1.0000
  S   S13       1.0  0.22827  0.16696  0.34220  1.0000
  Fe  Fe7       1.0  0.19168  0.17265  0.22352  1.0000
  S   S14       1.0  0.16185  0.17492  0.21279  1.0000
  Fe  Fe8       1.0  0.22591  0.19174  0.20271  1.0000
  S   S15       1.0  0.23964  0.21399  0.17008  1.0000
  S   S16       1.0  0.20675  0.14921  0.24876  1.0000
  S   S17       1.0  0.24340  0.16933  0.22670  1.0000
  C   C3        1.0  0.22981  0.23540  0.16171  1.0000
  C   C4        1.0  0.21333  0.24068  0.17823  1.0000
  H   H3        1.0  0.04884  0.14520  0.12270  1.0000
  H   H4        1.0  0.02875  0.05109  0.08732  1.0000
  C   C5        1.0  0.24156  0.21274  0.46593  1.0000
  H   H5        1.0  0.20619  0.23153  0.19649  1.0000
  C   C6        1.0  0.01804  0.15579  0.08792  1.0000
  H   H6        1.0  0.25005  0.15385  0.05678  1.0000
  H   H7        1.0  0.27613  0.20895  0.52699  1.0000
  C   C7        1.0  0.24216  0.10773  0.09715  1.0000
  C   C8        1.0  0.23292  0.12266  0.11253  1.0000
  C   C9        1.0  0.22235  0.13333  0.08820  1.0000
  H   H8        1.0  0.34125  0.19163  0.42676  1.0000
  H   H9        1.0  0.01445  0.05422  0.20690  1.0000
  H   H10       1.0  0.25028  0.09927  0.11566  1.0000
  H   H11       1.0  0.21491  0.14467  0.09952  1.0000
  C   C10       1.0  0.27387  0.16615  0.43001  1.0000
  C   C11       1.0  0.25606  0.16459  0.44193  1.0000
  C   C12       1.0  0.24240  0.16490  0.41466  1.0000
  C   C13       1.0  0.24625  0.16676  0.37506  1.0000
  C   C14       1.0  0.26407  0.16840  0.36320  1.0000
  C   C15       1.0  0.27774  0.16807  0.39046  1.0000
  H   H12       1.0  0.25280  0.16282  0.47206  1.0000
  H   H13       1.0  0.22871  0.16346  0.42423  1.0000
  H   H14       1.0  0.26732  0.16980  0.33296  1.0000
  H   H15       1.0  0.29142  0.16921  0.38068  1.0000
  C   C16       1.0  0.02598  0.08188  0.36901  1.0000
  H   H16       1.0  0.02054  0.13705  0.15336  1.0000
  N   N1        1.0  0.02491  0.16190  0.12449  1.0000
  C   C17       1.0  0.18723  0.11091  0.20821  1.0000
  C   C18       1.0  0.26540  0.19371  0.08114  1.0000
  C   C19       1.0  0.03966  0.07017  0.35615  1.0000
  H   H17       1.0  0.26195  0.20374  0.10346  1.0000
  C   C20       1.0  0.26889  0.20723  0.49993  1.0000
  C   C21       1.0  0.03431  0.08473  0.14925  1.0000
  H   H18       1.0  0.24678  0.15880  0.12683  1.0000
  H   H19       1.0  0.26912  0.19284  0.49400  1.0000
  C   C22       1.0  0.03476  0.07541  0.11484  1.0000
  C   C23       1.0  0.23891  0.24749  0.13811  1.0000
  H   H20       1.0  0.04054  0.08128  0.08919  1.0000
  C   C24       1.0  0.11791  0.14033  0.26430  1.0000
  C   C25       1.0  0.11407  0.15310  0.23594  1.0000
  C   C26       1.0  0.12770  0.16350  0.22044  1.0000
  C   C27       1.0  0.14532  0.16124  0.23299  1.0000
  C   C28       1.0  0.14925  0.14828  0.26095  1.0000
  C   C29       1.0  0.13558  0.13790  0.27654  1.0000
  H   H21       1.0  0.10054  0.15515  0.22633  1.0000
  H   H22       1.0  0.12453  0.17350  0.19888  1.0000
  H   H23       1.0  0.16271  0.14651  0.27111  1.0000
  H   H24       1.0  0.13868  0.12811  0.29859  1.0000
  S   S18       1.0  0.02779  0.17975  0.24384  1.0000
  N   N2        1.0  0.17880  0.11614  0.17167  1.0000
  C   C30       1.0  0.18621  0.10474  0.14070  1.0000
  H   H25       1.0  0.15592  0.10047  0.18295  1.0000
  H   H26       1.0  0.15252  0.11809  0.14832  1.0000
  H   H27       1.0  0.18182  0.11917  0.23227  1.0000
  H   H28       1.0  0.18340  0.09060  0.14629  1.0000
  H   H29       1.0  0.20098  0.10563  0.13785  1.0000
  H   H30       1.0  0.18058  0.10865  0.11244  1.0000
  H   H31       1.0  0.25816  0.24121  0.49041  1.0000
  H   H32       1.0  0.26965  0.16463  0.12677  1.0000
  N   N3        1.0  0.07637  0.10578  0.39320  1.0000
  C   C31       1.0  0.07371  0.09829  0.35513  1.0000
  C   C32       1.0  0.06327  0.09853  0.42099  1.0000
  C   C33       1.0  0.07381  0.12523  0.39083  1.0000
  C   C34       1.0  0.09468  0.10107  0.40552  1.0000
  H   H33       1.0  0.08346  0.10325  0.33344  1.0000
  H   H34       1.0  0.06015  0.10192  0.34469  1.0000
  H   H35       1.0  0.07528  0.08361  0.35580  1.0000
  H   H36       1.0  0.06447  0.08381  0.42274  1.0000
  H   H37       1.0  0.06499  0.10367  0.45024  1.0000
  C   C35       1.0  0.33473  0.18019  0.44076  1.0000
  H   H38       1.0  0.05987  0.12919  0.38312  1.0000
  H   H39       1.0  0.08284  0.13104  0.36852  1.0000
  H   H40       1.0  0.07645  0.13148  0.41860  1.0000
  H   H41       1.0  0.09723  0.10651  0.43418  1.0000
  H   H42       1.0  0.10478  0.10639  0.38487  1.0000
  H   H43       1.0  0.09706  0.08646  0.40733  1.0000
  H   H44       1.0  0.22757  0.21824  0.46700  1.0000
  H   H45       1.0  0.02244  0.15542  0.18428  1.0000
  C   C36       1.0  0.01982  0.18081  0.12962  1.0000
  H   H46       1.0  0.24108  0.19859  0.45792  1.0000
  N   N4        1.0  0.25041  0.21466  0.50293  1.0000
  C   C37       1.0  0.02018  0.06008  0.18118  1.0000
  H   H47       1.0  0.27963  0.18946  0.08472  1.0000
  H   H48       1.0  0.23078  0.19459  0.10292  1.0000
  H   H49       1.0  0.25166  0.24354  0.12518  1.0000
  H   H50       1.0  0.32515  0.17505  0.42020  1.0000
  H   H51       1.0  0.24875  0.21962  0.44214  1.0000
  S   S19       1.0  0.02137  0.10258  0.34589  1.0000
  H   H52       1.0  0.02665  0.08412  0.20911  1.0000
  H   H53       1.0  0.02488  0.18912  0.10550  1.0000
  C   C38       1.0  0.25579  0.16999  0.12271  1.0000
  H   H54       1.0  0.26417  0.20050  0.05274  1.0000
  C   C39       1.0  0.02808  0.05836  0.11370  1.0000
  H   H55       1.0  0.15333  0.12298  0.19827  1.0000
  H   H56       1.0  0.18494  0.09685  0.21593  1.0000
  H   H57       1.0  0.17742  0.14365  0.18554  1.0000
  C   C40       1.0  0.25071  0.23358  0.51264  1.0000
  H   H58       1.0  0.05493  0.04598  0.36791  1.0000
  H   H59       1.0  0.04697  0.07311  0.32989  1.0000
  N   N5        1.0  0.25365  0.17855  0.08463  1.0000
  C   C41       1.0  0.02065  0.05073  0.14685  1.0000
  H   H60       1.0  0.02357  0.16338  0.06310  1.0000
  H   H61       1.0  0.04934  0.10210  0.41253  1.0000
  H   H62       1.0  0.25265  0.17950  0.14610  1.0000
  C   C42       1.0  0.23069  0.11440  0.03346  1.0000
  H   H63       1.0  0.20195  0.11249  0.20652  1.0000
  H   H64       1.0  0.02536  0.18587  0.15645  1.0000
  C   C43       1.0  0.04400  0.05470  0.37754  1.0000
  C   C44       1.0  0.03433  0.05043  0.41122  1.0000
  C   C45       1.0  0.23490  0.18491  0.08036  1.0000
  H   H65       1.0  0.32668  0.18521  0.46578  1.0000
  H   H66       1.0  0.27662  0.21366  0.47635  1.0000
  C   C46       1.0  0.01721  0.15141  0.15638  1.0000
  C   C47       1.0  0.24109  0.10363  0.05792  1.0000
  H   H67       1.0  0.24021  0.19068  0.52715  1.0000
  H   H68       1.0  0.27260  0.16062  0.05670  1.0000
  H   H69       1.0  0.05084  0.16653  0.09958  1.0000
  C   C48       1.0  0.18252  0.13475  0.16243  1.0000
  Fe  Fe9       1.0  0.02409  0.01707  0.48356  1.0000
  H   H70       1.0  0.17615  0.13937  0.13540  1.0000
  H   H71       1.0  0.19708  0.13660  0.15908  1.0000
  C   C49       1.0  0.20611  0.25791  0.17142  1.0000
  C   C50       1.0  0.01615  0.07747  0.40238  1.0000
  Fe  Fe10      1.0  0.29331  0.16657  0.52879  1.0000
  C   C51       1.0  0.33859  0.15141  0.47089  1.0000
  H   H72       1.0  0.05015  0.16471  0.15084  1.0000
  H   H73       1.0  0.23698  0.23965  0.51524  1.0000
  C   C52       1.0  0.04455  0.15947  0.12426  1.0000
  H   H74       1.0  0.33117  0.15565  0.49738  1.0000
  H   H75       1.0  0.03761  0.01738  0.35733  1.0000
  C   C53       1.0  0.25849  0.16560  0.05449  1.0000
  C   C54       1.0  0.02017  0.06175  0.42322  1.0000
  H   H76       1.0  0.02171  0.14153  0.08354  1.0000
  C   C55       1.0  0.22131  0.12925  0.04899  1.0000
  H   H77       1.0  0.23280  0.19160  0.05210  1.0000
  H   H78       1.0  0.01459  0.21464  0.22295  1.0000
  H   H79       1.0  0.24836  0.09216  0.04658  1.0000
  C   C56       1.0  0.20027  0.02137  0.85389  1.0000
  H   H80       1.0  0.27293  0.20377  0.75484  1.0000
  C   C57       1.0  0.24979  0.16812  0.73047  1.0000
  N   N6        1.0  0.31198  0.05548  0.84448  1.0000
  Fe  Fe11      1.0  0.28735  0.15369  0.61321  1.0000
  S   S20       1.0  0.30434  0.17454  0.63644  1.0000
  S   S21       1.0  0.26941  0.13671  0.65180  1.0000
  Fe  Fe12      1.0  0.29068  0.19327  0.59499  1.0000
  S   S22       1.0  0.27673  0.21967  0.61002  1.0000
  Fe  Fe13      1.0  0.32318  0.16763  0.58697  1.0000
  C   C58       1.0  0.28167  0.17126  0.72895  1.0000
  S   S23       1.0  0.27236  0.17293  0.57410  1.0000
  S   S24       1.0  0.30709  0.14550  0.56587  1.0000
  Fe  Fe14      1.0  0.22330  0.06594  0.87753  1.0000
  S   S25       1.0  0.25044  0.05847  0.85302  1.0000
  S   S26       1.0  0.19704  0.05818  0.85135  1.0000
  Fe  Fe15      1.0  0.23866  0.08891  0.94023  1.0000
  S   S27       1.0  0.26702  0.08263  0.92014  1.0000
  S   S28       1.0  0.22900  0.11028  0.98346  1.0000
  Fe  Fe16      1.0  0.25737  0.08683  0.85959  1.0000
  S   S29       1.0  0.27741  0.10009  0.81825  1.0000
  Fe  Fe17      1.0  0.25861  0.05459  0.91436  1.0000
  S   S30       1.0  0.27468  0.02844  0.92175  1.0000
  S   S31       1.0  0.22956  0.09489  0.87979  1.0000
  S   S32       1.0  0.23078  0.06037  0.93876  1.0000
  H   H81       1.0  0.25075  0.16031  0.75775  1.0000
  H   H82       1.0  0.29904  0.04202  0.79974  1.0000
  C   C59       1.0  0.27215  0.12620  0.69770  1.0000
  C   C60       1.0  0.25725  0.11885  0.71629  1.0000
  C   C61       1.0  0.25855  0.11087  0.75311  1.0000
  C   C62       1.0  0.27482  0.11009  0.77187  1.0000
  C   C63       1.0  0.28973  0.11744  0.75328  1.0000
  C   C64       1.0  0.28844  0.12541  0.71647  1.0000
  H   H83       1.0  0.24458  0.11928  0.70212  1.0000
  H   H84       1.0  0.24696  0.10526  0.76686  1.0000
  H   H85       1.0  0.30240  0.11691  0.76741  1.0000
  H   H86       1.0  0.30007  0.13086  0.70259  1.0000
  C   C65       1.0  0.28818  0.23772  0.62815  1.0000
  C   C66       1.0  0.30680  0.23756  0.62872  1.0000
  H   H87       1.0  0.11500  0.03845  0.87527  1.0000
  C   C67       1.0  0.26230  0.19394  0.75726  1.0000
  H   H88       1.0  0.31455  0.22616  0.61845  1.0000
  C   C68       1.0  0.32937  0.01452  0.97384  1.0000
  C   C69       1.0  0.32315  0.03976  0.85561  1.0000
  C   C70       1.0  0.30399  0.03557  0.96537  1.0000
  C   C71       1.0  0.29564  0.02353  0.94258  1.0000
  C   C72       1.0  0.32076  0.03105  0.98091  1.0000
  C   C73       1.0  0.18997  0.03643  0.84344  1.0000
  H   H89       1.0  0.12908  0.02470  0.84479  1.0000
  H   H90       1.0  0.28700  0.06135  0.81726  1.0000
  H   H91       1.0  0.31571  0.03091  0.87552  1.0000
  H   H92       1.0  0.29840  0.05785  0.89910  1.0000
  H   H93       1.0  0.26413  0.18045  0.66477  1.0000
  C   C74       1.0  0.26298  0.19002  0.68870  1.0000
  H   H94       1.0  0.25044  0.15845  0.70676  1.0000
  H   H95       1.0  0.29285  0.18046  0.72698  1.0000
  H   H96       1.0  0.31868  0.06951  0.89493  1.0000
  H   H97       1.0  0.28283  0.16353  0.75628  1.0000
  H   H98       1.0  0.31382  0.07871  0.80861  1.0000
  H   H99       1.0  0.28371  0.16175  0.70521  1.0000
  H   H100      1.0  0.25677  0.17147  0.02530  1.0000
  H   H101      1.0  0.21297  0.02282  0.86724  1.0000
  H   H102      1.0  0.24923  0.20142  0.75622  1.0000
  H   H103      1.0  0.32746  0.03182  0.83027  1.0000
  H   H104      1.0  0.32705  0.04038  0.99884  1.0000
  H   H105      1.0  0.29744  0.04825  0.97146  1.0000
  C   C75       1.0  0.16737  0.01723  0.81916  1.0000
  H   H106      1.0  0.18696  0.01683  0.71864  1.0000
  H   H107      1.0  0.29904  0.07801  0.87140  1.0000
  C   C76       1.0  0.30683  0.06567  0.87900  1.0000
  H   H108      1.0  0.26397  0.25300  0.64133  1.0000
  H   H109      1.0  0.33531  0.04350  0.87062  1.0000
  S   S33       1.0  0.31078  0.18820  0.54750  1.0000
  C   C77       1.0  0.31549  0.25229  0.64228  1.0000
  H   H110      1.0  0.16549  0.04582  0.81762  1.0000
  C   C78       1.0  0.17349  0.03424  0.82604  1.0000
  C   C79       1.0  0.27838  0.25272  0.64161  1.0000
  H   H111      1.0  0.24691  0.20628  0.56171  1.0000
  H   H112      1.0  0.15484  0.01154  0.71369  1.0000
  C   C80       1.0  0.29575  0.04977  0.82591  1.0000
  H   H113      1.0  0.10715  0.02812  0.94137  1.0000
  H   H114      1.0  0.21312  0.13762  0.03044  1.0000
  H   H115      1.0  0.01859  0.01792  0.63376  1.0000
  H   H116      1.0  0.25007  0.19762  0.68574  1.0000
  H   H117      1.0  0.26323  0.18741  0.78603  1.0000
  H   H118      1.0  0.17405  0.01047  0.65498  1.0000
  H   H119      1.0  0.23636  0.17491  0.72991  1.0000
  C   C81       1.0  0.14108  0.02240  0.91667  1.0000
  H   H120      1.0  0.28774  0.04129  0.84561  1.0000
  H   H121      1.0  0.27382  0.19951  0.68429  1.0000
  N   N7        1.0  0.26417  0.18084  0.72636  1.0000
  C   C82       1.0  0.32206  0.06678  0.81749  1.0000
  S   S34       1.0  0.02704  0.01630  0.54769  1.0000
  H   H122      1.0  0.15217  0.02224  0.89485  1.0000
  H   H123      1.0  0.13828  0.03643  0.92466  1.0000
  H   H124      1.0  0.32991  0.25204  0.64234  1.0000
  H   H125      1.0  0.32615  0.05955  0.79102  1.0000
  C   C83       1.0  0.11870  0.02450  0.86804  1.0000
  H   H126      1.0  0.03694  0.01504  0.66570  1.0000
  H   H127      1.0  0.10671  0.01864  0.85601  1.0000
  H   H128      1.0  0.33430  0.07146  0.83073  1.0000
  H   H129      1.0  0.01492  0.01498  0.72056  1.0000
  H   H130      1.0  0.15483  0.01580  0.80525  1.0000
  H   H131      1.0  0.25732  0.23538  0.54052  1.0000
  N   N8        1.0  0.12506  0.01434  0.90194  1.0000
  C   C84       1.0  0.11081  0.01446  0.93196  1.0000
  H   H132      1.0  0.14614  0.01513  0.94246  1.0000
  C   C85       1.0  0.24056  0.20505  0.53338  1.0000
  H   H133      1.0  0.22652  0.21025  0.53644  1.0000
  H   H134      1.0  0.20546  0.45069  0.44723  1.0000
  C   C86       1.0  0.05106  0.45622  0.11583  1.0000
  S   S35       1.0  0.05386  0.35950  0.07931  1.0000
  H   H135      1.0  0.05264  0.47792  0.05398  1.0000
  Fe  Fe18      1.0  0.04952  0.38857  0.08957  1.0000
  S   S36       1.0  0.05201  0.40004  0.14842  1.0000
  H   H136      1.0  0.11181  0.49504  0.34360  1.0000
  H   H137      1.0  0.26584  0.32281  0.16266  1.0000
  H   H138      1.0  0.04244  0.42471  0.08684  1.0000
  Fe  Fe19      1.0  0.20214  0.34831  0.06607  1.0000
  C   C87       1.0  0.01880  0.41706  0.14996  1.0000
  H   H139      1.0  0.29308  0.40321  0.51343  1.0000
  Fe  Fe20      1.0  0.21648  0.31357  0.10244  1.0000
  S   S37       1.0  0.24482  0.32027  0.08985  1.0000
  S   S38       1.0  0.20567  0.29166  0.14118  1.0000
  Fe  Fe21      1.0  0.23712  0.34767  0.11029  1.0000
  S   S39       1.0  0.25614  0.36005  0.15162  1.0000
  H   H140      1.0  0.26159  0.31978  0.26889  1.0000
  S   S40       1.0  0.20937  0.34041  0.12620  1.0000
  N   N9        1.0  0.27984  0.50003  0.38926  1.0000
  Fe  Fe22      1.0  0.24758  0.44734  0.40699  1.0000
  S   S41       1.0  0.27161  0.43910  0.44102  1.0000
  S   S42       1.0  0.23405  0.47392  0.42251  1.0000
  Fe  Fe23      1.0  0.25367  0.41609  0.35156  1.0000
  S   S43       1.0  0.27832  0.40582  0.38208  1.0000
  S   S44       1.0  0.23771  0.40306  0.30520  1.0000
  Fe  Fe24      1.0  0.26280  0.41123  0.43715  1.0000
  S   S45       1.0  0.25830  0.39203  0.48790  1.0000
  Fe  Fe25      1.0  0.28537  0.43470  0.38367  1.0000
  S   S46       1.0  0.31340  0.44538  0.38013  1.0000
  S   S47       1.0  0.23764  0.41987  0.40667  1.0000
  S   S48       1.0  0.26182  0.44456  0.34972  1.0000
  C   C88       1.0  0.25075  0.37225  0.19388  1.0000
  C   C89       1.0  0.23311  0.37582  0.20619  1.0000
  C   C90       1.0  0.22947  0.38521  0.24029  1.0000
  C   C91       1.0  0.24333  0.39119  0.26257  1.0000
  C   C92       1.0  0.26098  0.38750  0.25039  1.0000
  C   C93       1.0  0.26464  0.37807  0.21629  1.0000
  H   H141      1.0  0.22227  0.37151  0.18930  1.0000
  H   H142      1.0  0.21577  0.38802  0.24933  1.0000
  H   H143      1.0  0.27180  0.39200  0.26711  1.0000
  H   H144      1.0  0.27833  0.37541  0.20709  1.0000
  H   H145      1.0  0.03353  0.30479  0.04315  1.0000
  H   H146      1.0  0.26048  0.42783  0.52231  1.0000
  H   H147      1.0  0.28099  0.48114  0.34400  1.0000
  C   C94       1.0  0.22530  0.42426  0.51588  1.0000
  H   H148      1.0  0.29368  0.47596  0.40715  1.0000
  H   H149      1.0  0.17572  0.45746  0.47794  1.0000
  H   H150      1.0  0.25430  0.50708  0.41507  1.0000
  C   C95       1.0  0.32146  0.46305  0.35119  1.0000
  C   C96       1.0  0.31322  0.46867  0.31731  1.0000
  C   C97       1.0  0.31986  0.48303  0.29577  1.0000
  H   H151      1.0  0.07306  0.43358  0.07760  1.0000
  C   C98       1.0  0.33660  0.47171  0.36275  1.0000
  H   H152      1.0  0.30188  0.46182  0.30748  1.0000
  C   C99       1.0  0.07711  0.31170  0.05934  1.0000
  C   C100      1.0  0.03580  0.41562  0.16549  1.0000
  C   C101      1.0  0.04026  0.42719  0.19438  1.0000
  C   C102      1.0  0.02804  0.44058  0.20668  1.0000
  H   H153      1.0  0.22565  0.32228  0.22693  1.0000
  C   C103      1.0  0.26854  0.31951  0.19324  1.0000
  N   N10       1.0  0.04996  0.45131  0.07517  1.0000
  H   H154      1.0  0.05337  0.42605  0.20664  1.0000
  C   C104      1.0  0.11968  0.35426  0.03216  1.0000
  H   H155      1.0  0.30653  0.49896  0.36554  1.0000
  H   H156      1.0  0.14377  0.38562  0.07364  1.0000
  C   C105      1.0  0.06782  0.44522  0.06072  1.0000
  S   S49       1.0  0.22981  0.35759  0.05112  1.0000
  C   C106      1.0  0.28410  0.48629  0.41863  1.0000
  C   C107      1.0  0.23160  0.26467  0.13097  1.0000
  H   H157      1.0  0.12821  0.46739  0.36639  1.0000
  H   H158      1.0  0.25692  0.28635  0.19295  1.0000
  C   C108      1.0  0.14107  0.37354  0.05914  1.0000
  C   C109      1.0  0.14941  0.30447  0.15031  1.0000
  H   H159      1.0  0.26761  0.29756  0.25464  1.0000
  H   H160      1.0  0.24214  0.33883  0.22874  1.0000
  H   H161      1.0  0.27300  0.33189  0.20623  1.0000
  C   C110      1.0  0.21223  0.47798  0.44190  1.0000
  C   C111      1.0  0.20621  0.49555  0.44819  1.0000
  C   C112      1.0  0.18927  0.49943  0.46500  1.0000
  C   C113      1.0  0.17826  0.48573  0.47615  1.0000
  C   C114      1.0  0.18421  0.46814  0.46957  1.0000
  C   C115      1.0  0.20106  0.46426  0.45225  1.0000
  H   H162      1.0  0.15805  0.31474  0.07754  1.0000
  H   H163      1.0  0.07068  0.48931  0.40599  1.0000
  C   C116      1.0  0.21517  0.26997  0.14773  1.0000
  C   C117      1.0  0.27177  0.38596  0.52773  1.0000
  H   H164      1.0  0.16054  0.50285  0.35241  1.0000
  H   H165      1.0  0.27195  0.47949  0.42862  1.0000
  C   C118      1.0  0.23820  0.32690  0.21329  1.0000
  N   N11       1.0  0.15612  0.32166  0.13709  1.0000
  H   H166      1.0  0.23870  0.27379  0.11257  1.0000
  C   C119      1.0  0.16770  0.32860  0.16648  1.0000
  S   S50       1.0  0.03288  0.49239  0.22879  1.0000
  C   C120      1.0  0.16650  0.31917  0.10097  1.0000
  C   C121      1.0  0.03743  0.43692  0.07186  1.0000
  H   H167      1.0  0.14150  0.30577  0.17756  1.0000
  C   C122      1.0  0.27195  0.49175  0.35597  1.0000
  H   H168      1.0  0.17264  0.34179  0.15767  1.0000
  H   H169      1.0  0.16045  0.33024  0.19444  1.0000
  H   H170      1.0  0.14076  0.29882  0.12860  1.0000
  H   H171      1.0  0.29556  0.33242  0.52759  1.0000
  C   C123      1.0  0.12472  0.50170  0.34548  1.0000
  H   H172      1.0  0.05995  0.46744  0.11942  1.0000
  H   H173      1.0  0.17260  0.33165  0.09125  1.0000
  C   C124      1.0  0.14040  0.47517  0.36846  1.0000
  H   H174      1.0  0.17757  0.30910  0.10427  1.0000
  H   H175      1.0  0.23513  0.33131  0.18357  1.0000
  H   H176      1.0  0.11256  0.37911  0.05863  1.0000
  H   H177      1.0  0.14868  0.46899  0.39159  1.0000
  H   H178      1.0  0.23432  0.29187  0.20800  1.0000
  H   H179      1.0  0.07762  0.45577  0.06242  1.0000
  Fe  Fe26      1.0  0.03217  0.49657  0.29249  1.0000
  C   C125      1.0  0.04352  0.46676  0.05222  1.0000
  H   H180      1.0  0.24291  0.30041  0.16360  1.0000
  H   H181      1.0  0.13344  0.48929  0.43736  1.0000
  H   H182      1.0  0.24504  0.30328  0.26951  1.0000
  S   S51       1.0  0.15715  0.48992  0.49886  1.0000
  H   H183      1.0  0.26917  0.50155  0.33255  1.0000
  H   H184      1.0  0.34322  0.46734  0.38864  1.0000
  H   H185      1.0  0.21147  0.42915  0.50960  1.0000
  C   C126      1.0  0.04536  0.30779  0.06010  1.0000
  H   H186      1.0  0.16065  0.29466  0.15548  1.0000
  C   C127      1.0  0.33485  0.49186  0.30766  1.0000
  H   H187      1.0  0.23276  0.42319  0.48809  1.0000
  H   H188      1.0  0.17959  0.31958  0.17122  1.0000
  H   H189      1.0  0.14581  0.34764  0.12152  1.0000
  H   H190      1.0  0.12215  0.50911  0.42019  1.0000
  H   H191      1.0  0.05646  0.44492  0.13348  1.0000
  H   H192      1.0  0.07530  0.32499  0.07241  1.0000
  H   H193      1.0  0.04638  0.29790  0.08396  1.0000
  C   C128      1.0  0.14100  0.33443  0.13051  1.0000
  H   H194      1.0  0.19341  0.26187  0.18460  1.0000
  S   S52       1.0  0.05359  0.48753  0.33369  1.0000
  H   H195      1.0  0.25917  0.48555  0.36404  1.0000
  C   C129      1.0  0.25690  0.30815  0.25343  1.0000
  H   H196      1.0  0.27986  0.30957  0.19366  1.0000
  C   C130      1.0  0.29636  0.50871  0.37694  1.0000
  H   H197      1.0  0.03552  0.43347  0.04146  1.0000
  H   H198      1.0  0.03169  0.44963  0.22855  1.0000
  N   N12       1.0  0.25253  0.31292  0.21343  1.0000
  H   H199      1.0  0.31336  0.48729  0.26967  1.0000
  N   N13       1.0  0.13577  0.49393  0.37651  1.0000
  S   S53       1.0  0.20726  0.32089  0.04296  1.0000
  H   H200      1.0  0.02406  0.44063  0.08443  1.0000
  H   H201      1.0  0.13232  0.33006  0.10738  1.0000
  C   C131      1.0  0.34324  0.48607  0.34123  1.0000
  H   H202      1.0  0.13259  0.33636  0.15689  1.0000
  C   C132      1.0  0.24646  0.29719  0.19376  1.0000
  C   C133      1.0  0.15527  0.36165  0.04932  1.0000
  H   H203      1.0  0.31913  0.33389  0.51783  1.0000
  S   S54       1.0  0.17714  0.36649  0.06294  1.0000
  S   S55       1.0  0.07073  0.39611  0.04673  1.0000
  H   H204      1.0  0.03004  0.47159  0.06238  1.0000
  H   H205      1.0  0.16060  0.49863  0.40332  1.0000
  C   C134      1.0  0.15227  0.50378  0.37923  1.0000
  C   C135      1.0  0.12564  0.49510  0.41321  1.0000
  S   S56       1.0  0.02680  0.39225  0.04890  1.0000
  H   H206      1.0  0.13171  0.50071  0.31709  1.0000
  H   H207      1.0  0.21474  0.50626  0.44030  1.0000
  H   H208      1.0  0.24205  0.45355  0.49605  1.0000
  H   H209      1.0  0.11300  0.48798  0.41226  1.0000
  Fe  Fe27      1.0  0.07331  0.36735  0.03282  1.0000
  C   C136      1.0  0.12335  0.36986  0.05071  1.0000
  H   H210      1.0  0.14812  0.47375  0.34098  1.0000
  H   H211      1.0  0.04247  0.32099  0.07302  1.0000
  H   H212      1.0  0.07903  0.30184  0.08301  1.0000
  H   H213      1.0  0.03771  0.46016  0.12832  1.0000
  H   H214      1.0  0.29025  0.49197  0.44406  1.0000
  Fe  Fe28      1.0  0.03293  0.36349  0.03488  1.0000
  C   C137      1.0  0.07346  0.50127  0.38990  1.0000
  C   C138      1.0  0.06609  0.50411  0.35365  1.0000
  H   H215      1.0  0.08970  0.31189  0.04175  1.0000
  C   C139      1.0  0.23490  0.45394  0.52438  1.0000
  H   H216      1.0  0.06636  0.27957  0.04085  1.0000
  N   N14       1.0  0.06175  0.30771  0.03574  1.0000
  H   H217      1.0  0.22132  0.45987  0.51937  1.0000
  H   H218      1.0  0.01518  0.40803  0.12808  1.0000
  H   H219      1.0  0.22472  0.41057  0.52795  1.0000
  C   C140      1.0  0.22382  0.43711  0.57868  1.0000
  H   H220      1.0  0.32972  0.36988  0.91125  1.0000
  S   S57       1.0  0.04976  0.42408  0.96948  1.0000
  H   H221      1.0  0.08037  0.46645  0.81994  1.0000
  H   H222      1.0  0.30071  0.33919  0.83486  1.0000
  S   S58       1.0  0.05263  0.37008  0.98727  1.0000
  C   C141      1.0  0.25239  0.42899  0.54938  1.0000
  H   H223      1.0  0.03953  0.43873  0.76609  1.0000
  C   C142      1.0  0.01370  0.44682  0.87413  1.0000
  H   H224      1.0  0.32885  0.33862  0.60235  1.0000
  Fe  Fe29      1.0  0.30946  0.31095  0.70311  1.0000
  S   S59       1.0  0.28477  0.32877  0.69692  1.0000
  S   S60       1.0  0.31765  0.28555  0.67134  1.0000
  Fe  Fe30      1.0  0.32890  0.33840  0.74957  1.0000
  S   S61       1.0  0.30573  0.35803  0.74539  1.0000
  H   H225      1.0  0.20993  0.44239  0.57417  1.0000
  Fe  Fe31      1.0  0.28855  0.33498  0.75976  1.0000
  S   S62       1.0  0.26578  0.34087  0.80364  1.0000
  Fe  Fe32      1.0  0.30387  0.35037  0.68354  1.0000
  S   S63       1.0  0.30521  0.37047  0.63357  1.0000
  S   S64       1.0  0.31186  0.31555  0.76661  1.0000
  S   S65       1.0  0.32840  0.33236  0.68724  1.0000
  S   S66       1.0  0.25402  0.32012  0.98156  1.0000
  C   C143      1.0  0.26233  0.33447  0.85277  1.0000
  C   C144      1.0  0.24936  0.34385  0.87515  1.0000
  C   C145      1.0  0.24657  0.33970  0.91446  1.0000
  C   C146      1.0  0.25667  0.32599  0.93198  1.0000
  C   C147      1.0  0.26956  0.31655  0.90951  1.0000
  C   C148      1.0  0.27232  0.32067  0.87023  1.0000
  H   H226      1.0  0.24145  0.35449  0.86205  1.0000
  H   H227      1.0  0.23658  0.34709  0.93118  1.0000
  H   H228      1.0  0.27735  0.30581  0.92258  1.0000
  H   H229      1.0  0.28204  0.31302  0.85339  1.0000
  C   C149      1.0  0.29177  0.37627  0.59353  1.0000
  C   C150      1.0  0.29799  0.38875  0.56653  1.0000
  H   H230      1.0  0.23009  0.44593  0.59917  1.0000
  H   H231      1.0  0.02487  0.49745  0.66019  1.0000
  C   C151      1.0  0.27546  0.36861  0.58738  1.0000
  C   C152      1.0  0.02185  0.42261  0.91875  1.0000
  H   H232      1.0  0.31061  0.39473  0.57089  1.0000
  H   H233      1.0  0.27040  0.35910  0.60796  1.0000
  C   C153      1.0  0.31363  0.30334  0.55605  1.0000
  H   H234      1.0  0.25287  0.36757  0.55042  1.0000
  H   H235      1.0  0.27940  0.27881  0.66603  1.0000
  Fe  Fe33      1.0  0.02934  0.49813  0.74434  1.0000
  N   N15       1.0  0.31239  0.32136  0.57180  1.0000
  H   H236      1.0  0.06509  0.47815  0.78875  1.0000
  C   C154      1.0  0.03544  0.43247  0.93320  1.0000
  H   H237      1.0  0.29677  0.33568  0.61417  1.0000
  H   H238      1.0  0.30098  0.29999  0.54246  1.0000
  C   C155      1.0  0.02720  0.45673  0.88883  1.0000
  H   H239      1.0  0.28421  0.36008  0.88058  1.0000
  S   S67       1.0  0.02832  0.49716  0.80876  1.0000
  C   C156      1.0  0.28709  0.26739  0.65565  1.0000
  C   C157      1.0  0.05972  0.32125  0.00496  1.0000
  N   N16       1.0  0.23411  0.43609  0.54209  1.0000
  C   C158      1.0  0.31337  0.37087  0.84350  1.0000
  C   C159      1.0  0.26554  0.37347  0.55472  1.0000
  N   N17       1.0  0.06210  0.45002  0.79200  1.0000
  C   C160      1.0  0.07448  0.44644  0.75921  1.0000
  C   C161      1.0  0.04362  0.45136  0.77831  1.0000
  C   C162      1.0  0.06646  0.46687  0.80963  1.0000
  C   C163      1.0  0.06376  0.43550  0.82075  1.0000
  H   H240      1.0  0.08856  0.44526  0.76843  1.0000
  H   H241      1.0  0.05431  0.43769  0.84548  1.0000
  H   H242      1.0  0.07141  0.43396  0.74482  1.0000
  H   H243      1.0  0.03401  0.45476  0.80199  1.0000
  H   H244      1.0  0.04201  0.46182  0.75575  1.0000
  H   H245      1.0  0.05344  0.28680  0.00036  1.0000
  C   C164      1.0  0.29787  0.32240  0.60109  1.0000
  H   H246      1.0  0.30021  0.31255  0.62467  1.0000
  H   H247      1.0  0.32515  0.36879  0.82377  1.0000
  C   C165      1.0  0.07755  0.49947  0.64977  1.0000
  H   H248      1.0  0.07744  0.43427  0.83235  1.0000
  H   H249      1.0  0.06070  0.42256  0.80833  1.0000
  C   C166      1.0  0.06446  0.50584  0.67618  1.0000
  H   H250      1.0  0.24192  0.46313  0.54277  1.0000
  H   H251      1.0  0.22297  0.42383  0.59271  1.0000
  C   C167      1.0  0.29651  0.35970  0.89784  1.0000
  H   H252      1.0  0.31423  0.38414  0.85634  1.0000
  H   H253      1.0  0.25226  0.41549  0.56260  1.0000
  H   H254      1.0  0.04812  0.31886  0.98673  1.0000
  C   C168      1.0  0.30862  0.33448  0.54086  1.0000
  H   H255      1.0  0.28472  0.31986  0.58876  1.0000
  H   H256      1.0  0.09615  0.50602  0.60376  1.0000
  H   H257      1.0  0.29508  0.34892  0.91973  1.0000
  H   H258      1.0  0.04848  0.45731  0.92919  1.0000
  H   H259      1.0  0.31047  0.32851  0.87613  1.0000
  N   N18       1.0  0.31266  0.35676  0.87327  1.0000
  H   H260      1.0  0.07355  0.45731  0.73723  1.0000
  H   H261      1.0  0.03011  0.49997  0.57235  1.0000
  C   C169      1.0  0.03804  0.44955  0.91809  1.0000
  H   H262      1.0  0.05743  0.46995  0.83462  1.0000
  C   C170      1.0  0.30573  0.26725  0.65596  1.0000
  H   H263      1.0  0.30808  0.34821  0.55203  1.0000
  C   C171      1.0  0.06480  0.29013  0.01846  1.0000
  H   H264      1.0  0.32867  0.34640  0.91929  1.0000
  C   C172      1.0  0.31203  0.33943  0.85471  1.0000
  H   H265      1.0  0.30124  0.37120  0.82567  1.0000
  C   C173      1.0  0.32875  0.35699  0.89676  1.0000
  Fe  Fe34      1.0  0.04830  0.39842  0.00486  1.0000
  H   H266      1.0  0.29671  0.37243  0.91318  1.0000
  H   H267      1.0  0.32438  0.33634  0.83752  1.0000
  H   H268      1.0  0.08126  0.48551  0.64955  1.0000
  H   H269      1.0  0.25955  0.43754  0.56894  1.0000
  H   H270      1.0  0.02918  0.46996  0.87786  1.0000
  S   S68       1.0  0.05439  0.49084  0.70889  1.0000
  H   H271      1.0  0.34111  0.35483  0.87873  1.0000
  C   C174      1.0  0.32944  0.32520  0.58953  1.0000
  H   H272      1.0  0.34070  0.32480  0.56821  1.0000
  H   H273      1.0  0.07192  0.32183  0.98623  1.0000
  C   C175      1.0  0.28808  0.39359  0.53384  1.0000
  H   H274      1.0  0.07708  0.28969  0.99986  1.0000
  H   H275      1.0  0.05737  0.33461  0.01707  1.0000
  H   H276      1.0  0.01970  0.40946  0.93008  1.0000
  H   H277      1.0  0.33279  0.31541  0.61275  1.0000
  S   S69       1.0  0.01498  0.34073  0.02244  1.0000
  H   H278      1.0  0.13120  0.33043  0.00720  1.0000
  S   S70       1.0  0.09756  0.34878  0.02208  1.0000
  C   C176      1.0  0.13389  0.34243  0.02201  1.0000
  H   H279      1.0  0.31634  0.29323  0.57911  1.0000
  H   H280      1.0  0.32459  0.30196  0.53413  1.0000
  H   H281      1.0  0.16246  0.33711  0.02168  1.0000
  H   H282      1.0  0.04257  0.46336  0.02138  1.0000
  C   C177      1.0  0.15161  0.34614  0.03032  1.0000
  C   C178      1.0  0.01334  0.49670  0.64098  1.0000
  H   H283      1.0  0.01489  0.48402  0.62541  1.0000
  H   H284      1.0  0.06743  0.44111  0.03028  1.0000
  Fe  Fe35      1.0  0.23548  0.32961  0.03135  1.0000
  Fe  Fe36      1.0  0.15797  0.68616  0.49003  1.0000
  S   S71       1.0  0.14674  0.71349  0.50474  1.0000
  C   C179      1.0  0.03807  0.67977  0.05773  1.0000
  Fe  Fe37      1.0  0.19128  0.70082  0.45060  1.0000
  S   S72       1.0  0.18243  0.72894  0.46255  1.0000
  S   S73       1.0  0.21419  0.69081  0.41132  1.0000
  H   H285      1.0  0.21571  0.62929  0.42706  1.0000
  Fe  Fe38      1.0  0.15521  0.72133  0.44442  1.0000
  S   S74       1.0  0.13786  0.74023  0.40745  1.0000
  H   H286      1.0  0.29492  0.73350  0.32598  1.0000
  S   S75       1.0  0.16445  0.69389  0.42897  1.0000
  Fe  Fe39      1.0  0.31706  0.71206  0.36570  1.0000
  S   S76       1.0  0.33262  0.73638  0.35290  1.0000
  S   S77       1.0  0.29330  0.71849  0.40559  1.0000
  H   H287      1.0  0.05577  0.69888  0.07973  1.0000
  S   S78       1.0  0.16294  0.58010  0.51402  1.0000
  S   S79       1.0  0.02577  0.53739  0.17719  1.0000
  S   S80       1.0  0.31766  0.70370  0.30428  1.0000
  H   H288      1.0  0.15791  0.75688  0.20749  1.0000
  H   H289      1.0  0.01788  0.75050  0.10333  1.0000
  S   S81       1.0  0.08900  0.72443  0.14170  1.0000
  S   S82       1.0  0.11449  0.56105  0.50242  1.0000
  S   S83       1.0  0.06266  0.74731  0.19991  1.0000
  Fe  Fe40      1.0  0.09208  0.74000  0.19562  1.0000
  S   S84       1.0  0.11110  0.72592  0.23791  1.0000
  Fe  Fe41      1.0  0.06021  0.73364  0.14327  1.0000
  S   S85       1.0  0.03458  0.71858  0.13812  1.0000
  N   N19       1.0  0.19009  0.64211  0.41744  1.0000
  Fe  Fe42      1.0  0.01808  0.51885  0.22571  1.0000
  S   S86       1.0  0.10377  0.54407  0.40064  1.0000
  Fe  Fe43      1.0  0.11682  0.54005  0.45790  1.0000
  Fe  Fe44      1.0  0.14296  0.51711  0.50332  1.0000
  H   H290      1.0  0.12423  0.73449  0.15232  1.0000
  H   H291      1.0  0.20926  0.63033  0.37773  1.0000
  H   H292      1.0  0.17216  0.72643  0.12861  1.0000
  S   S87       1.0  0.14677  0.53827  0.45850  1.0000
  H   H293      1.0  0.17990  0.74072  0.16475  1.0000
  C   C180      1.0  0.08423  0.51392  0.40559  1.0000
  H   H294      1.0  0.02610  0.62186  0.11706  1.0000
  H   H295      1.0  0.02658  0.65942  0.14783  1.0000
  C   C181      1.0  0.08830  0.52913  0.38441  1.0000
  H   H296      1.0  0.08381  0.54383  0.33183  1.0000
  H   H297      1.0  0.18489  0.51302  0.47000  1.0000
  N   N20       1.0  0.28057  0.75852  0.32724  1.0000
  H   H298      1.0  0.32926  0.69960  0.12891  1.0000
  Fe  Fe45      1.0  0.33459  0.72708  0.29175  1.0000
  C   C182      1.0  0.02990  0.70091  0.10760  1.0000
  C   C183      1.0  0.06954  0.51967  0.33315  1.0000
  H   H299      1.0  0.14833  0.73621  0.22100  1.0000
  C   C184      1.0  0.02093  0.67292  0.05958  1.0000
  C   C185      1.0  0.01494  0.62067  0.19076  1.0000
  H   H300      1.0  0.19823  0.66365  0.45129  1.0000
  C   C186      1.0  0.04256  0.69369  0.08160  1.0000
  H   H301      1.0  0.02120  0.74920  0.17368  1.0000
  H   H302      1.0  0.17014  0.72017  0.17840  1.0000
  H   H303      1.0  0.27144  0.73202  0.33346  1.0000
  H   H304      1.0  0.27237  0.51976  0.43087  1.0000
  C   C187      1.0  0.14715  0.63944  0.50392  1.0000
  H   H305      1.0  0.30252  0.51539  0.40115  1.0000
  H   H306      1.0  0.13968  0.72290  0.12123  1.0000
  Fe  Fe46      1.0  0.34329  0.68870  0.31819  1.0000
  C   C188      1.0  0.14010  0.60850  0.49469  1.0000
  C   C189      1.0  0.13547  0.62671  0.49180  1.0000
  H   H307      1.0  0.13766  0.71659  0.17134  1.0000
  H   H308      1.0  0.02761  0.61285  0.18520  1.0000
  C   C190      1.0  0.11904  0.74859  0.34193  1.0000
  H   H309      1.0  0.12287  0.63098  0.47954  1.0000
  C   C191      1.0  0.13040  0.73600  0.36039  1.0000
  H   H310      1.0  0.18834  0.66603  0.38334  1.0000
  C   C192      1.0  0.11287  0.74575  0.30466  1.0000
  C   C193      1.0  0.11804  0.73026  0.28528  1.0000
  C   C194      1.0  0.12950  0.71776  0.30363  1.0000
  C   C195      1.0  0.13560  0.72056  0.34090  1.0000
  H   H311      1.0  0.21641  0.64983  0.40062  1.0000
  H   H312      1.0  0.27341  0.75312  0.38628  1.0000
  H   H313      1.0  0.13359  0.70572  0.28903  1.0000
  H   H314      1.0  0.14431  0.71074  0.35457  1.0000
  C   C196      1.0  0.23603  0.69892  0.40962  1.0000
  C   C197      1.0  0.24854  0.69205  0.38251  1.0000
  C   C198      1.0  0.26614  0.69790  0.38070  1.0000
  C   C199      1.0  0.27139  0.71062  0.40622  1.0000
  C   C200      1.0  0.25883  0.71760  0.43304  1.0000
  C   C201      1.0  0.24123  0.71181  0.43475  1.0000
  H   H315      1.0  0.24464  0.68206  0.36296  1.0000
  H   H316      1.0  0.27568  0.69239  0.35997  1.0000
  H   H317      1.0  0.26277  0.72741  0.45297  1.0000
  H   H318      1.0  0.23176  0.71716  0.45582  1.0000
  H   H319      1.0  0.31552  0.68642  0.18794  1.0000
  H   H320      1.0  0.13116  0.59889  0.48443  1.0000
  C   C202      1.0  0.02766  0.64794  0.16823  1.0000
  C   C203      1.0  0.18019  0.62574  0.42310  1.0000
  C   C204      1.0  0.16330  0.63373  0.52006  1.0000
  C   C205      1.0  0.16923  0.73159  0.15788  1.0000
  H   H321      1.0  0.13449  0.75387  0.20221  1.0000
  H   H322      1.0  0.28044  0.73748  0.28649  1.0000
  C   C206      1.0  0.08079  0.53204  0.34832  1.0000
  S   S88       1.0  0.11771  0.74846  0.06515  1.0000
  Fe  Fe47      1.0  0.09462  0.74987  0.10958  1.0000
  H   H323      1.0  0.10410  0.75552  0.29101  1.0000
  N   N21       1.0  0.34285  0.69363  0.18146  1.0000
  H   H324      1.0  0.04792  0.67433  0.03758  1.0000
  C   C207      1.0  0.15641  0.60283  0.51018  1.0000
  H   H325      1.0  0.06393  0.52195  0.30514  1.0000
  C   C208      1.0  0.20869  0.63764  0.40512  1.0000
  H   H326      1.0  0.15300  0.75110  0.10246  1.0000
  H   H327      1.0  0.26338  0.52382  0.38407  1.0000
  C   C209      1.0  0.14797  0.74723  0.19938  1.0000
  Fe  Fe48      1.0  0.17466  0.71907  0.52219  1.0000
  S   S89       1.0  0.18545  0.69113  0.51103  1.0000
  H   H328      1.0  0.14810  0.75285  0.48045  1.0000
  C   C210      1.0  0.13774  0.72803  0.15081  1.0000
  S   S90       1.0  0.11287  0.51775  0.49997  1.0000
  H   H329      1.0  0.17641  0.65634  0.46277  1.0000
  H   H330      1.0  0.17987  0.61808  0.39626  1.0000
  S   S91       1.0  0.34234  0.51023  0.28020  1.0000
  C   C211      1.0  0.19012  0.65174  0.45385  1.0000
  N   N22       1.0  0.15142  0.74064  0.16014  1.0000
  H   H331      1.0  0.33920  0.66950  0.15147  1.0000
  H   H332      1.0  0.16611  0.62877  0.43246  1.0000
  Fe  Fe49      1.0  0.14409  0.55754  0.50688  1.0000
  H   H333      1.0  0.02769  0.65333  0.19769  1.0000
  H   H334      1.0  0.19578  0.64335  0.47742  1.0000
  S   S92       1.0  0.34125  0.69486  0.38116  1.0000
  H   H335      1.0  0.18128  0.64668  0.35978  1.0000
  H   H336      1.0  0.04087  0.64113  0.16261  1.0000
  C   C212      1.0  0.18136  0.65341  0.38782  1.0000
  H   H337      1.0  0.14917  0.51807  0.38450  1.0000
  S   S93       1.0  0.01972  0.52399  0.28886  1.0000
  H   H338      1.0  0.18627  0.61694  0.44556  1.0000
  S   S94       1.0  0.32391  0.74345  0.24022  1.0000
  S   S95       1.0  0.14069  0.66218  0.49933  1.0000
  C   C213      1.0  0.28183  0.73956  0.31774  1.0000
  H   H339      1.0  0.16725  0.65694  0.39618  1.0000
  H   H340      1.0  0.29386  0.51878  0.35384  1.0000
  C   C214      1.0  0.32620  0.69222  0.20460  1.0000
  C   C215      1.0  0.33944  0.70510  0.14747  1.0000
  H   H341      1.0  0.29674  0.75519  0.37712  1.0000
  C   C216      1.0  0.15067  0.75564  0.13243  1.0000
  H   H342      1.0  0.33444  0.71857  0.15593  1.0000
  C   C217      1.0  0.26692  0.51329  0.40555  1.0000
  H   H343      1.0  0.32110  0.70544  0.21456  1.0000
  H   H344      1.0  0.01492  0.62509  0.22099  1.0000
  H   H345      1.0  0.32834  0.68365  0.23050  1.0000
  H   H346      1.0  0.02575  0.56471  0.11954  1.0000
  H   H347      1.0  0.12136  0.51598  0.35042  1.0000
  C   C218      1.0  0.33222  0.75159  0.19497  1.0000
  S   S96       1.0  0.06541  0.75790  0.10698  1.0000
  C   C219      1.0  0.16795  0.61553  0.52291  1.0000
  H   H348      1.0  0.08951  0.51177  0.43384  1.0000
  C   C220      1.0  0.32003  0.75892  0.16838  1.0000
  C   C221      1.0  0.01377  0.56666  0.13710  1.0000
  H   H349      1.0  0.25203  0.75907  0.33369  1.0000
  H   H350      1.0  0.17212  0.64334  0.53079  1.0000
  H   H351      1.0  0.30595  0.75961  0.17583  1.0000
  N   N23       1.0  0.01293  0.63583  0.16367  1.0000
  C   C222      1.0  0.01337  0.62928  0.12407  1.0000
  S   S97       1.0  0.18348  0.73600  0.57243  1.0000
  C   C223      1.0  0.10741  0.73661  0.83164  1.0000
  H   H352      1.0  0.09029  0.60497  0.57235  1.0000
  H   H353      1.0  0.11959  0.75280  0.89314  1.0000
  H   H354      1.0  0.09673  0.74411  0.84794  1.0000
  H   H355      1.0  0.14773  0.74824  0.01254  1.0000
  S   S98       1.0  0.09220  0.54455  0.59314  1.0000
  C   C224      1.0  0.02852  0.51217  0.58962  1.0000
  C   C225      1.0  0.12215  0.61150  0.60173  1.0000
  C   C226      1.0  0.08153  0.52919  0.62409  1.0000
  C   C227      1.0  0.06833  0.53552  0.65029  1.0000
  C   C228      1.0  0.05982  0.52392  0.67618  1.0000
  C   C229      1.0  0.10394  0.59083  0.63699  1.0000
  H   H356      1.0  0.13104  0.73157  0.88827  1.0000
  H   H357      1.0  0.10787  0.59704  0.54055  1.0000
  H   H358      1.0  0.06482  0.54952  0.65094  1.0000
  H   H359      1.0  0.09444  0.58162  0.56663  1.0000
  C   C230      1.0  0.15439  0.74421  0.67278  1.0000
  C   C231      1.0  0.12752  0.58009  0.59430  1.0000
  H   H360      1.0  0.04997  0.52904  0.69671  1.0000
  C   C232      1.0  0.12971  0.74514  0.87560  1.0000
  N   N24       1.0  0.11365  0.59425  0.60044  1.0000
  C   C233      1.0  0.08601  0.51107  0.62373  1.0000
  H   H361      1.0  0.12975  0.61430  0.57462  1.0000
  H   H362      1.0  0.11310  0.59034  0.66161  1.0000
  H   H363      1.0  0.14194  0.74006  0.68552  1.0000
  C   C234      1.0  0.10100  0.59450  0.56862  1.0000
  Fe  Fe50      1.0  0.11279  0.53850  0.54530  1.0000
  H   H364      1.0  0.13766  0.57981  0.61701  1.0000
  C   C235      1.0  0.17596  0.74305  0.61915  1.0000
  H   H365      1.0  0.11209  0.62257  0.60581  1.0000
  C   C236      1.0  0.16489  0.75572  0.69310  1.0000
  H   H366      1.0  0.13175  0.61182  0.62548  1.0000
  H   H367      1.0  0.13543  0.73442  0.78160  1.0000
  C   C237      1.0  0.15986  0.73787  0.63621  1.0000
  S   S99       1.0  0.14258  0.53612  0.55257  1.0000
  H   H368      1.0  0.10794  0.72279  0.84316  1.0000
  H   H369      1.0  0.15166  0.72894  0.62134  1.0000
  H   H370      1.0  0.12168  0.56684  0.59415  1.0000
  H   H371      1.0  0.15187  0.74046  0.81430  1.0000
  H   H372      1.0  0.09737  0.57787  0.63660  1.0000
  N   N25       1.0  0.12479  0.74485  0.83484  1.0000
  H   H373      1.0  0.09335  0.60123  0.64267  1.0000
  H   H374      1.0  0.02237  0.52991  0.65487  1.0000
  H   H375      1.0  0.18050  0.61125  0.53534  1.0000
  H   H376      1.0  0.13466  0.58189  0.56639  1.0000
  H   H377      1.0  0.14262  0.75153  0.87922  1.0000
  C   C238      1.0  0.13857  0.73459  0.81263  1.0000
  H   H378      1.0  0.10332  0.73619  0.80123  1.0000
  S   S100      1.0  0.01491  0.54363  0.84355  1.0000
  H   H379      1.0  0.33838  0.75739  0.65827  1.0000
  H   H380      1.0  0.13998  0.72067  0.82321  1.0000
  H   H381      1.0  0.14843  0.74716  0.55019  1.0000
  C   C239      1.0  0.13791  0.75773  0.00144  1.0000
  C   C240      1.0  0.18639  0.75463  0.63938  1.0000
  H   H382      1.0  0.29909  0.75867  0.81894  1.0000
  H   H383      1.0  0.04073  0.51295  0.60698  1.0000
  H   H384      1.0  0.02827  0.52370  0.56936  1.0000
  H   H385      1.0  0.02135  0.57150  0.89517  1.0000
  S   S101      1.0  0.01589  0.65535  0.02905  1.0000
  H   H386      1.0  0.19888  0.75875  0.62671  1.0000
  H   H387      1.0  0.25344  0.75918  0.91094  1.0000
  H   H388      1.0  0.12787  0.75980  0.55591  1.0000
  S   S102      1.0  0.02674  0.98738  0.47927  1.0000
  H   H389      1.0  0.01620  0.93105  0.10573  1.0000
  C   C241      1.0  0.03137  0.82359  0.19160  1.0000
  S   S103      1.0  0.05728  0.79921  0.16838  1.0000
  H   H390      1.0  0.03659  0.83182  0.16864  1.0000
  H   H391      1.0  0.03763  0.84828  0.40194  1.0000
  C   C242      1.0  0.03571  0.93376  0.04132  1.0000
  C   C243      1.0  0.26272  0.76595  0.31737  1.0000
  C   C244      1.0  0.01655  0.82982  0.21372  1.0000
  Fe  Fe51      1.0  0.06912  0.77109  0.16347  1.0000
  H   H392      1.0  0.01650  0.79609  0.13994  1.0000
  C   C245      1.0  0.03933  0.80674  0.19858  1.0000
  H   H393      1.0  0.02358  0.90921  0.09206  1.0000
  H   H394      1.0  0.26129  0.78027  0.32409  1.0000
  H   H395      1.0  0.01850  0.82093  0.32713  1.0000
  H   H396      1.0  0.17270  0.78338  0.50052  1.0000
  C   C246      1.0  0.01432  0.92052  0.08454  1.0000
  H   H397      1.0  0.29394  0.78231  0.31154  1.0000
  C   C247      1.0  0.03254  0.79628  0.22851  1.0000
  H   H398      1.0  0.28220  0.77463  0.37722  1.0000
  C   C248      1.0  0.01495  0.76503  0.10517  1.0000
  H   H399      1.0  0.01643  0.00114  0.29393  1.0000
  C   C249      1.0  0.04078  0.85253  0.37193  1.0000
  H   H400      1.0  0.04060  0.86727  0.37135  1.0000
  H   H401      1.0  0.03878  0.78344  0.23474  1.0000
  H   H402      1.0  0.04598  0.84634  0.29614  1.0000
  H   H403      1.0  0.16077  0.76550  0.13844  1.0000
  H   H404      1.0  0.01743  0.97453  0.33709  1.0000
  H   H405      1.0  0.04184  0.99571  0.33792  1.0000
  H   H406      1.0  0.02285  0.84736  0.28470  1.0000
  C   C250      1.0  0.01762  0.80245  0.25044  1.0000
  H   H407      1.0  0.14654  0.77494  0.46164  1.0000
  C   C251      1.0  0.16795  0.77361  0.52222  1.0000
  C   C252      1.0  0.29441  0.76796  0.30513  1.0000
  H   H408      1.0  0.32294  0.97477  0.07104  1.0000
  H   H409      1.0  0.04602  0.92333  0.04837  1.0000
  C   C253      1.0  0.03261  0.85177  0.30559  1.0000
  H   H410      1.0  0.14419  0.80022  0.50677  1.0000
  N   N26       1.0  0.01457  0.00153  0.35552  1.0000
  H   H411      1.0  0.03271  0.86645  0.30320  1.0000
  H   H412      1.0  0.04165  0.82052  0.33848  1.0000
  C   C254      1.0  0.34397  0.76475  0.12178  1.0000
  C   C255      1.0  0.31674  0.96191  0.06607  1.0000
  H   H413      1.0  0.02779  0.77164  0.10017  1.0000
  N   N27       1.0  0.14830  0.77288  0.52317  1.0000
  H   H414      1.0  0.03743  0.94502  0.06088  1.0000
  H   H415      1.0  0.02483  0.82136  0.37621  1.0000
  H   H416      1.0  0.17438  0.76058  0.51473  1.0000
  H   H417      1.0  0.30547  0.96069  0.08707  1.0000
  H   H418      1.0  0.03208  0.76978  0.16985  1.0000
  C   C256      1.0  0.02828  0.82631  0.34688  1.0000
  H   H419      1.0  0.12758  0.76551  0.48551  1.0000
  S   S104      1.0  0.09879  0.76495  0.16340  1.0000
  H   H420      1.0  0.32689  0.95120  0.07284  1.0000
  H   H421      1.0  0.03830  0.99846  0.38870  1.0000
  H   H422      1.0  0.29079  0.94202  0.04065  1.0000
  H   H423      1.0  0.05463  0.84765  0.36467  1.0000
  H   H424      1.0  0.33033  0.89109  0.04601  1.0000
  H   H425      1.0  0.26021  0.76454  0.28629  1.0000
  C   C257      1.0  0.14234  0.76635  0.48615  1.0000
  C   C258      1.0  0.03394  0.00331  0.35993  1.0000
  N   N28       1.0  0.02787  0.84584  0.34498  1.0000
  H   H426      1.0  0.30804  0.76257  0.31175  1.0000
  H   H427      1.0  0.31624  0.77104  0.11218  1.0000
  H   H428      1.0  0.29288  0.76657  0.27367  1.0000
  H   H429      1.0  0.28577  0.97489  0.03768  1.0000
  C   C259      1.0  0.32582  0.76543  0.13210  1.0000
  H   H430      1.0  0.13732  0.76264  0.13316  1.0000
  H   H431      1.0  0.01402  0.97711  0.38791  1.0000
  H   H432      1.0  0.11491  0.76059  0.35663  1.0000
  C   C260      1.0  0.01886  0.76379  0.17352  1.0000
  S   S105      1.0  0.01421  0.98621  0.08871  1.0000
  N   N29       1.0  0.01751  0.92709  0.04495  1.0000
  H   H433      1.0  0.01331  0.76741  0.20229  1.0000
  H   H434      1.0  0.12547  0.79064  0.53113  1.0000
  C   C261      1.0  0.28331  0.76053  0.36872  1.0000
  C   C262      1.0  0.14030  0.79076  0.52996  1.0000
  Fe  Fe52      1.0  0.11727  0.97057  0.73591  1.0000
  S   S106      1.0  0.09796  0.95500  0.77112  1.0000
  S   S107      1.0  0.11239  0.98303  0.67708  1.0000
  Fe  Fe53      1.0  0.14390  0.97156  0.80149  1.0000
  S   S108      1.0  0.12641  0.95590  0.84177  1.0000
  C   C263      1.0  0.30756  0.77034  0.81521  1.0000
  Fe  Fe54      1.0  0.12216  0.93872  0.79085  1.0000
  S   S109      1.0  0.11932  0.90875  0.79475  1.0000
  Fe  Fe55      1.0  0.10390  0.97321  0.81874  1.0000
  S   S110      1.0  0.08268  0.99038  0.84829  1.0000
  S   S111      1.0  0.14121  0.95317  0.75186  1.0000
  S   S112      1.0  0.12175  0.98995  0.78236  1.0000
  H   H435      1.0  0.33619  0.95108  0.00425  1.0000
  S   S113      1.0  0.04256  0.96807  0.58381  1.0000
  H   H436      1.0  0.30361  0.98852  0.02163  1.0000
  S   S114      1.0  0.32673  0.81278  0.01934  1.0000
  C   C264      1.0  0.26643  0.78171  0.93292  1.0000
  S   S115      1.0  0.19411  0.79659  0.78686  1.0000
  Fe  Fe56      1.0  0.15748  0.79108  0.86782  1.0000
  S   S116      1.0  0.18150  0.80734  0.87583  1.0000
  H   H437      1.0  0.28152  0.79575  0.80716  1.0000
  Fe  Fe57      1.0  0.17664  0.81777  0.81593  1.0000
  S   S117      1.0  0.18003  0.84733  0.80588  1.0000
  Fe  Fe58      1.0  0.19735  0.78539  0.84679  1.0000
  S   S118      1.0  0.22315  0.77246  0.86923  1.0000
  S   S119      1.0  0.15165  0.80306  0.80959  1.0000
  S   S120      1.0  0.32494  0.77510  0.97322  1.0000
  Fe  Fe59      1.0  0.31225  0.80257  0.96861  1.0000
  S   S121      1.0  0.28322  0.81131  0.95831  1.0000
  S   S122      1.0  0.13266  0.79073  0.90756  1.0000
  S   S123      1.0  0.15716  0.76327  0.73932  1.0000
  H   H438      1.0  0.18986  0.99919  0.75312  1.0000
  C   C265      1.0  0.30432  0.00707  0.93517  1.0000
  N   N30       1.0  0.30217  0.78429  0.84273  1.0000
  H   H439      1.0  0.13468  0.98783  0.91563  1.0000
  H   H440      1.0  0.01778  0.91720  0.98766  1.0000
  C   C266      1.0  0.32622  0.96210  0.99956  1.0000
  Fe  Fe60      1.0  0.16923  0.78084  0.78481  1.0000
  H   H441      1.0  0.32169  0.76564  0.81940  1.0000
  H   H442      1.0  0.16988  0.96500  0.69514  1.0000
  H   H443      1.0  0.27680  0.77381  0.94683  1.0000
  H   H444      1.0  0.29294  0.97503  0.98814  1.0000
  C   C267      1.0  0.18096  0.76089  0.67601  1.0000
  C   C268      1.0  0.23916  0.78347  0.89559  1.0000
  C   C269      1.0  0.26621  0.80014  0.93527  1.0000
  C   C270      1.0  0.25211  0.81014  0.91861  1.0000
  C   C271      1.0  0.23867  0.80188  0.89881  1.0000
  H   H445      1.0  0.25168  0.82440  0.92065  1.0000
  H   H446      1.0  0.22803  0.80976  0.88574  1.0000
  C   C272      1.0  0.05206  0.99226  0.94488  1.0000
  C   C273      1.0  0.09248  0.97923  0.65248  1.0000
  C   C274      1.0  0.08250  0.96438  0.66071  1.0000
  C   C275      1.0  0.06740  0.96112  0.63915  1.0000
  C   C276      1.0  0.06179  0.97287  0.60979  1.0000
  C   C277      1.0  0.07149  0.98798  0.60214  1.0000
  C   C278      1.0  0.08689  0.99101  0.62308  1.0000
  H   H447      1.0  0.08672  0.95511  0.68296  1.0000
  H   H448      1.0  0.06006  0.94935  0.64520  1.0000
  H   H449      1.0  0.20230  0.99283  0.85510  1.0000
  H   H450      1.0  0.30987  0.81031  0.85720  1.0000
  C   C279      1.0  0.05945  0.97865  0.96772  1.0000
  C   C280      1.0  0.07399  0.96824  0.95355  1.0000
  C   C281      1.0  0.08108  0.97142  0.91650  1.0000
  C   C282      1.0  0.07368  0.98510  0.89377  1.0000
  H   H451      1.0  0.05352  0.00617  0.89063  1.0000
  H   H452      1.0  0.13639  0.76956  0.82087  1.0000
  H   H453      1.0  0.07974  0.95771  0.97121  1.0000
  H   H454      1.0  0.09226  0.96336  0.90564  1.0000
  C   C283      1.0  0.32121  0.00268  0.95023  1.0000
  H   H455      1.0  0.02042  0.97494  0.71481  1.0000
  C   C284      1.0  0.13664  0.89204  0.79557  1.0000
  C   C285      1.0  0.13230  0.87430  0.79095  1.0000
  C   C286      1.0  0.14547  0.86049  0.79336  1.0000
  C   C287      1.0  0.16311  0.86427  0.80085  1.0000
  C   C288      1.0  0.16749  0.88202  0.80495  1.0000
  C   C289      1.0  0.15435  0.89584  0.80234  1.0000
  H   H456      1.0  0.11867  0.87125  0.78532  1.0000
  H   H457      1.0  0.14203  0.84695  0.78914  1.0000
  H   H458      1.0  0.18113  0.88509  0.81047  1.0000
  H   H459      1.0  0.15789  0.90940  0.80599  1.0000
  H   H460      1.0  0.03864  0.93874  0.01170  1.0000
  H   H461      1.0  0.31222  0.93233  0.02691  1.0000
  C   C290      1.0  0.05924  0.99553  0.90810  1.0000
  C   C291      1.0  0.17766  0.00218  0.82980  1.0000
  H   H462      1.0  0.11770  0.98939  0.88041  1.0000
  N   N31       1.0  0.13137  0.84795  0.90431  1.0000
  C   C292      1.0  0.14921  0.83959  0.89687  1.0000
  C   C293      1.0  0.12540  0.84350  0.94385  1.0000
  C   C294      1.0  0.11867  0.84120  0.87696  1.0000
  C   C295      1.0  0.13228  0.86735  0.89956  1.0000
  H   H463      1.0  0.15938  0.84472  0.91601  1.0000
  H   H464      1.0  0.15392  0.84206  0.86687  1.0000
  H   H465      1.0  0.14905  0.82503  0.90141  1.0000
  H   H466      1.0  0.11200  0.84965  0.95063  1.0000
  H   H467      1.0  0.12455  0.82890  0.94808  1.0000
  H   H468      1.0  0.13484  0.84814  0.96524  1.0000
  H   H469      1.0  0.12272  0.84437  0.84686  1.0000
  H   H470      1.0  0.10500  0.84710  0.88183  1.0000
  H   H471      1.0  0.11794  0.82654  0.87947  1.0000
  H   H472      1.0  0.11893  0.87414  0.90349  1.0000
  H   H473      1.0  0.13738  0.87106  0.87043  1.0000
  H   H474      1.0  0.14145  0.87292  0.92034  1.0000
  H   H475      1.0  0.10285  0.79146  0.96085  1.0000
  C   C296      1.0  0.11275  0.78210  0.97213  1.0000
  C   C297      1.0  0.15823  0.99723  0.71841  1.0000
  C   C298      1.0  0.14163  0.76695  0.96680  1.0000
  H   H476      1.0  0.30637  0.77522  0.78513  1.0000
  Fe  Fe61      1.0  0.02698  0.98683  0.54384  1.0000
  H   H477      1.0  0.33313  0.97466  0.00345  1.0000
  C   C299      1.0  0.25308  0.77344  0.91286  1.0000
  H   H478      1.0  0.17924  0.96962  0.74055  1.0000
  H   H479      1.0  0.03468  1.00000  0.62727  1.0000
  S   S124      1.0  0.33238  0.81238  0.92518  1.0000
  C   C300      1.0  0.10909  0.77298  0.00692  1.0000
  C   C301      1.0  0.28343  0.79027  0.83660  1.0000
  C   C302      1.0  0.34243  0.88773  0.02982  1.0000
  H   H480      1.0  0.32806  0.79545  0.84309  1.0000
  H   H481      1.0  0.14007  0.99526  0.86783  1.0000
  H   H482      1.0  0.14702  0.76517  0.58277  1.0000
  H   H483      1.0  0.31765  0.77179  0.88737  1.0000
  H   H484      1.0  0.20331  0.99917  0.71003  1.0000
  S   S125      1.0  0.17095  0.98044  0.82057  1.0000
  H   H485      1.0  0.09455  0.00249  0.61636  1.0000
  C   C303      1.0  0.17981  0.97306  0.70936  1.0000
  H   H486      1.0  0.32809  0.99037  0.94280  1.0000
  C   C304      1.0  0.12960  0.99591  0.89098  1.0000
  H   H487      1.0  0.27415  0.77928  0.84101  1.0000
  H   H488      1.0  0.03803  0.99036  0.71216  1.0000
  C   C305      1.0  0.30390  0.77709  0.88209  1.0000
  C   C306      1.0  0.31387  0.79940  0.83733  1.0000
  N   N32       1.0  0.01623  0.99646  0.67450  1.0000
  C   C307      1.0  0.12904  0.77918  0.95188  1.0000
  H   H489      1.0  0.11491  0.00652  0.95765  1.0000
  H   H490      1.0  0.30085  0.78748  0.90366  1.0000
  H   H491      1.0  0.15423  0.76453  0.95168  1.0000
  C   C308      1.0  0.19415  0.00437  0.84701  1.0000
  H   H492      1.0  0.18925  0.76971  0.69103  1.0000
  C   C309      1.0  0.12343  0.76315  0.81940  1.0000
  C   C310      1.0  0.02708  0.00788  0.64926  1.0000
  H   H493      1.0  0.04085  0.00033  0.95560  1.0000
  H   H494      1.0  0.32223  0.96152  0.96917  1.0000
  Fe  Fe62      1.0  0.02604  0.99105  0.03003  1.0000
  H   H495      1.0  0.34262  0.76526  0.70536  1.0000
  C   C311      1.0  0.14261  0.76077  0.55438  1.0000
  H   H496      1.0  0.29478  0.76609  0.88778  1.0000
  S   S126      1.0  0.05074  0.97455  0.01406  1.0000
  H   H497      1.0  0.19329  0.96877  0.69826  1.0000
  H   H498      1.0  0.02538  0.90144  0.02349  1.0000
  S   S127      1.0  0.17362  0.76818  0.84308  1.0000
  C   C312      1.0  0.17667  0.99612  0.66099  1.0000
  C   C313      1.0  0.02810  0.98361  0.69501  1.0000
  H   H499      1.0  0.33520  0.78053  0.66841  1.0000
  H   H500      1.0  0.31329  0.80494  0.80767  1.0000
  H   H501      1.0  0.06739  0.99710  0.57952  1.0000
  H   H502      1.0  0.29810  0.99781  0.91698  1.0000
  C   C314      1.0  0.18966  0.00231  0.72181  1.0000
  H   H503      1.0  0.14767  0.98969  0.70496  1.0000
  H   H504      1.0  0.03572  0.97488  0.67453  1.0000
  N   N33       1.0  0.17612  0.99219  0.70262  1.0000
  H   H505      1.0  0.27905  0.80082  0.85707  1.0000
  C   C315      1.0  0.34383  0.76851  0.67419  1.0000
  H   H506      1.0  0.11976  0.76353  0.78866  1.0000
  H   H507      1.0  0.15743  0.99455  0.74976  1.0000
  H   H508      1.0  0.09650  0.77538  0.02210  1.0000
  H   H509      1.0  0.33511  0.86080  0.02004  1.0000
  H   H510      1.0  0.14470  0.79605  0.55762  1.0000
  H   H511      1.0  0.29801  0.94217  0.99110  1.0000
  H   H512      1.0  0.09846  0.00870  0.92136  1.0000
  H   H513      1.0  0.16634  0.98885  0.64597  1.0000
  Fe  Fe63      1.0  0.34091  0.78590  0.02126  1.0000
  C   C316      1.0  0.29766  0.97541  0.01810  1.0000
  N   N34       1.0  0.31075  0.96075  0.02620  1.0000
  H   H514      1.0  0.18988  0.99225  0.64787  1.0000
  H   H515      1.0  0.11349  0.77149  0.83590  1.0000
  C   C317      1.0  0.34511  0.87052  0.01516  1.0000
  C   C318      1.0  0.30252  0.94358  0.02099  1.0000
  Fe  Fe64      1.0  0.34591  0.78551  0.93160  1.0000
  C   C319      1.0  0.12164  0.76067  0.02178  1.0000
  H   H516      1.0  0.17312  0.77714  0.55064  1.0000
  C   C320      1.0  0.01560  0.91257  0.01782  1.0000
  Fe  Fe65      1.0  0.48222  0.10797  0.50659  1.0000
  H   H517      1.0  0.35312  0.17764  0.50726  1.0000
  H   H518      1.0  0.54379  0.16545  0.48062  1.0000
  Fe  Fe66      1.0  0.49684  0.02492  0.29353  1.0000
  S   S128      1.0  0.48125  0.04866  0.31909  1.0000
  C   C321      1.0  0.52081  0.13954  0.48813  1.0000
  H   H519      1.0  0.54125  0.03202  0.18129  1.0000
  C   C322      1.0  0.53296  0.14423  0.42441  1.0000
  S   S129      1.0  0.58552  0.04665  0.08116  1.0000
  H   H520      1.0  0.45205  0.01300  0.46365  1.0000
  N   N35       1.0  0.52204  0.15232  0.45580  1.0000
  S   S130      1.0  0.50107  0.09216  0.46651  1.0000
  H   H521      1.0  0.60166  0.25738  0.51657  1.0000
  H   H522      1.0  0.51441  0.12725  0.47954  1.0000
  H   H523      1.0  0.52212  0.17509  0.49177  1.0000
  H   H524      1.0  0.36550  0.17069  0.40407  1.0000
  S   S131      1.0  0.46882  0.13415  0.49093  1.0000
  H   H525      1.0  0.60348  0.02084  0.13279  1.0000
  H   H526      1.0  0.49533  0.16300  0.46518  1.0000
  H   H527      1.0  0.54673  0.14066  0.43379  1.0000
  H   H528      1.0  0.49146  0.03113  0.41448  1.0000
  C   C323      1.0  0.56603  0.01745  0.19042  1.0000
  H   H529      1.0  0.44397  0.01471  0.05726  1.0000
  C   C324      1.0  0.67230  0.25673  0.48997  1.0000
  H   H530      1.0  0.49726  0.14506  0.43206  1.0000
  H   H531      1.0  0.51273  0.14525  0.51233  1.0000
  S   S132      1.0  0.64053  0.04570  0.06373  1.0000
  C   C325      1.0  0.36024  0.17361  0.48017  1.0000
  H   H532      1.0  0.37859  0.12095  0.51302  1.0000
  C   C326      1.0  0.53036  0.16848  0.46875  1.0000
  H   H533      1.0  0.36836  0.14930  0.42664  1.0000
  S   S133      1.0  0.50495  0.01973  0.23144  1.0000
  C   C327      1.0  0.48708  0.06067  0.35998  1.0000
  C   C328      1.0  0.47400  0.07159  0.37838  1.0000
  C   C329      1.0  0.47794  0.08108  0.41135  1.0000
  C   C330      1.0  0.49515  0.07998  0.42594  1.0000
  C   C331      1.0  0.50825  0.06912  0.40744  1.0000
  C   C332      1.0  0.50425  0.05946  0.37475  1.0000
  H   H534      1.0  0.46071  0.07274  0.36703  1.0000
  H   H535      1.0  0.46774  0.08946  0.42508  1.0000
  H   H536      1.0  0.52163  0.06823  0.41833  1.0000
  H   H537      1.0  0.51451  0.05125  0.36075  1.0000
  H   H538      1.0  0.55235  0.04796  0.12329  1.0000
  C   C333      1.0  0.55477  0.02946  0.17077  1.0000
  C   C334      1.0  0.56112  0.03848  0.13785  1.0000
  C   C335      1.0  0.57871  0.03550  0.12391  1.0000
  H   H539      1.0  0.50432  0.16667  0.41775  1.0000
  S   S134      1.0  0.41634  0.12578  0.50893  1.0000
  H   H540      1.0  0.52706  0.13187  0.41448  1.0000
  C   C336      1.0  0.50395  0.15696  0.44202  1.0000
  C   C337      1.0  0.66608  0.24459  0.12583  1.0000
  C   C338      1.0  0.45872  0.02274  0.39041  1.0000
  H   H541      1.0  0.53185  0.17830  0.44493  1.0000
  H   H542      1.0  0.46719  0.03080  0.46198  1.0000
  H   H543      1.0  0.44453  0.01959  0.39567  1.0000
  H   H544      1.0  0.37102  0.16378  0.48805  1.0000
  H   H545      1.0  0.53401  0.15339  0.39924  1.0000
  H   H546      1.0  0.65774  0.23671  0.10866  1.0000
  H   H547      1.0  0.53417  0.13563  0.49931  1.0000
  C   C339      1.0  0.58993  0.02330  0.14322  1.0000
  H   H548      1.0  0.54993  0.03371  0.05633  1.0000
  N   N36       1.0  0.34796  0.16627  0.45262  1.0000
  H   H549      1.0  0.36685  0.18542  0.46808  1.0000
  N   N37       1.0  0.47075  0.01237  0.41603  1.0000
  H   H550      1.0  0.64711  0.24635  0.17331  1.0000
  H   H551      1.0  0.45990  0.03721  0.39421  1.0000
  H   H552      1.0  0.58311  0.01154  0.04566  1.0000
  S   S135      1.0  0.52282  0.01439  0.31640  1.0000
  C   C340      1.0  0.46601  0.01645  0.45635  1.0000
  C   C341      1.0  0.66010  0.25008  0.16262  1.0000
  Fe  Fe67      1.0  0.61178  0.04485  0.04653  1.0000
  C   C342      1.0  0.35825  0.15984  0.41862  1.0000
  C   C343      1.0  0.58363  0.01440  0.17644  1.0000
  H   H553      1.0  0.67500  0.24311  0.50142  1.0000
  H   H554      1.0  0.67344  0.25051  0.41458  1.0000
  C   C344      1.0  0.48938  0.01708  0.40782  1.0000
  Fe  Fe68      1.0  0.44540  0.12512  0.52682  1.0000
  H   H555      1.0  0.46199  0.02010  0.35970  1.0000
  H   H556      1.0  0.65895  0.25697  0.47662  1.0000
  H   H557      1.0  0.34806  0.14034  0.47888  1.0000
  H   H558      1.0  0.49308  0.01523  0.37707  1.0000
  H   H559      1.0  0.34937  0.15416  0.39732  1.0000
  C   C345      1.0  0.38126  0.13196  0.53109  1.0000
  C   C346      1.0  0.36705  0.14097  0.55062  1.0000
  H   H560      1.0  0.39078  0.17138  0.59555  1.0000
  Fe  Fe69      1.0  0.62185  0.04339  0.96145  1.0000
  C   C347      1.0  0.38807  0.16026  0.57780  1.0000
  C   C348      1.0  0.66103  0.01900  0.88643  1.0000
  S   S136      1.0  0.53016  0.02705  0.89487  1.0000
  S   S137      1.0  0.67230  0.19819  0.92499  1.0000
  S   S138      1.0  0.61436  0.06594  0.00013  1.0000
  S   S139      1.0  0.65112  0.04419  0.97167  1.0000
  H   H561      1.0  0.63055  0.18282  0.68156  1.0000
  S   S140      1.0  0.49781  0.03010  0.81304  1.0000
  Fe  Fe70      1.0  0.47972  0.14382  0.54623  1.0000
  H   H562      1.0  0.40715  0.08534  0.67198  1.0000
  S   S141      1.0  0.52027  0.03914  0.70980  1.0000
  C   C349      1.0  0.63463  0.13644  0.00624  1.0000
  S   S142      1.0  0.45510  0.13686  0.58050  1.0000
  H   H563      1.0  0.55667  0.08462  0.82703  1.0000
  Fe  Fe71      1.0  0.46924  0.11043  0.59003  1.0000
  S   S143      1.0  0.46492  0.09781  0.64858  1.0000
  Fe  Fe72      1.0  0.66331  0.22638  0.93604  1.0000
  H   H564      1.0  0.61700  0.22317  0.96461  1.0000
  S   S144      1.0  0.64588  0.24426  0.89711  1.0000
  H   H565      1.0  0.62540  0.19274  0.88365  1.0000
  Fe  Fe73      1.0  0.66288  0.19289  0.98568  1.0000
  H   H566      1.0  0.63448  0.20951  0.91227  1.0000
  H   H567      1.0  0.55152  0.08800  0.77733  1.0000
  S   S145      1.0  0.65282  0.22102  0.99604  1.0000
  Fe  Fe74      1.0  0.56891  0.22880  0.63003  1.0000
  S   S146      1.0  0.56226  0.20091  0.61138  1.0000
  N   N38       1.0  0.60807  0.20251  0.92927  1.0000
  C   C350      1.0  0.59786  0.18629  0.93368  1.0000
  H   H568      1.0  0.64750  0.21317  0.84750  1.0000
  S   S147      1.0  0.59818  0.23234  0.63923  1.0000
  C   C351      1.0  0.63570  0.23941  0.85310  1.0000
  C   C352      1.0  0.63827  0.22300  0.83552  1.0000
  C   C353      1.0  0.41823  0.10198  0.60792  1.0000
  H   H569      1.0  0.61458  0.15476  0.68752  1.0000
  H   H570      1.0  0.52380  0.07620  0.75182  1.0000
  H   H571      1.0  0.53846  0.09946  0.81372  1.0000
  H   H572      1.0  0.40909  0.10366  0.70362  1.0000
  N   N39       1.0  0.60201  0.18067  0.68186  1.0000
  H   H573      1.0  0.60464  0.17657  0.95354  1.0000
  Fe  Fe75      1.0  0.59006  0.24203  0.69795  1.0000
  C   C354      1.0  0.40229  0.15112  0.55871  1.0000
  H   H574      1.0  0.38647  0.12141  0.66617  1.0000
  H   H575      1.0  0.56515  0.03608  0.01656  1.0000
  C   C355      1.0  0.50976  0.17950  0.56806  1.0000
  C   C356      1.0  0.41409  0.09784  0.67616  1.0000
  C   C357      1.0  0.52764  0.20464  0.58418  1.0000
  C   C358      1.0  0.54163  0.19314  0.59576  1.0000
  C   C359      1.0  0.53952  0.17478  0.59363  1.0000
  C   C360      1.0  0.52363  0.16797  0.58022  1.0000
  H   H576      1.0  0.52908  0.21878  0.58542  1.0000
  H   H577      1.0  0.55025  0.16575  0.60245  1.0000
  H   H578      1.0  0.52222  0.15385  0.57895  1.0000
  C   C361      1.0  0.50449  0.05489  0.69215  1.0000
  C   C362      1.0  0.48808  0.05798  0.71114  1.0000
  C   C363      1.0  0.47604  0.07119  0.69745  1.0000
  C   C364      1.0  0.48021  0.08114  0.66437  1.0000
  C   C365      1.0  0.49651  0.07785  0.64505  1.0000
  C   C366      1.0  0.50869  0.06484  0.65912  1.0000
  H   H579      1.0  0.48468  0.05030  0.73651  1.0000
  H   H580      1.0  0.46343  0.07365  0.71245  1.0000
  H   H581      1.0  0.49983  0.08548  0.61956  1.0000
  H   H582      1.0  0.52138  0.06253  0.64435  1.0000
  C   C367      1.0  0.58978  0.03605  0.89918  1.0000
  C   C368      1.0  0.57806  0.04299  0.92734  1.0000
  C   C369      1.0  0.55971  0.04053  0.92508  1.0000
  C   C370      1.0  0.55309  0.03062  0.89547  1.0000
  H   H583      1.0  0.42854  0.09422  0.67954  1.0000
  C   C371      1.0  0.60975  0.21064  0.96713  1.0000
  H   H584      1.0  0.58313  0.05050  0.95052  1.0000
  H   H585      1.0  0.55065  0.04626  0.94642  1.0000
  H   H586      1.0  0.50927  0.06416  0.78280  1.0000
  C   C372      1.0  0.58312  0.02656  0.86895  1.0000
  C   C373      1.0  0.64841  0.14842  0.00196  1.0000
  S   S148      1.0  0.45810  0.09811  0.53828  1.0000
  C   C374      1.0  0.61503  0.24864  0.80231  1.0000
  H   H587      1.0  0.41692  0.11120  0.58297  1.0000
  H   H588      1.0  0.41098  0.08993  0.60135  1.0000
  C   C375      1.0  0.60126  0.17987  0.63965  1.0000
  H   H589      1.0  0.58914  0.17322  0.63052  1.0000
  H   H590      1.0  0.60321  0.16274  0.73014  1.0000
  H   H591      1.0  0.43556  0.12361  0.65315  1.0000
  H   H592      1.0  0.60062  0.19336  0.62639  1.0000
  H   H593      1.0  0.53358  0.02220  0.64000  1.0000
  C   C376      1.0  0.59885  0.21525  0.90311  1.0000
  H   H594      1.0  0.60632  0.22764  0.89967  1.0000
  Fe  Fe76      1.0  0.64619  0.02469  0.01921  1.0000
  C   C377      1.0  0.66609  0.14182  0.00083  1.0000
  C   C378      1.0  0.42100  0.12658  0.65021  1.0000
  C   C379      1.0  0.51190  0.19784  0.57008  1.0000
  H   H595      1.0  0.61911  0.19078  0.72419  1.0000
  S   S149      1.0  0.61274  0.03907  0.90139  1.0000
  H   H596      1.0  0.59770  0.20977  0.87392  1.0000
  N   N40       1.0  0.41135  0.11032  0.64359  1.0000
  H   H597      1.0  0.63300  0.18749  0.93082  1.0000
  S   S150      1.0  0.64291  0.17149  0.99872  1.0000
  H   H598      1.0  0.41936  0.13623  0.62601  1.0000
  C   C380      1.0  0.37038  0.15541  0.57345  1.0000
  H   H599      1.0  0.43261  0.09802  0.60984  1.0000
  S   S151      1.0  0.49459  0.11821  0.55998  1.0000
  N   N41       1.0  0.53329  0.07188  0.80915  1.0000
  C   C381      1.0  0.54322  0.05526  0.79933  1.0000
  C   C382      1.0  0.52583  0.07039  0.84864  1.0000
  C   C383      1.0  0.51866  0.07515  0.78196  1.0000
  C   C384      1.0  0.54553  0.08667  0.80669  1.0000
  H   H600      1.0  0.55481  0.05271  0.81821  1.0000
  H   H601      1.0  0.54822  0.05541  0.76902  1.0000
  H   H602      1.0  0.53456  0.04380  0.80286  1.0000
  H   H603      1.0  0.53649  0.06744  0.86976  1.0000
  H   H604      1.0  0.51843  0.08276  0.85743  1.0000
  H   H605      1.0  0.51639  0.05945  0.85146  1.0000
  H   H606      1.0  0.51076  0.08754  0.78849  1.0000
  H   H607      1.0  0.58521  0.21903  0.91404  1.0000
  H   H608      1.0  0.57348  0.18412  0.68913  1.0000
  H   H609      1.0  0.59648  0.21385  0.98071  1.0000
  H   H610      1.0  0.54189  0.03343  0.00822  1.0000
  C   C385      1.0  0.62891  0.21929  0.80225  1.0000
  H   H611      1.0  0.61314  0.17265  0.62710  1.0000
  H   H612      1.0  0.53042  0.01108  0.59586  1.0000
  H   H613      1.0  0.38438  0.10297  0.63495  1.0000
  H   H614      1.0  0.61726  0.20162  0.98717  1.0000
  H   H615      1.0  0.61806  0.20355  0.68079  1.0000
  C   C386      1.0  0.58597  0.19045  0.69701  1.0000
  H   H616      1.0  0.38968  0.12421  0.61543  1.0000
  S   S152      1.0  0.56091  0.23740  0.68948  1.0000
  C   C387      1.0  0.60264  0.16254  0.69830  1.0000
  C   C388      1.0  0.62599  0.19785  0.91323  1.0000
  S   S153      1.0  0.61718  0.02242  0.00601  1.0000
  H   H617      1.0  0.58615  0.19159  0.72874  1.0000
  S   S154      1.0  0.60516  0.22612  0.74460  1.0000
  H   H618      1.0  0.65075  0.02994  0.88981  1.0000
  C   C389      1.0  0.56482  0.02363  0.86738  1.0000
  H   H619      1.0  0.59061  0.15535  0.69075  1.0000
  C   C390      1.0  0.61726  0.23207  0.78535  1.0000
  H   H620      1.0  0.59658  0.17969  0.90573  1.0000
  H   H621      1.0  0.58504  0.20416  0.68521  1.0000
  S   S155      1.0  0.35301  0.16790  0.59676  1.0000
  C   C391      1.0  0.39212  0.11490  0.63997  1.0000
  C   C392      1.0  0.61817  0.18977  0.69252  1.0000
  S   S156      1.0  0.56545  0.25612  0.60360  1.0000
  H   H622      1.0  0.58422  0.18925  0.94569  1.0000
  H   H623      1.0  0.63087  0.20647  0.78928  1.0000
  Fe  Fe77      1.0  0.51154  0.02136  0.75869  1.0000
  H   H624      1.0  0.67035  0.01985  0.91056  1.0000
  H   H625      1.0  0.41581  0.15527  0.56163  1.0000
  C   C393      1.0  0.63845  0.11806  0.00952  1.0000
  C   C394      1.0  0.55313  0.02905  0.02677  1.0000
  Fe  Fe78      1.0  0.64340  0.06533  0.01441  1.0000
  H   H626      1.0  0.41612  0.13327  0.67680  1.0000
  C   C395      1.0  0.62411  0.25223  0.83611  1.0000
  C   C396      1.0  0.65616  0.11147  0.00897  1.0000
  Fe  Fe79      1.0  0.51927  0.01419  0.84296  1.0000
  H   H627      1.0  0.62774  0.10902  0.01316  1.0000
  S   S157      1.0  0.66186  0.08854  0.01467  1.0000
  H   H628      1.0  0.62091  0.14139  0.00737  1.0000
  C   C397      1.0  0.66992  0.12347  0.00455  1.0000
  H   H629      1.0  0.50131  0.20690  0.56057  1.0000
  S   S158      1.0  0.49014  0.17177  0.54735  1.0000
  H   H630      1.0  0.35353  0.13683  0.54796  1.0000
  H   H631      1.0  0.66873  0.02163  0.85946  1.0000
  H   H632      1.0  0.67684  0.15084  0.99761  1.0000
  H   H633      1.0  0.60609  0.25861  0.78979  1.0000
  H   H634      1.0  0.57399  0.01071  0.97675  1.0000
  H   H635      1.0  0.59217  0.02116  0.84714  1.0000
  H   H636      1.0  0.55986  0.01582  0.84471  1.0000
  H   H637      1.0  0.44818  0.01088  0.98839  1.0000
  H   H638      1.0  0.62976  0.01175  0.85631  1.0000
  C   C398      1.0  0.39893  0.13705  0.53491  1.0000
  Fe  Fe80      1.0  0.65655  0.29167  0.36531  1.0000
  H   H639      1.0  0.67679  0.32302  0.22086  1.0000
  S   S159      1.0  0.63456  0.28018  0.40388  1.0000
  H   H640      1.0  0.43857  0.46798  0.49093  1.0000
  C   C399      1.0  0.60993  0.44915  0.41804  1.0000
  S   S160      1.0  0.67617  0.27150  0.34079  1.0000
  H   H641      1.0  0.65834  0.35952  0.35939  1.0000
  S   S161      1.0  0.64990  0.30215  0.30645  1.0000
  Fe  Fe81      1.0  0.61730  0.48519  0.33265  1.0000
  S   S162      1.0  0.62540  0.49713  0.27565  1.0000
  H   H642      1.0  0.58657  0.46388  0.06921  1.0000
  Fe  Fe82      1.0  0.63439  0.44845  0.31430  1.0000
  S   S163      1.0  0.64352  0.45769  0.25595  1.0000
  S   S164      1.0  0.64033  0.42250  0.34686  1.0000
  Fe  Fe83      1.0  0.65178  0.48240  0.28536  1.0000
  H   H643      1.0  0.63961  0.30835  0.13751  1.0000
  Fe  Fe84      1.0  0.61629  0.47153  0.25163  1.0000
  S   S165      1.0  0.59750  0.46567  0.20317  1.0000
  S   S166      1.0  0.64403  0.47226  0.34358  1.0000
  S   S167      1.0  0.60673  0.46058  0.30874  1.0000
  C   C400      1.0  0.42208  0.50009  0.49693  1.0000
  H   H644      1.0  0.66323  0.30655  0.12705  1.0000
  C   C401      1.0  0.65289  0.30563  0.15030  1.0000
  C   C402      1.0  0.57950  0.49993  0.43798  1.0000
  S   S168      1.0  0.51251  0.48552  0.05653  1.0000
  Fe  Fe85      1.0  0.52089  0.49088  0.50309  1.0000
  S   S169      1.0  0.53425  0.47382  0.45777  1.0000
  S   S170      1.0  0.49106  0.49104  0.50750  1.0000
  H   H645      1.0  0.58264  0.48650  0.05488  1.0000
  H   H646      1.0  0.35484  0.49265  0.35066  1.0000
  N   N42       1.0  0.65604  0.31787  0.18174  1.0000
  S   S171      1.0  0.67703  0.31214  0.37451  1.0000
  H   H647      1.0  0.58806  0.50818  0.45367  1.0000
  H   H648      1.0  0.58862  0.44116  0.47869  1.0000
  C   C403      1.0  0.36628  0.50107  0.13146  1.0000
  H   H649      1.0  0.66096  0.38132  0.24514  1.0000
  C   C404      1.0  0.58478  0.49446  0.40115  1.0000
  C   C405      1.0  0.57400  0.48338  0.38110  1.0000
  C   C406      1.0  0.55818  0.47748  0.39827  1.0000
  C   C407      1.0  0.55301  0.48281  0.43530  1.0000
  C   C408      1.0  0.56357  0.49422  0.45500  1.0000
  H   H650      1.0  0.58185  0.44506  0.37345  1.0000
  H   H651      1.0  0.57783  0.47938  0.35241  1.0000
  H   H652      1.0  0.54995  0.46871  0.38294  1.0000
  Fe  Fe86      1.0  0.52902  0.50937  0.05061  1.0000
  H   H653      1.0  0.50446  0.49370  0.20730  1.0000
  C   C409      1.0  0.58441  0.48026  0.17377  1.0000
  C   C410      1.0  0.58932  0.49751  0.16503  1.0000
  N   N43       1.0  0.59708  0.43489  0.42096  1.0000
  H   H654      1.0  0.55978  0.49805  0.48384  1.0000
  C   C411      1.0  0.55921  0.48447  0.13062  1.0000
  C   C412      1.0  0.56926  0.47385  0.15649  1.0000
  H   H655      1.0  0.61622  0.45141  0.44594  1.0000
  H   H656      1.0  0.65325  0.29163  0.16084  1.0000
  C   C413      1.0  0.63330  0.28809  0.51988  1.0000
  H   H657      1.0  0.66992  0.43393  0.29577  1.0000
  C   C414      1.0  0.66042  0.36834  0.30062  1.0000
  C   C415      1.0  0.65651  0.37059  0.33965  1.0000
  C   C416      1.0  0.65030  0.38723  0.35321  1.0000
  C   C417      1.0  0.64777  0.40176  0.32794  1.0000
  C   C418      1.0  0.65164  0.39952  0.28889  1.0000
  C   C419      1.0  0.65800  0.38292  0.27539  1.0000
  S   S172      1.0  0.42186  0.50953  0.36540  1.0000
  H   H658      1.0  0.59716  0.40712  0.43513  1.0000
  H   H659      1.0  0.64965  0.41052  0.26904  1.0000
  C   C420      1.0  0.45198  0.50897  0.40741  1.0000
  C   C421      1.0  0.62921  0.27942  0.45388  1.0000
  C   C422      1.0  0.63764  0.28970  0.48042  1.0000
  C   C423      1.0  0.55448  0.46736  0.03801  1.0000
  H   H660      1.0  0.64741  0.38881  0.38350  1.0000
  H   H661      1.0  0.65736  0.34578  0.19065  1.0000
  H   H662      1.0  0.64729  0.29905  0.47058  1.0000
  H   H663      1.0  0.36894  0.48707  0.12307  1.0000
  C   C424      1.0  0.60647  0.41816  0.43258  1.0000
  H   H664      1.0  0.61709  0.41419  0.41118  1.0000
  H   H665      1.0  0.64445  0.32454  0.23680  1.0000
  S   S173      1.0  0.46869  0.49847  0.10311  1.0000
  H   H666      1.0  0.45437  0.49573  0.39667  1.0000
  H   H667      1.0  0.62080  0.44602  0.39671  1.0000
  C   C425      1.0  0.64236  0.31561  0.21239  1.0000
  S   S174      1.0  0.60534  0.50095  0.38190  1.0000
  H   H668      1.0  0.45670  0.47215  0.52183  1.0000
  H   H669      1.0  0.39693  0.48713  0.15940  1.0000
  H   H670      1.0  0.45123  0.49486  0.17652  1.0000
  C   C426      1.0  0.61171  0.26636  0.50675  1.0000
  C   C427      1.0  0.36584  0.49293  0.19869  1.0000
  H   H671      1.0  0.67508  0.30022  0.20917  1.0000
  C   C428      1.0  0.58893  0.43265  0.38332  1.0000
  H   H672      1.0  0.64270  0.30177  0.22387  1.0000
  H   H673      1.0  0.64166  0.33986  0.15551  1.0000
  H   H674      1.0  0.62869  0.31858  0.20185  1.0000
  H   H675      1.0  0.61297  0.41939  0.46065  1.0000
  C   C429      1.0  0.65501  0.33634  0.16725  1.0000
  H   H676      1.0  0.57279  0.42934  0.45220  1.0000
  C   C430      1.0  0.61617  0.26783  0.46733  1.0000
  H   H677      1.0  0.66963  0.28139  0.43286  1.0000
  H   H678      1.0  0.57906  0.42208  0.38445  1.0000
  H   H679      1.0  0.36842  0.47871  0.19224  1.0000
  H   H680      1.0  0.60099  0.50260  0.17790  1.0000
  C   C431      1.0  0.56459  0.50145  0.12065  1.0000
  C   C432      1.0  0.57955  0.50796  0.13834  1.0000
  S   S175      1.0  0.66859  0.34779  0.28192  1.0000
  H   H681      1.0  0.53090  0.50735  0.17489  1.0000
  H   H682      1.0  0.59922  0.42896  0.36096  1.0000
  H   H683      1.0  0.47524  0.50785  0.44233  1.0000
  C   C433      1.0  0.58300  0.43957  0.44982  1.0000
  C   C434      1.0  0.67392  0.31392  0.19728  1.0000
  N   N44       1.0  0.43520  0.49184  0.52342  1.0000
  H   H684      1.0  0.56531  0.46054  0.16322  1.0000
  H   H685      1.0  0.60339  0.46190  0.40869  1.0000
  C   C435      1.0  0.44676  0.50749  0.16442  1.0000
  H   H686      1.0  0.57587  0.45228  0.44225  1.0000
  Fe  Fe87      1.0  0.67107  0.28326  0.28239  1.0000
  H   H687      1.0  0.54747  0.47940  0.11816  1.0000
  H   H688      1.0  0.35113  0.49542  0.20141  1.0000
  Fe  Fe88      1.0  0.48880  0.50483  0.05512  1.0000
  N   N45       1.0  0.37388  0.50455  0.16909  1.0000
  H   H689      1.0  0.39949  0.50345  0.19526  1.0000
  C   C436      1.0  0.39340  0.50104  0.16720  1.0000
  H   H690      1.0  0.45387  0.48474  0.47805  1.0000
  Fe  Fe89      1.0  0.67186  0.32102  0.31322  1.0000
  S   S176      1.0  0.66202  0.26723  0.23135  1.0000
  C   C437      1.0  0.44658  0.47858  0.50267  1.0000
  H   H691      1.0  0.55491  0.45805  0.06303  1.0000
  H   H692      1.0  0.66519  0.33855  0.14416  1.0000
  H   H693      1.0  0.37127  0.49523  0.22750  1.0000
  H   H694      1.0  0.42882  0.50716  0.47276  1.0000
  H   H695      1.0  0.48294  0.50507  0.20535  1.0000
  H   H696      1.0  0.49310  0.49588  0.16282  1.0000
  C   C438      1.0  0.67074  0.26022  0.18574  1.0000
  H   H697      1.0  0.41368  0.49008  0.48408  1.0000
  C   C439      1.0  0.49592  0.50286  0.18968  1.0000
  H   H698      1.0  0.67118  0.26585  0.51470  1.0000
  H   H699      1.0  0.67232  0.44460  0.36162  1.0000
  H   H700      1.0  0.55053  0.48069  0.04884  1.0000
  H   H701      1.0  0.35157  0.50368  0.13194  1.0000
  C   C440      1.0  0.58566  0.47295  0.04377  1.0000
  H   H702      1.0  0.51868  0.50957  0.13146  1.0000
  H   H703      1.0  0.37213  0.50964  0.10856  1.0000
  H   H704      1.0  0.60947  0.25990  0.44709  1.0000
  C   C441      1.0  0.54808  0.34236  0.68248  1.0000
  C   C442      1.0  0.42580  0.48305  0.55571  1.0000
  H   H705      1.0  0.56608  0.44559  0.98248  1.0000
  S   S177      1.0  0.53498  0.28427  0.66841  1.0000
  H   H706      1.0  0.51255  0.34711  0.67708  1.0000
  S   S178      1.0  0.61568  0.27478  0.58351  1.0000
  Fe  Fe90      1.0  0.48895  0.36011  0.78781  1.0000
  S   S179      1.0  0.47982  0.36566  0.72832  1.0000
  S   S180      1.0  0.50558  0.33510  0.80119  1.0000
  Fe  Fe91      1.0  0.47245  0.39523  0.81768  1.0000
  S   S181      1.0  0.46159  0.40280  0.75971  1.0000
  S   S182      1.0  0.46633  0.41527  0.86484  1.0000
  Fe  Fe92      1.0  0.45366  0.37450  0.75645  1.0000
  S   S183      1.0  0.42975  0.36492  0.72489  1.0000
  Fe  Fe93      1.0  0.48838  0.39315  0.73720  1.0000
  S   S184      1.0  0.50666  0.40644  0.69457  1.0000
  S   S185      1.0  0.46239  0.36743  0.81617  1.0000
  S   S186      1.0  0.49973  0.38714  0.79502  1.0000
  Fe  Fe94      1.0  0.51159  0.48595  0.99201  1.0000
  H   H707      1.0  0.55079  0.33830  0.65231  1.0000
  S   S187      1.0  0.51994  0.46222  0.95501  1.0000
  C   C443      1.0  0.52065  0.35773  0.66419  1.0000
  Fe  Fe95      1.0  0.49475  0.49003  0.57097  1.0000
  S   S188      1.0  0.47535  0.47443  0.60718  1.0000
  S   S189      1.0  0.52467  0.48744  0.56641  1.0000
  C   C444      1.0  0.48158  0.42774  0.89038  1.0000
  C   C445      1.0  0.50007  0.42548  0.88512  1.0000
  C   C446      1.0  0.51161  0.43614  0.90504  1.0000
  C   C447      1.0  0.50483  0.44926  0.93020  1.0000
  C   C448      1.0  0.48635  0.45163  0.93514  1.0000
  C   C449      1.0  0.47482  0.44087  0.91549  1.0000
  H   H708      1.0  0.50550  0.41538  0.86611  1.0000
  H   H709      1.0  0.52588  0.43413  0.90113  1.0000
  H   H710      1.0  0.48091  0.46161  0.95447  1.0000
  H   H711      1.0  0.46055  0.44277  0.91977  1.0000
  C   C450      1.0  0.49767  0.42500  0.66964  1.0000
  C   C451      1.0  0.47939  0.42938  0.67135  1.0000
  C   C452      1.0  0.47263  0.44457  0.65202  1.0000
  C   C453      1.0  0.48411  0.45535  0.63071  1.0000
  C   C454      1.0  0.50236  0.45089  0.62891  1.0000
  C   C455      1.0  0.50912  0.43575  0.64833  1.0000
  H   H712      1.0  0.47041  0.42097  0.68705  1.0000
  H   H713      1.0  0.45847  0.44788  0.65326  1.0000
  H   H714      1.0  0.51130  0.45905  0.61252  1.0000
  H   H715      1.0  0.52327  0.43241  0.64682  1.0000
  C   C456      1.0  0.40821  0.35990  0.74300  1.0000
  C   C457      1.0  0.39523  0.35525  0.71703  1.0000
  C   C458      1.0  0.37807  0.35068  0.72997  1.0000
  C   C459      1.0  0.37373  0.35059  0.76915  1.0000
  C   C460      1.0  0.38677  0.35506  0.79519  1.0000
  C   C461      1.0  0.40393  0.35973  0.78222  1.0000
  H   H716      1.0  0.39842  0.35530  0.68664  1.0000
  H   H717      1.0  0.36819  0.34727  0.70961  1.0000
  H   H718      1.0  0.38356  0.35502  0.82556  1.0000
  H   H719      1.0  0.41379  0.36323  0.80255  1.0000
  C   C462      1.0  0.52681  0.29757  0.70670  1.0000
  C   C463      1.0  0.53515  0.29779  0.74208  1.0000
  C   C464      1.0  0.52837  0.30916  0.77107  1.0000
  C   C465      1.0  0.51341  0.32053  0.76474  1.0000
  C   C466      1.0  0.50503  0.32019  0.72947  1.0000
  C   C467      1.0  0.51165  0.30871  0.70072  1.0000
  H   H720      1.0  0.54682  0.28926  0.74705  1.0000
  H   H721      1.0  0.53489  0.30926  0.79837  1.0000
  H   H722      1.0  0.49341  0.32870  0.72436  1.0000
  H   H723      1.0  0.50512  0.30858  0.67343  1.0000
  H   H724      1.0  0.52548  0.35335  0.73950  1.0000
  H   H725      1.0  0.54371  0.46324  0.01911  1.0000
  H   H726      1.0  0.52599  0.37642  0.72776  1.0000
  H   H727      1.0  0.45934  0.44139  0.79556  1.0000
  S   S190      1.0  0.35232  0.34481  0.78688  1.0000
  H   H728      1.0  0.46358  0.44299  0.74475  1.0000
  H   H729      1.0  0.63989  0.29608  0.54017  1.0000
  N   N46       1.0  0.48376  0.45371  0.77918  1.0000
  C   C468      1.0  0.48484  0.46326  0.81558  1.0000
  C   C469      1.0  0.46495  0.44996  0.77226  1.0000
  C   C470      1.0  0.49439  0.43687  0.78166  1.0000
  C   C471      1.0  0.49083  0.46465  0.74724  1.0000
  H   H730      1.0  0.49890  0.46543  0.82307  1.0000
  H   H731      1.0  0.47879  0.45568  0.83982  1.0000
  H   H732      1.0  0.47757  0.47635  0.81429  1.0000
  H   H733      1.0  0.45642  0.46232  0.77093  1.0000
  H   H734      1.0  0.49389  0.42936  0.75468  1.0000
  H   H735      1.0  0.48930  0.42821  0.80515  1.0000
  H   H736      1.0  0.50864  0.43906  0.78724  1.0000
  H   H737      1.0  0.49046  0.45766  0.71946  1.0000
  H   H738      1.0  0.50495  0.46783  0.75176  1.0000
  H   H739      1.0  0.48291  0.47731  0.74388  1.0000
  N   N47       1.0  0.44623  0.31194  0.75505  1.0000
  C   C472      1.0  0.46001  0.30372  0.72927  1.0000
  C   C473      1.0  0.45312  0.32810  0.77135  1.0000
  C   C474      1.0  0.44181  0.29942  0.78648  1.0000
  C   C475      1.0  0.43002  0.31664  0.73321  1.0000
  H   H740      1.0  0.47246  0.30012  0.74486  1.0000
  H   H741      1.0  0.46367  0.31289  0.70532  1.0000
  H   H742      1.0  0.45532  0.29145  0.71637  1.0000
  H   H743      1.0  0.44301  0.33481  0.79065  1.0000
  H   H744      1.0  0.46543  0.32522  0.78798  1.0000
  H   H745      1.0  0.45646  0.33781  0.74835  1.0000
  H   H746      1.0  0.43148  0.30531  0.80644  1.0000
  H   H747      1.0  0.45377  0.29572  0.80362  1.0000
  H   H748      1.0  0.43656  0.28704  0.77525  1.0000
  H   H749      1.0  0.41938  0.32293  0.75184  1.0000
  H   H750      1.0  0.42443  0.30483  0.72019  1.0000
  H   H751      1.0  0.43284  0.32632  0.70963  1.0000
  H   H752      1.0  0.62206  0.26500  0.84929  1.0000
  H   H753      1.0  0.51235  0.37027  0.66533  1.0000
  H   H754      1.0  0.54602  0.36443  0.74161  1.0000
  S   S191      1.0  0.58781  0.27050  0.67734  1.0000
  H   H755      1.0  0.52311  0.35452  0.63347  1.0000
  H   H756      1.0  0.54093  0.33146  0.69704  1.0000
  H   H757      1.0  0.56112  0.34315  0.69668  1.0000
  C   C476      1.0  0.53361  0.36357  0.72509  1.0000
  H   H758      1.0  0.54008  0.38646  0.66715  1.0000
  H   H759      1.0  0.55110  0.37070  0.63573  1.0000
  H   H760      1.0  0.43547  0.47669  0.57605  1.0000
  N   N48       1.0  0.53755  0.35929  0.68452  1.0000
  H   H761      1.0  0.56054  0.37528  0.68119  1.0000
  H   H762      1.0  0.58944  0.44956  0.98637  1.0000
  C   C477      1.0  0.54781  0.37355  0.66632  1.0000
  S   S192      1.0  0.48656  0.50327  0.99078  1.0000
  H   H763      1.0  0.41721  0.47255  0.54547  1.0000
  C   C478      1.0  0.57643  0.44987  0.00237  1.0000
  H   H764      1.0  0.58323  0.48087  0.96800  1.0000
  Fe  Fe96      1.0  0.55927  0.26506  0.66426  1.0000
  H   H765      1.0  0.56748  0.49420  0.99560  1.0000
  H   H766      1.0  0.45627  0.49994  0.55904  1.0000
  C   C479      1.0  0.57054  0.48056  0.98506  1.0000
  H   H767      1.0  0.41718  0.49266  0.57221  1.0000
  H   H768      1.0  0.55970  0.47733  0.96534  1.0000
  N   N49       1.0  0.57183  0.46767  0.01729  1.0000
  Fe  Fe97      1.0  0.59408  0.26025  0.61775  1.0000
  S   S193      1.0  0.53002  0.50864  0.98609  1.0000
  C   C480      1.0  0.44640  0.50560  0.53846  1.0000
  H   H769      1.0  0.57738  0.43984  0.02604  1.0000
  C   C481      1.0  0.62030  0.27644  0.53332  1.0000
  H   H770      1.0  0.59904  0.47304  0.02941  1.0000
  C   C482      1.0  0.35617  0.75739  0.14837  1.0000
  S   S194      1.0  0.36027  0.71168  0.30287  1.0000
  H   H771      1.0  0.34986  0.64858  0.36300  1.0000
  C   C483      1.0  0.55327  0.55987  0.51985  1.0000
  S   S195      1.0  0.38160  0.72551  0.39829  1.0000
  Fe  Fe98      1.0  0.39844  0.54257  0.25144  1.0000
  S   S196      1.0  0.40911  0.55374  0.30529  1.0000
  S   S197      1.0  0.41018  0.54708  0.19126  1.0000
  Fe  Fe99      1.0  0.36679  0.52579  0.29406  1.0000
  S   S198      1.0  0.37504  0.53551  0.35111  1.0000
  Fe  Fe100     1.0  0.38043  0.56145  0.32045  1.0000
  S   S199      1.0  0.37173  0.58670  0.35234  1.0000
  Fe  Fe101     1.0  0.40290  0.52735  0.33172  1.0000
  H   H772      1.0  0.58073  0.57426  0.48165  1.0000
  S   S200      1.0  0.37010  0.55230  0.26461  1.0000
  H   H773      1.0  0.36004  0.74559  0.20474  1.0000
  H   H774      1.0  0.66234  0.51896  0.32495  1.0000
  H   H775      1.0  0.36468  0.63190  0.24923  1.0000
  H   H776      1.0  0.35544  0.52637  0.18191  1.0000
  S   S201      1.0  0.47390  0.54056  0.48437  1.0000
  C   C484      1.0  0.42769  0.53421  0.16893  1.0000
  H   H777      1.0  0.40699  0.69521  0.40775  1.0000
  C   C485      1.0  0.44757  0.52925  0.11300  1.0000
  C   C486      1.0  0.43459  0.53972  0.13304  1.0000
  H   H778      1.0  0.45258  0.53356  0.08519  1.0000
  H   H779      1.0  0.42969  0.55210  0.12040  1.0000
  H   H780      1.0  0.67373  0.54465  0.35862  1.0000
  C   C487      1.0  0.46048  0.53267  0.44822  1.0000
  C   C488      1.0  0.44585  0.54307  0.43535  1.0000
  C   C489      1.0  0.43421  0.53638  0.40869  1.0000
  H   H781      1.0  0.44333  0.55621  0.44647  1.0000
  H   H782      1.0  0.42276  0.54433  0.39936  1.0000
  H   H783      1.0  0.37529  0.67088  0.35066  1.0000
  C   C490      1.0  0.38760  0.67748  0.35868  1.0000
  C   C491      1.0  0.35686  0.64244  0.30443  1.0000
  C   C492      1.0  0.49254  0.53165  0.15913  1.0000
  H   H784      1.0  0.35652  0.72547  0.46466  1.0000
  C   C493      1.0  0.36596  0.60796  0.33282  1.0000
  C   C494      1.0  0.36773  0.61189  0.29364  1.0000
  S   S202      1.0  0.50549  0.52884  0.05254  1.0000
  C   C495      1.0  0.45346  0.51289  0.12829  1.0000
  H   H785      1.0  0.36000  0.69263  0.22982  1.0000
  H   H786      1.0  0.37263  0.60171  0.27423  1.0000
  S   S203      1.0  0.39430  0.51564  0.27679  1.0000
  C   C496      1.0  0.38372  0.73014  0.44799  1.0000
  C   C497      1.0  0.40041  0.73479  0.46141  1.0000
  C   C498      1.0  0.40280  0.73845  0.50050  1.0000
  C   C499      1.0  0.37185  0.73265  0.51347  1.0000
  H   H787      1.0  0.55221  0.53647  0.46194  1.0000
  C   C500      1.0  0.36944  0.72904  0.47436  1.0000
  H   H788      1.0  0.56198  0.52503  0.52461  1.0000
  S   S204      1.0  0.52217  0.52039  0.50293  1.0000
  C   C501      1.0  0.50876  0.52815  0.21778  1.0000
  H   H789      1.0  0.38450  0.69199  0.35863  1.0000
  H   H790      1.0  0.47960  0.53430  0.17472  1.0000
  H   H791      1.0  0.57476  0.53887  0.44545  1.0000
  H   H792      1.0  0.58804  0.56563  0.52719  1.0000
  H   H793      1.0  0.41511  0.67628  0.43465  1.0000
  H   H794      1.0  0.36744  0.66764  0.41951  1.0000
  C   C502      1.0  0.35959  0.62138  0.35767  1.0000
  C   C503      1.0  0.34921  0.67581  0.16919  1.0000
  H   H795      1.0  0.38412  0.67008  0.45489  1.0000
  H   H796      1.0  0.35181  0.66687  0.19442  1.0000
  H   H797      1.0  0.38648  0.64441  0.38755  1.0000
  H   H798      1.0  0.49858  0.54457  0.15263  1.0000
  Fe  Fe102     1.0  0.35676  0.71880  0.36543  1.0000
  C   C504      1.0  0.67652  0.52100  0.32498  1.0000
  H   H799      1.0  0.35178  0.70675  0.12964  1.0000
  H   H800      1.0  0.48939  0.52580  0.13125  1.0000
  C   C505      1.0  0.37978  0.67459  0.42595  1.0000
  H   H801      1.0  0.54913  0.57217  0.50399  1.0000
  H   H802      1.0  0.55918  0.55752  0.44415  1.0000
  H   H803      1.0  0.41157  0.73573  0.44139  1.0000
  H   H804      1.0  0.35187  0.71445  0.21619  1.0000
  H   H805      1.0  0.39777  0.67482  0.33557  1.0000
  Fe  Fe103     1.0  0.49254  0.52036  0.51240  1.0000
  N   N50       1.0  0.39392  0.67115  0.39647  1.0000
  C   C506      1.0  0.40996  0.68067  0.40626  1.0000
  C   C507      1.0  0.39832  0.65195  0.39497  1.0000
  C   C508      1.0  0.43713  0.51919  0.39515  1.0000
  H   H806      1.0  0.42088  0.67854  0.38449  1.0000
  C   C509      1.0  0.36321  0.62904  0.27958  1.0000
  C   C510      1.0  0.58390  0.56184  0.49813  1.0000
  H   H807      1.0  0.40311  0.64665  0.42300  1.0000
  H   H808      1.0  0.36186  0.67634  0.15197  1.0000
  C   C511      1.0  0.56344  0.54562  0.46132  1.0000
  C   C512      1.0  0.52131  0.51615  0.15891  1.0000
  H   H809      1.0  0.37614  0.68899  0.42777  1.0000
  N   N51       1.0  0.56846  0.55035  0.50044  1.0000
  C   C513      1.0  0.43418  0.51821  0.18495  1.0000
  H   H810      1.0  0.42919  0.51388  0.21275  1.0000
  H   H811      1.0  0.40889  0.64885  0.37289  1.0000
  H   H812      1.0  0.37597  0.52634  0.20676  1.0000
  C   C514      1.0  0.37003  0.52324  0.17903  1.0000
  H   H813      1.0  0.58380  0.52111  0.13096  1.0000
  N   N52       1.0  0.50464  0.51971  0.18138  1.0000
  C   C515      1.0  0.46371  0.51575  0.43356  1.0000
  H   H814      1.0  0.36911  0.70337  0.18795  1.0000
  C   C516      1.0  0.35038  0.75088  0.18464  1.0000
  C   C517      1.0  0.35500  0.63852  0.34360  1.0000
  H   H815      1.0  0.45403  0.51219  0.51504  1.0000
  C   C518      1.0  0.38851  0.73742  0.52687  1.0000
  H   H816      1.0  0.51537  0.54089  0.21254  1.0000
  S   S205      1.0  0.55371  0.51467  0.08492  1.0000
  C   C519      1.0  0.57329  0.53409  0.52254  1.0000
  H   H817      1.0  0.59563  0.55507  0.48367  1.0000
  H   H818      1.0  0.41569  0.74213  0.51017  1.0000
  H   H819      1.0  0.52817  0.52855  0.15138  1.0000
  H   H820      1.0  0.37582  0.53246  0.15731  1.0000
  H   H821      1.0  0.58486  0.52668  0.50920  1.0000
  H   H822      1.0  0.51787  0.51950  0.23532  1.0000
  H   H823      1.0  0.54143  0.55153  0.52260  1.0000
  C   C520      1.0  0.35658  0.70138  0.20485  1.0000
  H   H824      1.0  0.35804  0.61841  0.38796  1.0000
  H   H825      1.0  0.37025  0.75683  0.14091  1.0000
  S   S206      1.0  0.35151  0.66386  0.28516  1.0000
  H   H826      1.0  0.49642  0.53099  0.23538  1.0000
  H   H827      1.0  0.41308  0.51000  0.51164  1.0000
  H   H828      1.0  0.39996  0.50988  0.14574  1.0000
  H   H829      1.0  0.51974  0.73811  0.57413  1.0000
  C   C521      1.0  0.46798  0.65886  0.72489  1.0000
  S   S207      1.0  0.42140  0.73827  0.66660  1.0000
  H   H830      1.0  0.49327  0.65893  0.66896  1.0000
  Fe  Fe104     1.0  0.45040  0.74061  0.64902  1.0000
  S   S208      1.0  0.47323  0.71965  0.64697  1.0000
  H   H831      1.0  0.61631  0.69922  0.72503  1.0000
  S   S209      1.0  0.39069  0.74191  0.57665  1.0000
  H   H832      1.0  0.53029  0.58277  0.79491  1.0000
  Fe  Fe105     1.0  0.53444  0.61638  0.71951  1.0000
  S   S210      1.0  0.52143  0.62260  0.77639  1.0000
  S   S211      1.0  0.51660  0.60252  0.67968  1.0000
  Fe  Fe106     1.0  0.56813  0.63583  0.73758  1.0000
  S   S212      1.0  0.55733  0.64363  0.79593  1.0000
  S   S213      1.0  0.59373  0.64469  0.70761  1.0000
  Fe  Fe107     1.0  0.54814  0.61552  0.80081  1.0000
  S   S214      1.0  0.55370  0.59623  0.85064  1.0000
  Fe  Fe108     1.0  0.53136  0.64997  0.76595  1.0000
  S   S215      1.0  0.51177  0.67329  0.77740  1.0000
  S   S216      1.0  0.56064  0.60738  0.74406  1.0000
  S   S217      1.0  0.54270  0.64406  0.70753  1.0000
  Fe  Fe109     1.0  0.50518  0.52608  0.98817  1.0000
  S   S218      1.0  0.49910  0.54844  0.94491  1.0000
  H   H833      1.0  0.56126  0.54629  0.76453  1.0000
  H   H834      1.0  0.51264  0.54363  0.74750  1.0000
  H   H835      1.0  0.43826  0.51610  0.55347  1.0000
  C   C522      1.0  0.52475  0.58331  0.65647  1.0000
  C   C523      1.0  0.51301  0.57383  0.63496  1.0000
  C   C524      1.0  0.51883  0.55809  0.61717  1.0000
  C   C525      1.0  0.53640  0.55163  0.62107  1.0000
  C   C526      1.0  0.54827  0.56125  0.64215  1.0000
  C   C527      1.0  0.54247  0.57712  0.65973  1.0000
  H   H836      1.0  0.49932  0.57864  0.63207  1.0000
  H   H837      1.0  0.50968  0.55099  0.60045  1.0000
  H   H838      1.0  0.56196  0.55641  0.64490  1.0000
  H   H839      1.0  0.55169  0.58456  0.67567  1.0000
  C   C528      1.0  0.53819  0.58385  0.87818  1.0000
  C   C529      1.0  0.51978  0.58581  0.87308  1.0000
  C   C530      1.0  0.50805  0.57490  0.89382  1.0000
  C   C531      1.0  0.51452  0.56195  0.91999  1.0000
  C   C532      1.0  0.53293  0.56003  0.92520  1.0000
  C   C533      1.0  0.54466  0.57096  0.90448  1.0000
  H   H840      1.0  0.51455  0.59580  0.85337  1.0000
  H   H841      1.0  0.49383  0.57659  0.88984  1.0000
  H   H842      1.0  0.53810  0.55020  0.94533  1.0000
  H   H843      1.0  0.55887  0.56934  0.90871  1.0000
  C   C534      1.0  0.48444  0.70807  0.68451  1.0000
  C   C535      1.0  0.49943  0.69710  0.67508  1.0000
  C   C536      1.0  0.50836  0.68695  0.70344  1.0000
  C   C537      1.0  0.50223  0.68742  0.74156  1.0000
  C   C538      1.0  0.48753  0.69876  0.75119  1.0000
  C   C539      1.0  0.47865  0.70905  0.72283  1.0000
  H   H844      1.0  0.50407  0.69629  0.64555  1.0000
  H   H845      1.0  0.51983  0.67852  0.69568  1.0000
  H   H846      1.0  0.48276  0.69933  0.78068  1.0000
  H   H847      1.0  0.46718  0.71749  0.73056  1.0000
  H   H848      1.0  0.63907  0.70314  0.67363  1.0000
  H   H849      1.0  0.46783  0.67127  0.70724  1.0000
  H   H850      1.0  0.63868  0.72635  0.76676  1.0000
  H   H851      1.0  0.38905  0.74975  0.76430  1.0000
  H   H852      1.0  0.50729  0.72962  0.61439  1.0000
  H   H853      1.0  0.55578  0.56581  0.73647  1.0000
  C   C540      1.0  0.65051  0.64467  0.75463  1.0000
  C   C541      1.0  0.63612  0.64025  0.77898  1.0000
  C   C542      1.0  0.61866  0.63995  0.76502  1.0000
  C   C543      1.0  0.61547  0.64403  0.72648  1.0000
  C   C544      1.0  0.62991  0.64831  0.70211  1.0000
  C   C545      1.0  0.64735  0.64858  0.71605  1.0000
  H   H854      1.0  0.63842  0.63712  0.80885  1.0000
  H   H855      1.0  0.60766  0.63665  0.78408  1.0000
  H   H856      1.0  0.62758  0.65132  0.67218  1.0000
  H   H857      1.0  0.65837  0.65158  0.69682  1.0000
  Fe  Fe110     1.0  0.41524  0.75054  0.60847  1.0000
  N   N53       1.0  0.47506  0.64355  0.70267  1.0000
  S   S219      1.0  0.44394  0.75083  0.58950  1.0000
  H   H858      1.0  0.46271  0.65261  0.65063  1.0000
  S   S220      1.0  0.54384  0.53167  0.59977  1.0000
  Fe  Fe111     1.0  0.52347  0.51720  0.56692  1.0000
  S   S221      1.0  0.49384  0.51953  0.57657  1.0000
  H   H859      1.0  0.36902  0.74364  0.65400  1.0000
  C   C546      1.0  0.62711  0.69489  0.74479  1.0000
  H   H860      1.0  0.57679  0.53713  0.55248  1.0000
  H   H861      1.0  0.53830  0.53406  0.81017  1.0000
  H   H862      1.0  0.62827  0.68019  0.74393  1.0000
  H   H863      1.0  0.48411  0.62949  0.75295  1.0000
  C   C547      1.0  0.51625  0.74030  0.60489  1.0000
  H   H864      1.0  0.63183  0.72793  0.71776  1.0000
  H   H865      1.0  0.66040  0.68152  0.75775  1.0000
  H   H866      1.0  0.65092  0.68366  0.69085  1.0000
  C   C548      1.0  0.53197  0.54761  0.81010  1.0000
  C   C549      1.0  0.46344  0.64074  0.66996  1.0000
  H   H867      1.0  0.53819  0.55495  0.83325  1.0000
  H   H868      1.0  0.45415  0.65689  0.73577  1.0000
  H   H869      1.0  0.48192  0.74902  0.59622  1.0000
  C   C550      1.0  0.52476  0.57411  0.77315  1.0000
  C   C551      1.0  0.37377  0.75836  0.81463  1.0000
  H   H870      1.0  0.53420  0.53273  0.74013  1.0000
  H   H871      1.0  0.66223  0.70398  0.68526  1.0000
  C   C552      1.0  0.52705  0.54587  0.74214  1.0000
  H   H872      1.0  0.44960  0.63800  0.67981  1.0000
  H   H873      1.0  0.47632  0.66110  0.75021  1.0000
  H   H874      1.0  0.55927  0.56752  0.78691  1.0000
  H   H875      1.0  0.65505  0.72868  0.72882  1.0000
  H   H876      1.0  0.51763  0.54653  0.81832  1.0000
  H   H877      1.0  0.36749  0.74585  0.81884  1.0000
  C   C553      1.0  0.49323  0.64705  0.68812  1.0000
  H   H878      1.0  0.65465  0.69891  0.79054  1.0000
  H   H879      1.0  0.51032  0.57294  0.78008  1.0000
  H   H880      1.0  0.52829  0.55248  0.71352  1.0000
  H   H881      1.0  0.67117  0.70218  0.75334  1.0000
  H   H882      1.0  0.62265  0.69842  0.77442  1.0000
  C   C554      1.0  0.47569  0.62758  0.72766  1.0000
  H   H883      1.0  0.50236  0.64927  0.71207  1.0000
  C   C555      1.0  0.64232  0.72232  0.73698  1.0000
  C   C556      1.0  0.37345  0.75502  0.67061  1.0000
  H   H884      1.0  0.49907  0.63580  0.67129  1.0000
  N   N54       1.0  0.64421  0.70287  0.73401  1.0000
  C   C557      1.0  0.64932  0.69822  0.69416  1.0000
  H   H885      1.0  0.48150  0.61589  0.71209  1.0000
  H   H886      1.0  0.46855  0.62933  0.65254  1.0000
  H   H887      1.0  0.52599  0.58113  0.74503  1.0000
  C   C558      1.0  0.55351  0.55913  0.76472  1.0000
  H   H888      1.0  0.46218  0.62431  0.73863  1.0000
  C   C559      1.0  0.65821  0.69608  0.76008  1.0000
  N   N55       1.0  0.53432  0.55666  0.77252  1.0000
  S   S222      1.0  0.67218  0.64545  0.77350  1.0000
  H   H889      1.0  0.37301  0.75135  0.70161  1.0000
  H   H890      1.0  0.52868  0.73854  0.62152  1.0000
  H   H891      1.0  0.49355  0.74999  0.66227  1.0000
  H   H892      1.0  0.38763  0.75678  0.66241  1.0000
  H   H893      1.0  0.55661  0.56357  0.54950  1.0000
  H   H894      1.0  0.36068  0.73176  0.53348  1.0000
  H   H895      1.0  0.49410  0.75867  0.55692  1.0000
  N   N56       1.0  0.50758  0.75797  0.61076  1.0000
  H   H896      1.0  0.51497  0.75879  0.66990  1.0000
  C   C560      1.0  0.49117  0.75963  0.58822  1.0000
  H   H897      1.0  0.40149  0.84176  0.08190  1.0000
  H   H898      1.0  0.38109  0.79978  0.05500  1.0000
  S   S223      1.0  0.55920  0.87029  0.52550  1.0000
  N   N57       1.0  0.66835  0.84335  0.47217  1.0000
  S   S224      1.0  0.35128  0.92211  0.04257  1.0000
  S   S225      1.0  0.53977  0.89983  0.43873  1.0000
  H   H899      1.0  0.46226  0.95647  0.14140  1.0000
  H   H900      1.0  0.55451  0.99052  0.30875  1.0000
  H   H901      1.0  0.37776  0.80369  0.12512  1.0000
  H   H902      1.0  0.39809  0.81544  0.12506  1.0000
  S   S226      1.0  0.40210  0.98441  0.12719  1.0000
  H   H903      1.0  0.47620  0.98756  0.06221  1.0000
  Fe  Fe112     1.0  0.50953  0.98838  0.32164  1.0000
  H   H904      1.0  0.66821  0.83616  0.41286  1.0000
  S   S227      1.0  0.51137  0.97624  0.38171  1.0000
  C   C561      1.0  0.38678  0.81314  0.05311  1.0000
  S   S228      1.0  0.48051  0.97744  0.19417  1.0000
  S   S229      1.0  0.51862  0.97997  0.26285  1.0000
  C   C562      1.0  0.42372  0.98188  0.14648  1.0000
  C   C563      1.0  0.43576  0.96825  0.13521  1.0000
  C   C564      1.0  0.45304  0.96707  0.15025  1.0000
  C   C565      1.0  0.45841  0.97934  0.17706  1.0000
  C   C566      1.0  0.44629  0.99283  0.18872  1.0000
  C   C567      1.0  0.42903  0.99406  0.17352  1.0000
  H   H905      1.0  0.43167  0.95856  0.11517  1.0000
  S   S230      1.0  0.36281  0.97031  0.06362  1.0000
  H   H906      1.0  0.58387  0.98418  0.27904  1.0000
  H   H907      1.0  0.54393  0.97425  0.33842  1.0000
  C   C568      1.0  0.53183  0.92108  0.42294  1.0000
  C   C569      1.0  0.52736  0.93448  0.44896  1.0000
  C   C570      1.0  0.52114  0.95124  0.43571  1.0000
  C   C571      1.0  0.51930  0.95484  0.39634  1.0000
  C   C572      1.0  0.52374  0.94147  0.37018  1.0000
  C   C573      1.0  0.53001  0.92467  0.38348  1.0000
  H   H908      1.0  0.52862  0.93188  0.47937  1.0000
  H   H909      1.0  0.51768  0.96145  0.45619  1.0000
  H   H910      1.0  0.52210  0.94397  0.33985  1.0000
  H   H911      1.0  0.53326  0.91432  0.36320  1.0000
  Fe  Fe113     1.0  0.39222  0.97237  0.07262  1.0000
  S   S231      1.0  0.48307  0.99916  0.30091  1.0000
  N   N58       1.0  0.37916  0.82481  0.08339  1.0000
  Fe  Fe114     1.0  0.52997  0.00687  0.25550  1.0000
  C   C574      1.0  0.57074  0.00441  0.05261  1.0000
  H   H912      1.0  0.56974  0.94737  0.26722  1.0000
  H   H913      1.0  0.47788  0.98505  0.42839  1.0000
  Fe  Fe115     1.0  0.49314  0.99306  0.24118  1.0000
  H   H914      1.0  0.42779  0.99795  0.06153  1.0000
  N   N59       1.0  0.56925  0.96572  0.31367  1.0000
  C   C575      1.0  0.55704  0.97960  0.32992  1.0000
  C   C576      1.0  0.57275  0.95179  0.34310  1.0000
  C   C577      1.0  0.58617  0.97363  0.30132  1.0000
  C   C578      1.0  0.56095  0.95794  0.28027  1.0000
  H   H915      1.0  0.57413  0.98999  0.05166  1.0000
  H   H916      1.0  0.67260  0.85494  0.52656  1.0000
  H   H917      1.0  0.40151  0.81138  0.05509  1.0000
  H   H918      1.0  0.56019  0.94568  0.35314  1.0000
  H   H919      1.0  0.58182  0.94100  0.33183  1.0000
  C   C579      1.0  0.64869  0.84423  0.47664  1.0000
  H   H920      1.0  0.66998  0.81500  0.46794  1.0000
  H   H921      1.0  0.59270  0.97981  0.32570  1.0000
  H   H922      1.0  0.37785  0.82546  0.14492  1.0000
  C   C580      1.0  0.67359  0.84632  0.43156  1.0000
  H   H923      1.0  0.54804  0.95201  0.28846  1.0000
  H   H924      1.0  0.64443  0.84187  0.50706  1.0000
  H   H925      1.0  0.45022  0.00235  0.20932  1.0000
  H   H926      1.0  0.44730  0.99647  0.09000  1.0000
  H   H927      1.0  0.59573  0.96357  0.28878  1.0000
  H   H928      1.0  0.47264  0.98973  0.37962  1.0000
  H   H929      1.0  0.56256  0.98551  0.35581  1.0000
  H   H930      1.0  0.38385  0.84852  0.05050  1.0000
  C   C581      1.0  0.67587  0.85711  0.49568  1.0000
  C   C582      1.0  0.38675  0.84247  0.07917  1.0000
  H   H931      1.0  0.41977  0.00459  0.18260  1.0000
  H   H932      1.0  0.64249  0.83412  0.45912  1.0000
  H   H933      1.0  0.55817  0.96814  0.25751  1.0000
  C   C583      1.0  0.44236  0.00025  0.06109  1.0000
  H   H934      1.0  0.45330  0.96550  0.06273  1.0000
  H   H935      1.0  0.35345  0.81338  0.08232  1.0000
  H   H936      1.0  0.35334  0.83514  0.10225  1.0000
  Fe  Fe116     1.0  0.54259  0.89368  0.50254  1.0000
  C   C584      1.0  0.35960  0.82651  0.07980  1.0000
  C   C585      1.0  0.46892  0.99328  0.40964  1.0000
  H   H937      1.0  0.57895  0.95721  0.36879  1.0000
  S   S232      1.0  0.39882  0.94597  0.04628  1.0000
  H   H938      1.0  0.38105  0.85177  0.10103  1.0000
  H   H939      1.0  0.45502  0.98923  0.41522  1.0000
  S   S233      1.0  0.35229  0.77297  0.07661  1.0000
  C   C586      1.0  0.38343  0.81702  0.12136  1.0000
  H   H940      1.0  0.67170  0.82308  0.51567  1.0000
  H   H941      1.0  0.35591  0.83248  0.05160  1.0000
  H   H942      1.0  0.64293  0.85745  0.46789  1.0000
  C   C587      1.0  0.67534  0.82574  0.48504  1.0000
  S   S234      1.0  0.55878  0.00613  0.23265  1.0000
  H   H943      1.0  0.59248  0.00518  0.19145  1.0000
  H   H944      1.0  0.49897  0.00874  0.42481  1.0000
  H   H945      1.0  0.66865  0.85955  0.42097  1.0000
  H   H946      1.0  0.67057  0.87056  0.48754  1.0000
  C   C588      1.0  0.44822  0.97111  0.03526  1.0000
  H   H947      1.0  0.43364  0.96897  0.03494  1.0000
  H   H948      1.0  0.56687  0.00761  0.08278  1.0000
  C   C589      1.0  0.47135  0.99229  0.03372  1.0000
  H   H949      1.0  0.53543  0.00495  0.06771  1.0000
  H   H950      1.0  0.47496  0.00894  0.47637  1.0000
  H   H951      1.0  0.54182  0.98627  0.03862  1.0000
  C   C590      1.0  0.53983  0.00093  0.03827  1.0000
  Fe  Fe117     1.0  0.36980  0.94509  0.03195  1.0000
  H   H952      1.0  0.52379  0.77040  0.56722  1.0000
  S   S235      1.0  0.36277  0.79401  0.97964  1.0000
  S   S236      1.0  0.36529  0.84439  0.97627  1.0000
  C   C591      1.0  0.44641  0.99230  0.86192  1.0000
  S   S237      1.0  0.35050  0.00969  0.99414  1.0000
  Fe  Fe118     1.0  0.44473  0.77782  0.61529  1.0000
  S   S238      1.0  0.45630  0.80039  0.57975  1.0000
  S   S239      1.0  0.41543  0.77839  0.62988  1.0000
  Fe  Fe119     1.0  0.53261  0.90666  0.58235  1.0000
  S   S240      1.0  0.51348  0.92591  0.61253  1.0000
  H   H953      1.0  0.67116  0.85028  0.66621  1.0000
  S   S241      1.0  0.52733  0.84223  0.60081  1.0000
  S   S242      1.0  0.54892  0.88522  0.61149  1.0000
  N   N60       1.0  0.67312  0.87507  0.69485  1.0000
  Fe  Fe120     1.0  0.40103  0.96159  0.99092  1.0000
  Fe  Fe121     1.0  0.36705  0.98428  0.00706  1.0000
  S   S243      1.0  0.42607  0.95500  0.95622  1.0000
  S   S244      1.0  0.51940  0.88853  0.54260  1.0000
  S   S245      1.0  0.37242  0.95902  0.97445  1.0000
  Fe  Fe122     1.0  0.51725  0.98355  0.78769  1.0000
  C   C592      1.0  0.66282  0.85986  0.68345  1.0000
  S   S246      1.0  0.53236  0.95825  0.77151  1.0000
  C   C593      1.0  0.64286  0.99870  0.92253  1.0000
  C   C594      1.0  0.37083  0.89606  0.00261  1.0000
  S   S247      1.0  0.39608  0.98794  0.01811  1.0000
  H   H954      1.0  0.66861  0.89938  0.72512  1.0000
  C   C595      1.0  0.43331  0.96936  0.91941  1.0000
  C   C596      1.0  0.45004  0.96587  0.90178  1.0000
  C   C597      1.0  0.45660  0.97732  0.87323  1.0000
  C   C598      1.0  0.66128  0.88769  0.71630  1.0000
  Fe  Fe123     1.0  0.34780  0.82039  0.97605  1.0000
  C   C599      1.0  0.42312  0.98439  0.90836  1.0000
  H   H955      1.0  0.45794  0.95421  0.91015  1.0000
  H   H956      1.0  0.46937  0.97433  0.85942  1.0000
  H   H957      1.0  0.35880  0.76458  0.60367  1.0000
  H   H958      1.0  0.41020  0.98716  0.92184  1.0000
  C   C600      1.0  0.51864  0.93379  0.65775  1.0000
  C   C601      1.0  0.53509  0.92967  0.67435  1.0000
  C   C602      1.0  0.53901  0.93686  0.70987  1.0000
  C   C603      1.0  0.52659  0.94827  0.72868  1.0000
  C   C604      1.0  0.51004  0.95207  0.71236  1.0000
  C   C605      1.0  0.50606  0.94483  0.67701  1.0000
  H   H959      1.0  0.54487  0.92118  0.65960  1.0000
  H   H960      1.0  0.55184  0.93385  0.72248  1.0000
  H   H961      1.0  0.50024  0.96051  0.72710  1.0000
  H   H962      1.0  0.49326  0.94791  0.66440  1.0000
  C   C606      1.0  0.47548  0.81269  0.58742  1.0000
  C   C607      1.0  0.48066  0.82524  0.55957  1.0000
  C   C608      1.0  0.49626  0.83473  0.56362  1.0000
  C   C609      1.0  0.50697  0.83157  0.59538  1.0000
  C   C610      1.0  0.50161  0.81925  0.62362  1.0000
  C   C611      1.0  0.48583  0.81002  0.61992  1.0000
  H   H963      1.0  0.66121  0.97420  0.88033  1.0000
  H   H964      1.0  0.50975  0.81682  0.64847  1.0000
  H   H965      1.0  0.48169  0.80080  0.64202  1.0000
  C   C612      1.0  0.36072  0.86600  0.99418  1.0000
  C   C613      1.0  0.37356  0.87884  0.98819  1.0000
  Fe  Fe124     1.0  0.48376  0.00457  0.81124  1.0000
  H   H966      1.0  0.45343  0.98940  0.96910  1.0000
  H   H967      1.0  0.65127  0.86415  0.66563  1.0000
  C   C614      1.0  0.50295  0.76013  0.65189  1.0000
  Fe  Fe125     1.0  0.53682  0.86712  0.56954  1.0000
  C   C615      1.0  0.37828  0.78810  0.83509  1.0000
  C   C616      1.0  0.39034  0.79033  0.80380  1.0000
  H   H968      1.0  0.37551  0.79879  0.85480  1.0000
  H   H969      1.0  0.39672  0.80281  0.79984  1.0000
  C   C617      1.0  0.66691  0.98750  0.88148  1.0000
  H   H970      1.0  0.50775  0.00771  0.66948  1.0000
  C   C618      1.0  0.64348  0.85011  0.58774  1.0000
  H   H971      1.0  0.63692  0.98550  0.92391  1.0000
  C   C619      1.0  0.61610  0.87670  0.58000  1.0000
  C   C620      1.0  0.63409  0.88113  0.58130  1.0000
  C   C621      1.0  0.64775  0.86790  0.58483  1.0000
  H   H972      1.0  0.64990  0.89262  0.69860  1.0000
  H   H973      1.0  0.66152  0.87147  0.58559  1.0000
  H   H974      1.0  0.62209  0.83196  0.58839  1.0000
  H   H975      1.0  0.36900  0.78321  0.71583  1.0000
  H   H976      1.0  0.59809  0.85533  0.58128  1.0000
  S   S248      1.0  0.35423  0.76855  0.87931  1.0000
  C   C622      1.0  0.36992  0.77206  0.84082  1.0000
  H   H977      1.0  0.55020  0.97657  0.61704  1.0000
  C   C623      1.0  0.51161  0.99567  0.65282  1.0000
  S   S249      1.0  0.53414  0.00723  0.78861  1.0000
  C   C624      1.0  0.64045  0.00115  0.85380  1.0000
  S   S250      1.0  0.45431  0.00674  0.82576  1.0000
  H   H978      1.0  0.45444  0.96314  0.01155  1.0000
  S   S251      1.0  0.40953  0.78049  0.73862  1.0000
  H   H979      1.0  0.37762  0.77757  0.61118  1.0000
  S   S252      1.0  0.55453  0.91337  0.54044  1.0000
  C   C625      1.0  0.39438  0.77658  0.77790  1.0000
  H   H980      1.0  0.66963  0.88934  0.64150  1.0000
  S   S253      1.0  0.66222  0.99851  0.02583  1.0000
  H   H981      1.0  0.52872  0.00446  0.01861  1.0000
  C   C626      1.0  0.44608  0.99652  0.99266  1.0000
  H   H982      1.0  0.52853  0.97807  0.59599  1.0000
  Fe  Fe126     1.0  0.56994  0.88988  0.56576  1.0000
  C   C627      1.0  0.42963  0.99578  0.87946  1.0000
  N   N61       1.0  0.49492  0.87750  0.67119  1.0000
  C   C628      1.0  0.50519  0.86159  0.68461  1.0000
  C   C629      1.0  0.49582  0.87844  0.62890  1.0000
  C   C630      1.0  0.50261  0.89346  0.68674  1.0000
  C   C631      1.0  0.47611  0.87652  0.68426  1.0000
  H   H983      1.0  0.50492  0.86042  0.71642  1.0000
  H   H984      1.0  0.51943  0.86187  0.67475  1.0000
  H   H985      1.0  0.49980  0.84934  0.67310  1.0000
  H   H986      1.0  0.48901  0.89072  0.61752  1.0000
  H   H987      1.0  0.50988  0.87843  0.61837  1.0000
  H   H988      1.0  0.48971  0.86687  0.61591  1.0000
  H   H989      1.0  0.49507  0.90569  0.67737  1.0000
  H   H990      1.0  0.51669  0.89479  0.67657  1.0000
  H   H991      1.0  0.50248  0.89318  0.71862  1.0000
  H   H992      1.0  0.47491  0.87591  0.71610  1.0000
  H   H993      1.0  0.46996  0.86456  0.67302  1.0000
  H   H994      1.0  0.46801  0.88829  0.67421  1.0000
  N   N62       1.0  0.45198  0.99005  0.03069  1.0000
  H   H995      1.0  0.51356  0.78524  0.60121  1.0000
  H   H996      1.0  0.49637  0.77329  0.65744  1.0000
  C   C632      1.0  0.38597  0.76054  0.78353  1.0000
  S   S254      1.0  0.45261  0.76778  0.67358  1.0000
  H   H997      1.0  0.63380  0.98831  0.85298  1.0000
  H   H998      1.0  0.65748  0.85251  0.70881  1.0000
  C   C633      1.0  0.62553  0.84568  0.58621  1.0000
  S   S255      1.0  0.66003  0.83295  0.59327  1.0000
  H   H999      1.0  0.50020  0.84416  0.54166  1.0000
  H   H1000     1.0  0.36149  0.79863  0.67920  1.0000
  H   H1001     1.0  0.64754  0.00320  0.82582  1.0000
  S   S256      1.0  0.50430  0.98915  0.84540  1.0000
  N   N63       1.0  0.53111  0.99409  0.64585  1.0000
  S   S257      1.0  0.59939  0.89386  0.57675  1.0000
  H   H1002     1.0  0.53190  0.96590  0.63977  1.0000
  H   H1003     1.0  0.42166  0.00732  0.87069  1.0000
  Fe  Fe127     1.0  0.42293  0.76633  0.68698  1.0000
  C   C634      1.0  0.53564  0.97801  0.62360  1.0000
  H   H1004     1.0  0.55493  0.99121  0.67893  1.0000
  N   N64       1.0  0.36256  0.77131  0.66255  1.0000
  C   C635      1.0  0.61189  0.85889  0.58216  1.0000
  H   H1005     1.0  0.38569  0.87550  0.97208  1.0000
  H   H1006     1.0  0.38349  0.78853  0.67646  1.0000
  S   S258      1.0  0.49560  0.99716  0.75339  1.0000
  H   H1007     1.0  0.47267  0.82749  0.53442  1.0000
  H   H1008     1.0  0.47898  0.98466  0.01132  1.0000
  H   H1009     1.0  0.65560  0.88142  0.74271  1.0000
  C   C636      1.0  0.36935  0.78608  0.68442  1.0000
  H   H1010     1.0  0.38082  0.90579  0.99756  1.0000
  H   H1011     1.0  0.50427  0.99651  0.62552  1.0000
  H   H1012     1.0  0.65163  0.99959  0.94752  1.0000
  H   H1013     1.0  0.50673  0.98408  0.66939  1.0000
  H   H1014     1.0  0.63743  0.89489  0.57948  1.0000
  C   C637      1.0  0.54022  0.99287  0.68293  1.0000
  H   H1015     1.0  0.35564  0.78779  0.61374  1.0000
  H   H1016     1.0  0.53739  0.00491  0.70018  1.0000
  N   N65       1.0  0.65282  0.00159  0.88604  1.0000
  H   H1017     1.0  0.53575  0.98142  0.70056  1.0000
  H   H1018     1.0  0.67808  0.96450  0.00676  1.0000
  C   C638      1.0  0.36363  0.77555  0.62105  1.0000
  H   H1019     1.0  0.63186  0.00882  0.92659  1.0000
  C   C639      1.0  0.35524  0.90061  0.02355  1.0000
  C   C640      1.0  0.51988  0.77177  0.59802  1.0000
  H   H1020     1.0  0.55099  0.00804  0.96599  1.0000
  H   H1021     1.0  0.67612  0.98720  0.90592  1.0000
  H   H1022     1.0  0.38397  0.81872  0.02404  1.0000
  H   H1023     1.0  0.53227  0.77121  0.61492  1.0000
  H   H1024     1.0  0.56413  0.98972  0.98506  1.0000
  C   C641      1.0  0.56159  0.00427  0.98677  1.0000
  H   H1025     1.0  0.43168  0.99439  0.98880  1.0000
  H   H1026     1.0  0.67514  0.98953  0.85492  1.0000
  H   H1027     1.0  0.48386  0.77253  0.59300  1.0000
  H   H1028     1.0  0.47465  0.00643  0.03025  1.0000
  N   N66       1.0  0.55633  0.00965  0.02609  1.0000
  C   C642      1.0  0.53697  0.00982  0.62409  1.0000
  H   H1029     1.0  0.55165  0.00921  0.61872  1.0000
  H   H1030     1.0  0.96694  0.17359  0.19648  1.0000
  Fe  Fe128     1.0  0.94476  0.23642  0.16046  1.0000
  S   S259      1.0  0.95502  0.20787  0.16918  1.0000
  H   H1031     1.0  0.00757  0.07259  0.05183  1.0000
  H   H1032     1.0  0.71818  0.21275  0.05679  1.0000
  H   H1033     1.0  0.85814  0.23211  0.11754  1.0000
  S   S260      1.0  0.91478  0.24002  0.15624  1.0000
  S   S261      1.0  0.69123  0.24274  0.06527  1.0000
  C   C643      1.0  0.97595  0.08994  0.05788  1.0000
  H   H1034     1.0  0.83736  0.22336  0.47810  1.0000
  H   H1035     1.0  0.88540  0.21382  0.49595  1.0000
  H   H1036     1.0  0.00243  0.15314  0.15804  1.0000
  H   H1037     1.0  0.90809  0.25231  0.29226  1.0000
  H   H1038     1.0  0.89813  0.24869  0.36033  1.0000
  C   C644      1.0  0.96455  0.06215  0.03887  1.0000
  H   H1039     1.0  0.95137  0.06514  0.05304  1.0000
  H   H1040     1.0  0.73795  0.19935  0.06620  1.0000
  C   C645      1.0  0.99629  0.06608  0.03860  1.0000
  H   H1041     1.0  0.87647  0.22507  0.45441  1.0000
  H   H1042     1.0  0.75397  0.22580  0.08368  1.0000
  H   H1043     1.0  0.73403  0.23913  0.07539  1.0000
  C   C646      1.0  0.98821  0.21219  0.20076  1.0000
  C   C647      1.0  0.97478  0.20065  0.19274  1.0000
  C   C648      1.0  0.97734  0.18260  0.20221  1.0000
  C   C649      1.0  0.99316  0.17611  0.21939  1.0000
  C   C650      1.0  0.00680  0.18756  0.22644  1.0000
  H   H1044     1.0  0.98642  0.22612  0.19370  1.0000
  H   H1045     1.0  0.98287  0.04959  0.10047  1.0000
  S   S262      1.0  0.98213  0.01476  0.06509  1.0000
  H   H1046     1.0  0.86588  0.20594  0.47396  1.0000
  H   H1047     1.0  0.96703  0.06676  0.11454  1.0000
  S   S263      1.0  0.99419  0.01828  0.48760  1.0000
  H   H1048     1.0  0.99479  0.16225  0.22708  1.0000
  N   N67       1.0  0.86107  0.25698  0.14531  1.0000
  H   H1049     1.0  0.98675  0.09665  0.07252  1.0000
  C   C651      1.0  0.89131  0.25837  0.34215  1.0000
  H   H1050     1.0  0.69685  0.25378  0.40702  1.0000
  H   H1051     1.0  0.88047  0.23970  0.11686  1.0000
  H   H1052     1.0  0.00547  0.08639  0.41245  1.0000
  H   H1053     1.0  0.96310  0.09378  0.07269  1.0000
  C   C652      1.0  0.68284  0.24925  0.11151  1.0000
  H   H1054     1.0  0.99052  0.07045  0.11462  1.0000
  H   H1055     1.0  0.83583  0.24343  0.50456  1.0000
  H   H1056     1.0  0.91164  0.22602  0.03666  1.0000
  C   C653      1.0  0.87110  0.24545  0.51600  1.0000
  C   C654      1.0  0.00416  0.20565  0.21740  1.0000
  S   S264      1.0  0.95045  0.25237  0.10631  1.0000
  C   C655      1.0  0.84493  0.23498  0.48629  1.0000
  H   H1057     1.0  0.01262  0.05863  0.44909  1.0000
  C   C656      1.0  0.69345  0.25951  0.13452  1.0000
  N   N68       1.0  0.86136  0.22959  0.50663  1.0000
  Fe  Fe129     1.0  0.92058  0.25743  0.10518  1.0000
  H   H1058     1.0  0.85571  0.23688  0.18808  1.0000
  S   S265      1.0  0.94691  0.25909  0.20108  1.0000
  H   H1059     1.0  0.99933  0.05158  0.03954  1.0000
  H   H1060     1.0  0.86442  0.24998  0.08592  1.0000
  C   C657      1.0  0.87279  0.21806  0.48169  1.0000
  N   N69       1.0  0.97915  0.07055  0.05855  1.0000
  C   C658      1.0  0.86383  0.24872  0.18355  1.0000
  C   C659      1.0  0.97987  0.06410  0.09875  1.0000
  H   H1061     1.0  0.84799  0.24267  0.45956  1.0000
  C   C660      1.0  0.73102  0.20749  0.04386  1.0000
  H   H1062     1.0  0.00752  0.02601  0.38373  1.0000
  C   C661      1.0  0.68656  0.25004  0.42894  1.0000
  Fe  Fe130     1.0  0.00925  0.01561  0.09030  1.0000
  H   H1063     1.0  0.00506  0.18307  0.13186  1.0000
  C   C662      1.0  0.86618  0.24411  0.11516  1.0000
  H   H1064     1.0  0.87805  0.24448  0.18755  1.0000
  H   H1065     1.0  0.86029  0.25817  0.20695  1.0000
  H   H1066     1.0  0.83331  0.25118  0.14491  1.0000
  C   C663      1.0  0.74643  0.23337  0.06132  1.0000
  H   H1067     1.0  0.68960  0.23609  0.43784  1.0000
  H   H1068     1.0  0.00323  0.15741  0.08738  1.0000
  H   H1069     1.0  0.87483  0.25305  0.48959  1.0000
  H   H1070     1.0  0.96662  0.04753  0.03848  1.0000
  H   H1071     1.0  0.70739  0.24740  0.49050  1.0000
  H   H1072     1.0  0.01234  0.02271  0.31382  1.0000
  H   H1073     1.0  0.75456  0.24456  0.05122  1.0000
  H   H1074     1.0  0.99009  0.01028  0.38409  1.0000
  C   C664      1.0  0.00476  0.01168  0.38565  1.0000
  S   S266      1.0  0.01112  0.02991  0.14612  1.0000
  H   H1075     1.0  0.76663  0.20634  0.03212  1.0000
  Fe  Fe131     1.0  0.86660  0.03271  0.79951  1.0000
  S   S267      1.0  0.87865  0.05077  0.84158  1.0000
  C   C665      1.0  0.73208  0.23262  0.00047  1.0000
  Fe  Fe132     1.0  0.90115  0.03052  0.74970  1.0000
  S   S268      1.0  0.91577  0.04768  0.78917  1.0000
  S   S269      1.0  0.98472  0.03057  0.60159  1.0000
  Fe  Fe133     1.0  0.90274  0.03223  0.83692  1.0000
  C   C666      1.0  0.89163  0.07512  0.66790  1.0000
  Fe  Fe134     1.0  0.89036  0.06493  0.79030  1.0000
  S   S270      1.0  0.89413  0.09448  0.77977  1.0000
  C   C667      1.0  0.91967  0.06900  0.69861  1.0000
  S   S271      1.0  0.87639  0.04845  0.74829  1.0000
  H   H1076     1.0  0.93196  0.06330  0.62728  1.0000
  S   S272      1.0  0.98660  0.03785  0.96486  1.0000
  Fe  Fe135     1.0  0.85855  0.21512  0.87270  1.0000
  S   S273      1.0  0.83420  0.19885  0.87898  1.0000
  S   S274      1.0  0.87837  0.21203  0.92197  1.0000
  Fe  Fe136     1.0  0.84946  0.22538  0.78818  1.0000
  S   S275      1.0  0.82496  0.20925  0.78948  1.0000
  H   H1077     1.0  0.78797  0.23082  0.78159  1.0000
  Fe  Fe137     1.0  0.81948  0.22081  0.84776  1.0000
  S   S276      1.0  0.79263  0.23426  0.86345  1.0000
  Fe  Fe138     1.0  0.84183  0.18837  0.82058  1.0000
  S   S277      1.0  0.83846  0.15865  0.81510  1.0000
  S   S278      1.0  0.84327  0.23809  0.84541  1.0000
  S   S279      1.0  0.86686  0.20361  0.81523  1.0000
  C   C668      1.0  0.95685  0.01834  0.95772  1.0000
  Fe  Fe139     1.0  0.69825  0.20526  0.95103  1.0000
  S   S280      1.0  0.72565  0.19401  0.93177  1.0000
  N   N70       1.0  0.79317  0.25585  0.75432  1.0000
  C   C669      1.0  0.83650  0.23991  0.67599  1.0000
  C   C670      1.0  0.83028  0.24480  0.63922  1.0000
  H   H1078     1.0  0.86284  0.25446  0.53479  1.0000
  H   H1079     1.0  0.83081  0.22896  0.69164  1.0000
  H   H1080     1.0  0.81971  0.23758  0.62705  1.0000
  S   S281      1.0  0.69007  0.23392  0.95741  1.0000
  C   C671      1.0  0.88434  0.22644  0.95908  1.0000
  C   C672      1.0  0.87728  0.24378  0.96210  1.0000
  C   C673      1.0  0.90205  0.23106  0.01612  1.0000
  H   H1081     1.0  0.68616  0.01887  0.97685  1.0000
  C   C674      1.0  0.85019  0.24908  0.69221  1.0000
  H   H1082     1.0  0.88680  0.08294  0.69320  1.0000
  C   C675      1.0  0.93407  0.02462  0.91020  1.0000
  C   C676      1.0  0.77399  0.22278  0.88138  1.0000
  C   C677      1.0  0.75771  0.23221  0.88814  1.0000
  C   C678      1.0  0.74263  0.22358  0.90267  1.0000
  C   C679      1.0  0.74377  0.20541  0.91094  1.0000
  C   C680      1.0  0.76004  0.19600  0.90405  1.0000
  C   C681      1.0  0.77508  0.20460  0.88928  1.0000
  H   H1083     1.0  0.75671  0.24627  0.88197  1.0000
  H   H1084     1.0  0.73014  0.23096  0.90735  1.0000
  H   H1085     1.0  0.76104  0.18193  0.91023  1.0000
  H   H1086     1.0  0.78750  0.19716  0.88409  1.0000
  C   C682      1.0  0.86370  0.01316  0.90468  1.0000
  C   C683      1.0  0.94583  0.03116  0.68498  1.0000
  C   C684      1.0  0.96168  0.03396  0.66366  1.0000
  C   C685      1.0  0.96489  0.02595  0.62794  1.0000
  C   C686      1.0  0.89671  0.22018  0.98637  1.0000
  H   H1087     1.0  0.90230  0.20682  0.98438  1.0000
  H   H1088     1.0  0.94371  0.03712  0.71271  1.0000
  H   H1089     1.0  0.80329  0.25658  0.69619  1.0000
  H   H1090     1.0  0.87626  0.02027  0.90021  1.0000
  C   C687      1.0  0.89512  0.24845  0.01889  1.0000
  S   S282      1.0  0.68945  0.19758  0.01107  1.0000
  C   C688      1.0  0.93604  0.01262  0.63465  1.0000
  H   H1091     1.0  0.88724  0.06135  0.67251  1.0000
  C   C689      1.0  0.96647  0.03258  0.94372  1.0000
  C   C690      1.0  0.95983  0.04290  0.91301  1.0000
  C   C691      1.0  0.94369  0.03888  0.89610  1.0000
  H   H1092     1.0  0.79798  0.22929  0.73449  1.0000
  H   H1093     1.0  0.96726  0.05392  0.90206  1.0000
  H   H1094     1.0  0.93867  0.04680  0.87232  1.0000
  C   C692      1.0  0.87835  0.11210  0.78918  1.0000
  C   C693      1.0  0.88337  0.12962  0.78253  1.0000
  C   C694      1.0  0.87128  0.14403  0.78955  1.0000
  C   C695      1.0  0.85399  0.14107  0.80342  1.0000
  C   C696      1.0  0.84894  0.12354  0.80973  1.0000
  C   C697      1.0  0.86105  0.10913  0.80283  1.0000
  H   H1095     1.0  0.89669  0.13206  0.77174  1.0000
  H   H1096     1.0  0.87529  0.15741  0.78393  1.0000
  H   H1097     1.0  0.83559  0.12108  0.82032  1.0000
  H   H1098     1.0  0.85695  0.09574  0.80791  1.0000
  C   C698      1.0  0.93273  0.02078  0.67016  1.0000
  H   H1099     1.0  0.93447  0.06865  0.69585  1.0000
  H   H1100     1.0  0.74035  0.24294  0.98678  1.0000
  H   H1101     1.0  0.84912  0.20799  0.53660  1.0000
  H   H1102     1.0  0.91559  0.05542  0.70617  1.0000
  H   H1103     1.0  0.91035  0.09910  0.62798  1.0000
  S   S283      1.0  0.83780  0.02536  0.81194  1.0000
  Fe  Fe140     1.0  0.99706  0.01479  0.55158  1.0000
  N   N71       1.0  0.87705  0.15682  0.90721  1.0000
  C   C699      1.0  0.88175  0.16692  0.87207  1.0000
  C   C700      1.0  0.89098  0.15882  0.93581  1.0000
  C   C701      1.0  0.87571  0.13794  0.89797  1.0000
  C   C702      1.0  0.85970  0.16373  0.92286  1.0000
  H   H1104     1.0  0.87086  0.16693  0.85115  1.0000
  H   H1105     1.0  0.89404  0.16132  0.85765  1.0000
  H   H1106     1.0  0.88402  0.18099  0.87837  1.0000
  H   H1107     1.0  0.88789  0.15141  0.96280  1.0000
  H   H1108     1.0  0.90425  0.15388  0.92468  1.0000
  H   H1109     1.0  0.89216  0.17300  0.94327  1.0000
  H   H1110     1.0  0.87272  0.12980  0.92399  1.0000
  H   H1111     1.0  0.88825  0.13241  0.88433  1.0000
  H   H1112     1.0  0.86482  0.13605  0.87756  1.0000
  H   H1113     1.0  0.85570  0.15648  0.94946  1.0000
  H   H1114     1.0  0.84890  0.16242  0.90183  1.0000
  H   H1115     1.0  0.86020  0.17800  0.92983  1.0000
  H   H1116     1.0  0.75554  0.20545  0.98734  1.0000
  H   H1117     1.0  0.97153  0.04239  0.67492  1.0000
  C   C703      1.0  0.88266  0.25470  0.99179  1.0000
  H   H1118     1.0  0.86777  0.24883  0.94138  1.0000
  H   H1119     1.0  0.82123  0.24893  0.75389  1.0000
  H   H1120     1.0  0.86866  0.21581  0.55875  1.0000
  H   H1121     1.0  0.88472  0.08062  0.64224  1.0000
  C   C704      1.0  0.91646  0.09375  0.65472  1.0000
  N   N72       1.0  0.91123  0.07545  0.66299  1.0000
  H   H1122     1.0  0.91132  0.06843  0.60347  1.0000
  H   H1123     1.0  0.93120  0.09444  0.65118  1.0000
  S   S284      1.0  0.85857  0.24366  0.73866  1.0000
  H   H1124     1.0  0.91312  0.05000  0.63639  1.0000
  H   H1125     1.0  0.84798  0.22850  0.56173  1.0000
  H   H1126     1.0  0.91210  0.10271  0.67852  1.0000
  C   C705      1.0  0.94067  0.01444  0.94111  1.0000
  H   H1127     1.0  0.91579  0.07756  0.72328  1.0000
  C   C706      1.0  0.91717  0.06386  0.63105  1.0000
  C   C707      1.0  0.78826  0.23717  0.75253  1.0000
  H   H1128     1.0  0.96185  0.01032  0.98138  1.0000
  S   S285      1.0  0.91360  0.01919  0.89079  1.0000
  H   H1129     1.0  0.72744  0.22419  0.97738  1.0000
  H   H1130     1.0  0.96381  0.06654  0.00829  1.0000
  N   N73       1.0  0.74207  0.22196  0.02925  1.0000
  H   H1131     1.0  0.76712  0.22480  0.99880  1.0000
  C   C708      1.0  0.75862  0.21434  0.01122  1.0000
  H   H1132     1.0  0.99604  0.07008  0.00775  1.0000
  C   C709      1.0  0.95211  0.01503  0.61380  1.0000
  C   C710      1.0  0.85660  0.21999  0.54246  1.0000
  H   H1133     1.0  0.68365  0.11853  0.00414  1.0000
  Fe  Fe141     1.0  0.68025  0.22617  0.01691  1.0000
  S   S286      1.0  0.89006  0.01350  0.79747  1.0000
  S   S287      1.0  0.91162  0.01851  0.69348  1.0000
  H   H1134     1.0  0.85600  0.01973  0.92842  1.0000
  H   H1135     1.0  0.72002  0.23939  0.01339  1.0000
  Fe  Fe142     1.0  0.99660  0.01770  0.00861  1.0000
  H   H1136     1.0  0.80548  0.01375  0.84805  1.0000
  H   H1137     1.0  0.99696  0.01739  0.68749  1.0000
  H   H1138     1.0  0.81120  0.25134  0.80067  1.0000
  H   H1139     1.0  0.85588  0.01521  0.87825  1.0000
  H   H1140     1.0  0.77481  0.23596  0.74039  1.0000
  C   C711      1.0  0.81104  0.25673  0.77083  1.0000
  H   H1141     1.0  0.97542  0.09521  0.02792  1.0000
  C   C712      1.0  0.83760  0.25890  0.61806  1.0000
  H   H1142     1.0  0.72776  0.19844  0.02040  1.0000
  H   H1143     1.0  0.88357  0.24192  0.53144  1.0000
  Fe  Fe143     1.0  0.87962  0.48519  0.49521  1.0000
  S   S288      1.0  0.87733  0.46387  0.45200  1.0000
  H   H1144     1.0  0.81373  0.49895  0.41371  1.0000
  S   S289      1.0  0.89418  0.27545  0.23008  1.0000
  Fe  Fe144     1.0  0.90732  0.46229  0.45258  1.0000
  S   S290      1.0  0.92222  0.45877  0.39593  1.0000
  H   H1145     1.0  0.91225  0.32508  0.05522  1.0000
  H   H1146     1.0  0.89570  0.36821  0.48723  1.0000
  H   H1147     1.0  0.68369  0.46350  0.34303  1.0000
  H   H1148     1.0  0.98102  0.29025  0.06907  1.0000
  C   C713      1.0  0.94347  0.29145  0.04800  1.0000
  Fe  Fe145     1.0  0.00573  0.48164  0.23763  1.0000
  Fe  Fe146     1.0  0.85140  0.31829  0.48740  1.0000
  S   S291      1.0  0.86207  0.29043  0.49858  1.0000
  H   H1149     1.0  0.88071  0.50069  0.42037  1.0000
  Fe  Fe147     1.0  0.81635  0.30533  0.45787  1.0000
  S   S292      1.0  0.82472  0.27671  0.46598  1.0000
  S   S293      1.0  0.79078  0.31746  0.43262  1.0000
  H   H1150     1.0  0.68460  0.31518  0.17489  1.0000
  Fe  Fe148     1.0  0.85140  0.28410  0.44104  1.0000
  H   H1151     1.0  0.97247  0.45817  0.27580  1.0000
  H   H1152     1.0  0.83527  0.39419  0.51506  1.0000
  S   S294      1.0  0.84234  0.31216  0.42837  1.0000
  S   S295      1.0  0.69302  0.30240  0.28697  1.0000
  Fe  Fe149     1.0  0.69658  0.29218  0.34758  1.0000
  S   S296      1.0  0.72159  0.28007  0.37561  1.0000
  Fe  Fe150     1.0  0.95099  0.27527  0.14667  1.0000
  C   C714      1.0  0.99823  0.43358  0.29499  1.0000
  S   S297      1.0  0.92177  0.28147  0.14170  1.0000
  C   C715      1.0  0.95352  0.50126  0.39180  1.0000
  S   S298      1.0  0.96849  0.29925  0.14722  1.0000
  N   N74       1.0  0.97953  0.43495  0.30939  1.0000
  H   H1153     1.0  0.68171  0.45249  0.27699  1.0000
  C   C716      1.0  0.89013  0.50205  0.39550  1.0000
  S   S299      1.0  0.99538  0.45847  0.20626  1.0000
  H   H1154     1.0  0.99328  0.43126  0.15086  1.0000
  C   C717      1.0  0.87687  0.26870  0.35733  1.0000
  C   C718      1.0  0.86820  0.28115  0.33339  1.0000
  C   C719      1.0  0.87378  0.28305  0.29469  1.0000
  H   H1155     1.0  0.75394  0.26627  0.40888  1.0000
  S   S300      1.0  0.90861  0.44132  0.49873  1.0000
  H   H1156     1.0  0.85696  0.28907  0.34447  1.0000
  C   C720      1.0  0.77170  0.30673  0.41692  1.0000
  C   C721      1.0  0.75752  0.31703  0.40131  1.0000
  C   C722      1.0  0.74211  0.30913  0.38841  1.0000
  C   C723      1.0  0.74072  0.29078  0.39104  1.0000
  C   C724      1.0  0.75487  0.28047  0.40677  1.0000
  C   C725      1.0  0.77029  0.28837  0.41960  1.0000
  H   H1157     1.0  0.75848  0.33123  0.39915  1.0000
  H   H1158     1.0  0.73136  0.31723  0.37643  1.0000
  H   H1159     1.0  0.98721  0.43854  0.36771  1.0000
  H   H1160     1.0  0.78107  0.28029  0.43153  1.0000
  H   H1161     1.0  0.70415  0.27005  0.50490  1.0000
  H   H1162     1.0  0.92489  0.31454  0.09287  1.0000
  C   C726      1.0  0.98216  0.30994  0.11249  1.0000
  Fe  Fe151     1.0  0.91735  0.26382  0.19309  1.0000
  H   H1163     1.0  0.97345  0.40925  0.28946  1.0000
  S   S301      1.0  0.00617  0.48336  0.30158  1.0000
  H   H1164     1.0  0.86679  0.29254  0.27635  1.0000
  C   C727      1.0  0.93655  0.47535  0.38030  1.0000
  C   C728      1.0  0.94195  0.47607  0.34162  1.0000
  C   C729      1.0  0.95342  0.48910  0.32816  1.0000
  H   H1165     1.0  0.88652  0.26872  0.14383  1.0000
  H   H1166     1.0  0.96462  0.44563  0.35780  1.0000
  C   C730      1.0  0.94250  0.48785  0.40549  1.0000
  C   C731      1.0  0.88245  0.37386  0.49295  1.0000
  H   H1167     1.0  0.90994  0.30193  0.06587  1.0000
  N   N75       1.0  0.93429  0.30818  0.03592  1.0000
  H   H1168     1.0  0.93872  0.48717  0.43551  1.0000
  C   C732      1.0  0.00644  0.43020  0.16289  1.0000
  C   C733      1.0  0.69662  0.41999  0.33797  1.0000
  Fe  Fe152     1.0  0.87882  0.44462  0.50189  1.0000
  C   C734      1.0  0.86798  0.36266  0.49676  1.0000
  S   S302      1.0  0.99084  0.50776  0.23018  1.0000
  H   H1169     1.0  0.00497  0.34810  0.10227  1.0000
  C   C735      1.0  0.97849  0.44484  0.34560  1.0000
  H   H1170     1.0  0.98268  0.45868  0.34124  1.0000
  C   C736      1.0  0.97298  0.41701  0.31632  1.0000
  H   H1171     1.0  0.84115  0.49081  0.44952  1.0000
  H   H1172     1.0  0.70306  0.41116  0.31605  1.0000
  C   C737      1.0  0.91967  0.31265  0.06366  1.0000
  H   H1173     1.0  0.89118  0.40077  0.49354  1.0000
  H   H1174     1.0  0.95742  0.48970  0.29818  1.0000
  C   C738      1.0  0.96837  0.44430  0.28053  1.0000
  S   S303      1.0  0.87004  0.26547  0.40612  1.0000
  C   C739      1.0  0.98932  0.32616  0.12173  1.0000
  C   C740      1.0  0.68343  0.43880  0.28900  1.0000
  C   C741      1.0  0.83644  0.50450  0.44763  1.0000
  S   S304      1.0  0.87204  0.33945  0.49295  1.0000
  H   H1175     1.0  0.71913  0.43741  0.29069  1.0000
  H   H1176     1.0  0.95286  0.32444  0.06340  1.0000
  S   S305      1.0  0.85919  0.42278  0.51264  1.0000
  C   C742      1.0  0.68566  0.44953  0.35328  1.0000
  N   N76       1.0  0.69449  0.43841  0.32343  1.0000
  Fe  Fe153     1.0  0.83501  0.28465  0.52339  1.0000
  C   C743      1.0  0.00264  0.32904  0.05788  1.0000
  H   H1177     1.0  0.69587  0.27271  0.18869  1.0000
  S   S306      1.0  0.82491  0.31314  0.51675  1.0000
  H   H1178     1.0  0.93431  0.28028  0.04839  1.0000
  H   H1179     1.0  0.98118  0.40955  0.33780  1.0000
  S   S307      1.0  0.68055  0.49113  0.27978  1.0000
  C   C744      1.0  0.95906  0.50184  0.35316  1.0000
  C   C745      1.0  0.99568  0.31271  0.04869  1.0000
  H   H1180     1.0  0.71462  0.26500  0.45935  1.0000
  C   C746      1.0  0.68748  0.26496  0.17137  1.0000
  C   C747      1.0  0.88819  0.27269  0.27945  1.0000
  H   H1181     1.0  0.00347  0.44682  0.28835  1.0000
  C   C748      1.0  0.87994  0.39233  0.49665  1.0000
  N   N77       1.0  0.68627  0.26202  0.46196  1.0000
  H   H1182     1.0  0.71077  0.45932  0.30236  1.0000
  H   H1183     1.0  0.95892  0.41755  0.32737  1.0000
  N   N78       1.0  0.89399  0.32475  0.38847  1.0000
  C   C749      1.0  0.90710  0.33510  0.40841  1.0000
  C   C750      1.0  0.90154  0.31897  0.35097  1.0000
  C   C751      1.0  0.87757  0.33582  0.38249  1.0000
  C   C752      1.0  0.88972  0.30903  0.41209  1.0000
  H   H1184     1.0  0.90166  0.33966  0.43675  1.0000
  H   H1185     1.0  0.91065  0.34709  0.39147  1.0000
  H   H1186     1.0  0.91958  0.32710  0.41381  1.0000
  H   H1187     1.0  0.89195  0.31103  0.33542  1.0000
  H   H1188     1.0  0.90489  0.33045  0.33221  1.0000
  H   H1189     1.0  0.91390  0.31050  0.35439  1.0000
  H   H1190     1.0  0.86736  0.32845  0.36744  1.0000
  H   H1191     1.0  0.88029  0.34792  0.36515  1.0000
  H   H1192     1.0  0.87141  0.34024  0.41028  1.0000
  H   H1193     1.0  0.90159  0.29994  0.41600  1.0000
  H   H1194     1.0  0.87933  0.30136  0.39867  1.0000
  H   H1195     1.0  0.88456  0.31280  0.44108  1.0000
  H   H1196     1.0  0.99948  0.42604  0.26787  1.0000
  H   H1197     1.0  0.96956  0.43774  0.25222  1.0000
  S   S308      1.0  0.90977  0.48475  0.49306  1.0000
  C   C753      1.0  0.98577  0.30304  0.07606  1.0000
  C   C754      1.0  0.85094  0.37014  0.50434  1.0000
  H   H1198     1.0  0.70490  0.41912  0.36399  1.0000
  H   H1199     1.0  0.86886  0.28255  0.16326  1.0000
  H   H1200     1.0  0.93697  0.46670  0.32194  1.0000
  H   H1201     1.0  0.94874  0.29241  0.07737  1.0000
  C   C755      1.0  0.99964  0.33560  0.09473  1.0000
  C   C756      1.0  0.86294  0.39977  0.50490  1.0000
  C   C757      1.0  0.71212  0.44539  0.31336  1.0000
  H   H1202     1.0  0.71594  0.50331  0.29084  1.0000
  H   H1203     1.0  0.95406  0.44482  0.28946  1.0000
  C   C758      1.0  0.68233  0.28034  0.44856  1.0000
  H   H1204     1.0  0.72085  0.44535  0.33868  1.0000
  H   H1205     1.0  0.98677  0.33153  0.14996  1.0000
  H   H1206     1.0  0.69300  0.28502  0.42869  1.0000
  H   H1207     1.0  0.88299  0.49833  0.36948  1.0000
  H   H1208     1.0  0.69368  0.44968  0.37963  1.0000
  H   H1209     1.0  0.68115  0.28970  0.47279  1.0000
  H   H1210     1.0  0.90130  0.49213  0.39958  1.0000
  C   C759      1.0  0.87220  0.27256  0.14088  1.0000
  H   H1211     1.0  0.68344  0.41446  0.34579  1.0000
  H   H1212     1.0  0.68948  0.43035  0.26599  1.0000
  H   H1213     1.0  0.87072  0.27902  0.11218  1.0000
  H   H1214     1.0  0.83969  0.36170  0.50741  1.0000
  H   H1215     1.0  0.83958  0.26894  0.11313  1.0000
  C   C760      1.0  0.01111  0.44211  0.19089  1.0000
  C   C761      1.0  0.84849  0.38857  0.50872  1.0000
  H   H1216     1.0  0.00720  0.42696  0.31622  1.0000
  H   H1217     1.0  0.83788  0.27237  0.16396  1.0000
  C   C762      1.0  0.68830  0.50930  0.30550  1.0000
  C   C763      1.0  0.82089  0.50916  0.42731  1.0000
  S   S309      1.0  0.90155  0.26291  0.05547  1.0000
  C   C764      1.0  0.94713  0.32249  0.03467  1.0000
  C   C765      1.0  0.84210  0.26261  0.14164  1.0000
  H   H1218     1.0  0.70643  0.26321  0.12384  1.0000
  C   C766      1.0  0.70388  0.26104  0.48009  1.0000
  C   C767      1.0  0.89701  0.26040  0.30350  1.0000
  S   S310      1.0  0.00667  0.47993  0.73910  1.0000
  S   S311      1.0  0.92551  0.45812  0.59260  1.0000
  H   H1219     1.0  0.86056  0.40982  0.59720  1.0000
  H   H1220     1.0  0.81553  0.27053  0.77162  1.0000
  H   H1221     1.0  0.00062  0.42202  0.87817  1.0000
  H   H1222     1.0  0.89110  0.42881  0.56422  1.0000
  H   H1223     1.0  0.95486  0.28783  0.02830  1.0000
  H   H1224     1.0  0.93754  0.30255  0.97594  1.0000
  H   H1225     1.0  0.76632  0.26535  0.76717  1.0000
  S   S312      1.0  0.82910  0.26432  0.57173  1.0000
  H   H1226     1.0  0.94073  0.33533  0.02543  1.0000
  H   H1227     1.0  0.78337  0.27983  0.78108  1.0000
  H   H1228     1.0  0.88759  0.44797  0.62129  1.0000
  C   C768      1.0  0.94630  0.50283  0.63463  1.0000
  C   C769      1.0  0.01106  0.42976  0.88930  1.0000
  C   C770      1.0  0.93786  0.47313  0.61902  1.0000
  C   C771      1.0  0.93673  0.49139  0.61203  1.0000
  H   H1229     1.0  0.79725  0.27779  0.71549  1.0000
  C   C772      1.0  0.95720  0.49618  0.66427  1.0000
  C   C773      1.0  0.95856  0.47790  0.67085  1.0000
  C   C774      1.0  0.94887  0.46647  0.64847  1.0000
  H   H1230     1.0  0.95853  0.31947  0.01450  1.0000
  C   C775      1.0  0.92686  0.30603  0.99753  1.0000
  H   H1231     1.0  0.96686  0.47257  0.69354  1.0000
  H   H1232     1.0  0.94986  0.45238  0.65416  1.0000
  H   H1233     1.0  0.85718  0.27884  0.61838  1.0000
  C   C776      1.0  0.85136  0.26798  0.63414  1.0000
  H   H1234     1.0  0.86179  0.43331  0.59445  1.0000
  H   H1235     1.0  0.88381  0.39192  0.63225  1.0000
  N   N79       1.0  0.88428  0.41987  0.62080  1.0000
  C   C777      1.0  0.88979  0.43600  0.63985  1.0000
  C   C778      1.0  0.86500  0.42149  0.61291  1.0000
  C   C779      1.0  0.88793  0.40427  0.64584  1.0000
  C   C780      1.0  0.89442  0.41773  0.58430  1.0000
  H   H1236     1.0  0.00111  0.49601  0.65949  1.0000
  H   H1237     1.0  0.90429  0.43523  0.64618  1.0000
  H   H1238     1.0  0.88227  0.43825  0.66728  1.0000
  Fe  Fe154     1.0  0.90861  0.46397  0.53996  1.0000
  H   H1239     1.0  0.99691  0.49835  0.57379  1.0000
  Fe  Fe155     1.0  0.00429  0.48091  0.80352  1.0000
  H   H1240     1.0  0.90909  0.41758  0.58853  1.0000
  H   H1241     1.0  0.88060  0.40549  0.67382  1.0000
  C   C781      1.0  0.85760  0.26308  0.67089  1.0000
  H   H1242     1.0  0.89117  0.40535  0.56972  1.0000
  H   H1243     1.0  0.90241  0.40259  0.65181  1.0000
  H   H1244     1.0  0.86822  0.27025  0.68300  1.0000
  H   H1245     1.0  0.85680  0.42275  0.63974  1.0000
  S   S313      1.0  0.87867  0.46621  0.54560  1.0000
  C   C782      1.0  0.77997  0.26573  0.77872  1.0000
  S   S314      1.0  0.00011  0.45505  0.83639  1.0000
  H   H1246     1.0  0.92827  0.49673  0.58961  1.0000
  Fe  Fe156     1.0  0.98897  0.50449  0.73878  1.0000
  S   S315      1.0  0.98454  0.50430  0.80320  1.0000
  H   H1247     1.0  0.87718  0.26811  0.99355  1.0000
  H   H1248     1.0  0.91976  0.31837  0.98739  1.0000
  H   H1249     1.0  0.91716  0.29524  0.99777  1.0000
  H   H1250     1.0  0.78018  0.26331  0.70182  1.0000
  C   C783      1.0  0.79344  0.26374  0.71526  1.0000
  H   H1251     1.0  0.99815  0.30743  0.02037  1.0000
  H   H1252     1.0  0.77941  0.26001  0.80835  1.0000
  S   S316      1.0  0.94871  0.61173  0.04424  1.0000
  C   C784      1.0  0.01280  0.69397  0.10961  1.0000
  Fe  Fe157     1.0  0.78710  0.65702  0.11484  1.0000
  S   S317      1.0  0.81382  0.66894  0.12167  1.0000
  S   S318      1.0  0.77591  0.63483  0.15288  1.0000
  Fe  Fe158     1.0  0.80180  0.69319  0.09189  1.0000
  S   S319      1.0  0.80716  0.72247  0.09816  1.0000
  Fe  Fe159     1.0  0.81999  0.65891  0.06238  1.0000
  C   C785      1.0  0.01056  0.55513  0.16815  1.0000
  S   S320      1.0  0.77446  0.68215  0.08973  1.0000
  H   H1253     1.0  0.71954  0.59030  0.33244  1.0000
  Fe  Fe160     1.0  0.75465  0.58299  0.45206  1.0000
  S   S321      1.0  0.78101  0.58395  0.41949  1.0000
  C   C786      1.0  0.90276  0.65410  0.03831  1.0000
  Fe  Fe161     1.0  0.73645  0.56570  0.38382  1.0000
  S   S322      1.0  0.76137  0.56558  0.34660  1.0000
  S   S323      1.0  0.70860  0.55770  0.36764  1.0000
  Fe  Fe162     1.0  0.77579  0.55649  0.40019  1.0000
  S   S324      1.0  0.79439  0.53177  0.39996  1.0000
  Fe  Fe163     1.0  0.76474  0.59303  0.36834  1.0000
  S   S325      1.0  0.77246  0.61743  0.33292  1.0000
  S   S326      1.0  0.75046  0.55481  0.43552  1.0000
  S   S327      1.0  0.73881  0.59392  0.40259  1.0000
  H   H1254     1.0  0.84652  0.54543  0.47648  1.0000
  S   S328      1.0  0.97006  0.64413  0.08098  1.0000
  C   C787      1.0  0.99517  0.55775  0.19103  1.0000
  H   H1255     1.0  0.91823  0.51490  0.43056  1.0000
  Fe  Fe164     1.0  0.97116  0.61447  0.08438  1.0000
  S   S329      1.0  0.97051  0.60063  0.14191  1.0000
  H   H1256     1.0  0.91420  0.53491  0.35518  1.0000
  H   H1257     1.0  0.99481  0.65051  0.20109  1.0000
  H   H1258     1.0  0.78959  0.55075  0.47119  1.0000
  C   C788      1.0  0.98606  0.58316  0.15136  1.0000
  C   C789      1.0  0.72225  0.59799  0.30564  1.0000
  H   H1259     1.0  0.71690  0.59200  0.21041  1.0000
  H   H1260     1.0  0.99501  0.67515  0.08711  1.0000
  H   H1261     1.0  0.99865  0.52988  0.05612  1.0000
  C   C790      1.0  0.00149  0.58058  0.12855  1.0000
  Fe  Fe165     1.0  0.99025  0.64029  0.03319  1.0000
  C   C791      1.0  0.88014  0.63265  0.05213  1.0000
  S   S330      1.0  0.97202  0.51919  0.33600  1.0000
  N   N80       1.0  0.89662  0.52018  0.39218  1.0000
  C   C792      1.0  0.68303  0.53559  0.34406  1.0000
  H   H1262     1.0  0.80460  0.56049  0.50341  1.0000
  C   C793      1.0  0.86650  0.64586  0.04883  1.0000
  Fe  Fe166     1.0  0.94939  0.64105  0.03618  1.0000
  H   H1263     1.0  0.99268  0.54899  0.21523  1.0000
  C   C794      1.0  0.70140  0.53853  0.34458  1.0000
  C   C795      1.0  0.71325  0.52671  0.32551  1.0000
  S   S331      1.0  0.86521  0.51236  0.49203  1.0000
  H   H1264     1.0  0.74764  0.62527  0.49616  1.0000
  H   H1265     1.0  0.00339  0.56907  0.04761  1.0000
  H   H1266     1.0  0.72742  0.52877  0.32558  1.0000
  C   C796      1.0  0.98780  0.53904  0.06719  1.0000
  C   C797      1.0  0.81442  0.52684  0.42477  1.0000
  C   C798      1.0  0.82392  0.53992  0.44215  1.0000
  C   C799      1.0  0.83935  0.53524  0.46289  1.0000
  C   C800      1.0  0.72032  0.59908  0.23674  1.0000
  H   H1267     1.0  0.81947  0.55364  0.43933  1.0000
  H   H1268     1.0  0.73669  0.60092  0.30492  1.0000
  H   H1269     1.0  0.76734  0.72511  0.08809  1.0000
  C   C801      1.0  0.90855  0.52157  0.35801  1.0000
  C   C802      1.0  0.72832  0.57152  0.26915  1.0000
  H   H1270     1.0  0.87221  0.53233  0.41426  1.0000
  S   S332      1.0  0.79355  0.64638  0.05602  1.0000
  H   H1271     1.0  0.73526  0.72698  0.03472  1.0000
  H   H1272     1.0  0.79854  0.52139  0.50089  1.0000
  C   C803      1.0  0.77529  0.63034  0.20308  1.0000
  C   C804      1.0  0.77084  0.61335  0.21620  1.0000
  C   C805      1.0  0.77019  0.60905  0.25572  1.0000
  C   C806      1.0  0.77375  0.62181  0.28268  1.0000
  C   C807      1.0  0.77841  0.63874  0.26951  1.0000
  C   C808      1.0  0.77926  0.64298  0.22998  1.0000
  H   H1273     1.0  0.76797  0.60341  0.19560  1.0000
  H   H1274     1.0  0.76699  0.59590  0.26536  1.0000
  H   H1275     1.0  0.78125  0.64870  0.29011  1.0000
  H   H1276     1.0  0.78272  0.65610  0.22041  1.0000
  C   C809      1.0  0.79281  0.73332  0.16887  1.0000
  C   C810      1.0  0.80199  0.73790  0.13501  1.0000
  H   H1277     1.0  0.78197  0.74250  0.22323  1.0000
  H   H1278     1.0  0.78880  0.71988  0.17349  1.0000
  H   H1279     1.0  0.99370  0.65689  0.15134  1.0000
  C   C811      1.0  0.69825  0.58391  0.27493  1.0000
  C   C812      1.0  0.74469  0.62378  0.52650  1.0000
  H   H1280     1.0  0.78189  0.56845  0.50130  1.0000
  H   H1281     1.0  0.86071  0.67355  0.03803  1.0000
  H   H1282     1.0  0.95627  0.55692  0.06513  1.0000
  H   H1283     1.0  0.69553  0.57560  0.30092  1.0000
  H   H1284     1.0  0.74276  0.57415  0.26648  1.0000
  H   H1285     1.0  0.91155  0.53781  0.42550  1.0000
  H   H1286     1.0  0.90855  0.62649  0.05012  1.0000
  S   S333      1.0  0.99252  0.61048  0.03905  1.0000
  H   H1287     1.0  0.89794  0.52309  0.45324  1.0000
  S   S334      1.0  0.84401  0.63982  0.05381  1.0000
  H   H1288     1.0  0.77609  0.74579  0.07325  1.0000
  C   C813      1.0  0.79070  0.55631  0.50024  1.0000
  C   C814      1.0  0.90652  0.52419  0.42686  1.0000
  H   H1289     1.0  0.72645  0.56305  0.29522  1.0000
  H   H1290     1.0  0.72476  0.56358  0.24415  1.0000
  C   C815      1.0  0.80705  0.75547  0.12950  1.0000
  H   H1291     1.0  0.97665  0.53090  0.07781  1.0000
  C   C816      1.0  0.00831  0.68009  0.08574  1.0000
  H   H1292     1.0  0.00411  0.58934  0.10459  1.0000
  C   C817      1.0  0.96792  0.56417  0.05381  1.0000
  H   H1293     1.0  0.71456  0.61082  0.30799  1.0000
  H   H1294     1.0  0.99301  0.54572  0.09252  1.0000
  N   N81       1.0  0.71729  0.58813  0.27159  1.0000
  H   H1295     1.0  0.78238  0.71049  0.03327  1.0000
  H   H1296     1.0  0.98428  0.63662  0.16789  1.0000
  C   C818      1.0  0.88124  0.53289  0.38849  1.0000
  H   H1297     1.0  0.75244  0.74401  0.08052  1.0000
  H   H1298     1.0  0.95795  0.51106  0.41123  1.0000
  H   H1299     1.0  0.97116  0.57383  0.20071  1.0000
  H   H1300     1.0  0.71214  0.61168  0.23759  1.0000
  C   C819      1.0  0.84566  0.51751  0.46582  1.0000
  N   N82       1.0  0.83233  0.61880  0.16238  1.0000
  C   C820      1.0  0.84754  0.62964  0.15073  1.0000
  C   C821      1.0  0.82055  0.61698  0.12947  1.0000
  C   C822      1.0  0.82214  0.62744  0.19416  1.0000
  C   C823      1.0  0.83905  0.60109  0.17513  1.0000
  H   H1301     1.0  0.85667  0.63144  0.17483  1.0000
  H   H1302     1.0  0.84296  0.64302  0.14040  1.0000
  H   H1303     1.0  0.85550  0.62351  0.12672  1.0000
  H   H1304     1.0  0.80875  0.60912  0.13727  1.0000
  H   H1305     1.0  0.81531  0.63008  0.11902  1.0000
  H   H1306     1.0  0.82776  0.61063  0.10473  1.0000
  H   H1307     1.0  0.81098  0.61925  0.20455  1.0000
  H   H1308     1.0  0.81611  0.64049  0.18498  1.0000
  H   H1309     1.0  0.83069  0.62970  0.21903  1.0000
  H   H1310     1.0  0.82788  0.59256  0.18394  1.0000
  H   H1311     1.0  0.84792  0.60197  0.20006  1.0000
  H   H1312     1.0  0.84682  0.59425  0.15176  1.0000
  C   C824      1.0  0.98301  0.57182  0.18277  1.0000
  H   H1313     1.0  0.76698  0.53077  0.49509  1.0000
  C   C825      1.0  0.78896  0.74619  0.19703  1.0000
  H   H1314     1.0  0.00288  0.69950  0.12949  1.0000
  C   C826      1.0  0.89820  0.63676  0.04734  1.0000
  H   H1315     1.0  0.87673  0.61914  0.05833  1.0000
  H   H1316     1.0  0.73452  0.60266  0.23366  1.0000
  S   S335      1.0  0.75052  0.58737  0.51683  1.0000
  C   C827      1.0  0.87108  0.66326  0.04071  1.0000
  H   H1317     1.0  0.75002  0.70801  0.04245  1.0000
  H   H1318     1.0  0.97301  0.57181  0.07790  1.0000
  Fe  Fe167     1.0  0.99365  0.51040  0.29366  1.0000
  H   H1319     1.0  0.81417  0.75915  0.10344  1.0000
  H   H1320     1.0  0.96294  0.57390  0.03187  1.0000
  H   H1321     1.0  0.00228  0.62035  0.11956  1.0000
  H   H1322     1.0  0.75760  0.54875  0.52295  1.0000
  N   N83       1.0  0.98189  0.55199  0.03743  1.0000
  C   C828      1.0  0.76476  0.73699  0.06940  1.0000
  H   H1323     1.0  0.88562  0.54671  0.38535  1.0000
  H   H1324     1.0  0.99156  0.74638  0.14681  1.0000
  H   H1325     1.0  0.87315  0.52999  0.36324  1.0000
  C   C829      1.0  0.88912  0.66731  0.03513  1.0000
  C   C830      1.0  0.76755  0.53739  0.52327  1.0000
  C   C831      1.0  0.79851  0.52799  0.52920  1.0000
  H   H1326     1.0  0.90143  0.51898  0.33123  1.0000
  H   H1327     1.0  0.00383  0.61147  0.18830  1.0000
  S   S336      1.0  0.81032  0.68399  0.03268  1.0000
  H   H1328     1.0  0.92001  0.51180  0.35950  1.0000
  C   C832      1.0  0.70670  0.51225  0.30586  1.0000
  H   H1329     1.0  0.68950  0.59610  0.27725  1.0000
  C   C833      1.0  0.99568  0.64540  0.17138  1.0000
  H   H1330     1.0  0.01195  0.64035  0.10290  1.0000
  H   H1331     1.0  0.69402  0.57641  0.24982  1.0000
  N   N84       1.0  0.78567  0.54335  0.53027  1.0000
  Fe  Fe168     1.0  0.69463  0.65944  0.74232  1.0000
  S   S337      1.0  0.72168  0.64607  0.73225  1.0000
  H   H1332     1.0  0.93149  0.62526  0.97807  1.0000
  Fe  Fe169     1.0  0.70761  0.69566  0.71669  1.0000
  S   S338      1.0  0.73568  0.68504  0.70626  1.0000
  S   S339      1.0  0.69471  0.72283  0.70400  1.0000
  Fe  Fe170     1.0  0.72307  0.66227  0.67749  1.0000
  S   S340      1.0  0.73260  0.65690  0.61556  1.0000
  Fe  Fe171     1.0  0.73209  0.66968  0.76210  1.0000
  S   S341      1.0  0.75350  0.66317  0.80675  1.0000
  S   S342      1.0  0.69505  0.67380  0.68561  1.0000
  S   S343      1.0  0.70497  0.68221  0.77446  1.0000
  S   S344      1.0  0.76253  0.67961  0.98514  1.0000
  Fe  Fe172     1.0  0.97002  0.61014  0.99774  1.0000
  S   S345      1.0  0.96890  0.51124  0.69189  1.0000
  S   S346      1.0  0.96299  0.58998  0.95340  1.0000
  H   H1333     1.0  0.90785  0.62571  0.97337  1.0000
  S   S347      1.0  0.96957  0.63959  0.98743  1.0000
  H   H1334     1.0  0.71892  0.62819  0.91065  1.0000
  H   H1335     1.0  0.73756  0.62789  0.81110  1.0000
  C   C834      1.0  0.99720  0.56220  0.02369  1.0000
  C   C835      1.0  0.00719  0.56937  0.89670  1.0000
  C   C836      1.0  0.97769  0.57736  0.92286  1.0000
  C   C837      1.0  0.97067  0.56422  0.90030  1.0000
  C   C838      1.0  0.98184  0.55368  0.87606  1.0000
  C   C839      1.0  0.00018  0.55625  0.87400  1.0000
  C   C840      1.0  0.99636  0.51079  0.59038  1.0000
  C   C841      1.0  0.99603  0.57986  0.92104  1.0000
  C   C842      1.0  0.74113  0.60529  0.58300  1.0000
  H   H1336     1.0  0.97628  0.54366  0.85872  1.0000
  N   N85       1.0  0.73159  0.70975  0.58689  1.0000
  H   H1337     1.0  0.70306  0.70780  0.58831  1.0000
  S   S348      1.0  0.01193  0.52279  0.74047  1.0000
  H   H1338     1.0  0.93923  0.61120  0.89568  1.0000
  H   H1339     1.0  0.74781  0.75569  0.01411  1.0000
  H   H1340     1.0  0.74129  0.59230  0.59644  1.0000
  C   C843      1.0  0.75584  0.66822  0.85620  1.0000
  C   C844      1.0  0.77052  0.66074  0.87602  1.0000
  C   C845      1.0  0.77285  0.66405  0.91530  1.0000
  C   C846      1.0  0.76046  0.67489  0.93545  1.0000
  C   C847      1.0  0.74573  0.68234  0.91564  1.0000
  C   C848      1.0  0.74345  0.67909  0.87633  1.0000
  H   H1341     1.0  0.78025  0.65236  0.86085  1.0000
  H   H1342     1.0  0.78425  0.65823  0.92994  1.0000
  H   H1343     1.0  0.73605  0.69076  0.93079  1.0000
  H   H1344     1.0  0.73216  0.68508  0.86159  1.0000
  C   C849      1.0  0.73697  0.63727  0.58865  1.0000
  C   C850      1.0  0.73057  0.72880  0.57660  1.0000
  H   H1345     1.0  0.99512  0.52208  0.56965  1.0000
  H   H1346     1.0  0.79933  0.55664  0.57407  1.0000
  C   C851      1.0  0.73707  0.62035  0.60548  1.0000
  H   H1347     1.0  0.69580  0.64897  0.85008  1.0000
  H   H1348     1.0  0.78218  0.54244  0.59158  1.0000
  H   H1349     1.0  0.73420  0.61886  0.63584  1.0000
  C   C852      1.0  0.72528  0.74075  0.68490  1.0000
  C   C853      1.0  0.70664  0.74095  0.68541  1.0000
  H   H1350     1.0  0.79523  0.51791  0.55156  1.0000
  H   H1351     1.0  0.73272  0.72958  0.69712  1.0000
  C   C854      1.0  0.73432  0.75522  0.66912  1.0000
  H   H1352     1.0  0.92142  0.60751  0.95448  1.0000
  H   H1353     1.0  0.74081  0.65182  0.53559  1.0000
  H   H1354     1.0  0.71496  0.69056  0.61416  1.0000
  H   H1355     1.0  0.99854  0.52884  0.65555  1.0000
  H   H1356     1.0  0.91117  0.65589  0.94548  1.0000
  H   H1357     1.0  0.73820  0.60946  0.84425  1.0000
  C   C855      1.0  0.70425  0.61710  0.82321  1.0000
  H   H1358     1.0  0.00970  0.54042  0.61725  1.0000
  H   H1359     1.0  0.74874  0.75501  0.66894  1.0000
  H   H1360     1.0  0.90822  0.63556  0.86941  1.0000
  H   H1361     1.0  0.00776  0.55355  0.00987  1.0000
  C   C856      1.0  0.90717  0.62854  0.89761  1.0000
  H   H1362     1.0  0.71430  0.65105  0.81712  1.0000
  H   H1363     1.0  0.92420  0.65885  0.90193  1.0000
  H   H1364     1.0  0.74780  0.69177  0.62098  1.0000
  H   H1365     1.0  0.72807  0.73708  0.60237  1.0000
  H   H1366     1.0  0.79164  0.73091  0.01855  1.0000
  H   H1367     1.0  0.71953  0.73203  0.55664  1.0000
  C   C857      1.0  0.92071  0.62209  0.95844  1.0000
  H   H1368     1.0  0.81240  0.53201  0.53376  1.0000
  Fe  Fe173     1.0  0.00889  0.52068  0.80489  1.0000
  H   H1369     1.0  0.68274  0.75610  0.67072  1.0000
  H   H1370     1.0  0.94127  0.63277  0.87384  1.0000
  H   H1371     1.0  0.93494  0.65392  0.94649  1.0000
  H   H1372     1.0  0.95649  0.56215  0.90147  1.0000
  H   H1373     1.0  0.74504  0.71370  0.63956  1.0000
  H   H1374     1.0  0.00163  0.58998  0.93800  1.0000
  H   H1375     1.0  0.89442  0.63320  0.91186  1.0000
  H   H1376     1.0  0.76314  0.52784  0.54576  1.0000
  H   H1377     1.0  0.72309  0.70147  0.53185  1.0000
  H   H1378     1.0  0.70668  0.62150  0.79299  1.0000
  H   H1379     1.0  0.75906  0.74493  0.97425  1.0000
  H   H1380     1.0  0.94511  0.51695  0.62934  1.0000
  H   H1381     1.0  0.73524  0.68478  0.55875  1.0000
  H   H1382     1.0  0.70742  0.60263  0.82497  1.0000
  N   N86       1.0  0.71493  0.62695  0.85003  1.0000
  C   C858      1.0  0.74807  0.72040  0.02509  1.0000
  H   H1383     1.0  0.71408  0.60665  0.89381  1.0000
  C   C859      1.0  0.71039  0.64605  0.84605  1.0000
  C   C860      1.0  0.78589  0.55180  0.56809  1.0000
  H   H1384     1.0  0.96982  0.55203  0.98221  1.0000
  H   H1385     1.0  0.96311  0.53459  0.01413  1.0000
  N   N87       1.0  0.01223  0.51206  0.61430  1.0000
  N   N88       1.0  0.76320  0.73208  0.02884  1.0000
  H   H1386     1.0  0.77624  0.56343  0.56944  1.0000
  C   C861      1.0  0.71095  0.62106  0.88980  1.0000
  H   H1387     1.0  0.71255  0.71224  0.63362  1.0000
  C   C862      1.0  0.73413  0.62369  0.84106  1.0000
  C   C863      1.0  0.73432  0.69922  0.55180  1.0000
  C   C864      1.0  0.74667  0.70605  0.61269  1.0000
  C   C865      1.0  0.74080  0.63885  0.54904  1.0000
  N   N89       1.0  0.92260  0.63181  0.92161  1.0000
  H   H1388     1.0  0.98487  0.53353  0.99123  1.0000
  C   C866      1.0  0.93925  0.62562  0.90161  1.0000
  H   H1389     1.0  0.90619  0.61418  0.89201  1.0000
  H   H1390     1.0  0.77149  0.75725  0.00725  1.0000
  H   H1391     1.0  0.75959  0.70955  0.59886  1.0000
  H   H1392     1.0  0.71753  0.65385  0.86709  1.0000
  C   C867      1.0  0.92324  0.65095  0.92901  1.0000
  C   C868      1.0  0.71479  0.70489  0.60654  1.0000
  H   H1393     1.0  0.95113  0.62760  0.91923  1.0000
  C   C869      1.0  0.77982  0.72266  0.01578  1.0000
  H   H1394     1.0  0.77912  0.71847  0.98544  1.0000
  C   C870      1.0  0.97460  0.54258  0.00490  1.0000
  H   H1395     1.0  0.74665  0.71627  0.99486  1.0000
  H   H1396     1.0  0.74256  0.63133  0.86012  1.0000
  C   C871      1.0  0.74496  0.60687  0.54338  1.0000
  H   H1397     1.0  0.98388  0.51086  0.60838  1.0000
  C   C872      1.0  0.69716  0.75579  0.67033  1.0000
  H   H1398     1.0  0.74319  0.73311  0.56268  1.0000
  C   C873      1.0  0.01066  0.52854  0.63642  1.0000
  H   H1399     1.0  0.99304  0.57246  0.00209  1.0000
  C   C874      1.0  0.76023  0.74822  0.00503  1.0000
  H   H1400     1.0  0.68967  0.61928  0.82916  1.0000
  H   H1401     1.0  0.69660  0.62357  0.89757  1.0000
  H   H1402     1.0  0.74687  0.70253  0.53620  1.0000
  Fe  Fe174     1.0  0.78326  0.67232  0.03115  1.0000
  H   H1403     1.0  0.89252  0.68077  0.02824  1.0000
  S   S349      1.0  0.92516  0.65969  0.02887  1.0000
  S   S350      1.0  0.72513  0.83976  0.47384  1.0000
  Fe  Fe175     1.0  0.79103  0.84057  0.27680  1.0000
  S   S351      1.0  0.81324  0.81995  0.26723  1.0000
  S   S352      1.0  0.78594  0.84580  0.34127  1.0000
  Fe  Fe176     1.0  0.78604  0.84560  0.18919  1.0000
  S   S353      1.0  0.80727  0.82466  0.17571  1.0000
  S   S354      1.0  0.77076  0.85568  0.13634  1.0000
  Fe  Fe177     1.0  0.79545  0.80869  0.22373  1.0000
  S   S355      1.0  0.78924  0.77942  0.22812  1.0000
  Fe  Fe178     1.0  0.82325  0.83782  0.22027  1.0000
  S   S356      1.0  0.85229  0.84133  0.20158  1.0000
  S   S357      1.0  0.77286  0.82857  0.23492  1.0000
  S   S358      1.0  0.80247  0.85952  0.23197  1.0000
  Fe  Fe179     1.0  0.94429  0.87772  0.27349  1.0000
  S   S359      1.0  0.96140  0.86413  0.31814  1.0000
  S   S360      1.0  0.91427  0.87952  0.28654  1.0000
  Fe  Fe180     1.0  0.97676  0.89068  0.22973  1.0000
  S   S361      1.0  0.99594  0.87812  0.27136  1.0000
  S   S362      1.0  0.99174  0.90487  0.18271  1.0000
  Fe  Fe181     1.0  0.97895  0.85466  0.26881  1.0000
  S   S363      1.0  0.99100  0.82653  0.27184  1.0000
  Fe  Fe182     1.0  0.97710  0.88877  0.31694  1.0000
  S   S364      1.0  0.98844  0.89845  0.37245  1.0000
  S   S365      1.0  0.96069  0.86638  0.22391  1.0000
  S   S366      1.0  0.95909  0.90315  0.27554  1.0000
  Fe  Fe183     1.0  0.99693  0.98845  0.48492  1.0000
  C   C875      1.0  0.84411  0.84308  0.10466  1.0000
  S   S367      1.0  0.96691  0.96601  0.07106  1.0000
  H   H1404     1.0  0.80785  0.84600  0.09979  1.0000
  N   N90       1.0  0.74111  0.96088  0.04009  1.0000
  C   C876      1.0  0.98144  0.92331  0.16002  1.0000
  H   H1405     1.0  0.78770  0.81061  0.38795  1.0000
  C   C877      1.0  0.98489  0.95299  0.13391  1.0000
  C   C878      1.0  0.97128  0.95052  0.10818  1.0000
  C   C879      1.0  0.96201  0.93483  0.11005  1.0000
  C   C880      1.0  0.96708  0.92121  0.13595  1.0000
  H   H1406     1.0  0.95141  0.93289  0.09029  1.0000
  H   H1407     1.0  0.96060  0.90871  0.13566  1.0000
  C   C881      1.0  0.98331  0.95491  0.42004  1.0000
  C   C882      1.0  0.97462  0.95079  0.38626  1.0000
  C   C883      1.0  0.97649  0.93374  0.37067  1.0000
  C   C884      1.0  0.98672  0.92048  0.38929  1.0000
  C   C885      1.0  0.99548  0.92463  0.42293  1.0000
  C   C886      1.0  0.99394  0.94179  0.43805  1.0000
  C   C887      1.0  0.00439  0.94159  0.03611  1.0000
  H   H1408     1.0  0.96993  0.93082  0.34444  1.0000
  H   H1409     1.0  0.83735  0.83384  0.12486  1.0000
  C   C888      1.0  0.74314  0.95103  0.07678  1.0000
  H   H1410     1.0  0.84752  0.83574  0.07799  1.0000
  H   H1411     1.0  0.92651  0.91965  0.43282  1.0000
  C   C889      1.0  0.99004  0.93937  0.15957  1.0000
  C   C890      1.0  0.86937  0.85157  0.22652  1.0000
  C   C891      1.0  0.88696  0.85038  0.21159  1.0000
  C   C892      1.0  0.90090  0.85863  0.22983  1.0000
  C   C893      1.0  0.89735  0.86834  0.26307  1.0000
  C   C894      1.0  0.87975  0.86956  0.27796  1.0000
  C   C895      1.0  0.86584  0.86117  0.25993  1.0000
  H   H1412     1.0  0.88986  0.84299  0.18580  1.0000
  H   H1413     1.0  0.91435  0.85758  0.21800  1.0000
  H   H1414     1.0  0.87682  0.87705  0.30362  1.0000
  H   H1415     1.0  0.85238  0.86225  0.27170  1.0000
  H   H1416     1.0  0.73029  0.94554  0.08688  1.0000
  H   H1417     1.0  0.95048  0.90426  0.36755  1.0000
  C   C896      1.0  0.01029  0.98269  0.35928  1.0000
  C   C897      1.0  0.79656  0.80164  0.37031  1.0000
  H   H1418     1.0  0.80726  0.78174  0.15299  1.0000
  H   H1419     1.0  0.84565  0.86455  0.04266  1.0000
  C   C898      1.0  0.76444  0.87225  0.06678  1.0000
  C   C899      1.0  0.77285  0.87333  0.10224  1.0000
  C   C900      1.0  0.78249  0.88831  0.10938  1.0000
  H   H1420     1.0  0.79107  0.76773  0.30957  1.0000
  C   C901      1.0  0.82868  0.86835  0.13337  1.0000
  H   H1421     1.0  0.99961  0.84792  0.33605  1.0000
  H   H1422     1.0  0.78868  0.88955  0.13680  1.0000
  C   C902      1.0  0.74243  0.84103  0.43765  1.0000
  C   C903      1.0  0.73805  0.83917  0.39889  1.0000
  C   C904      1.0  0.75108  0.84048  0.36907  1.0000
  C   C905      1.0  0.76875  0.84384  0.37750  1.0000
  C   C906      1.0  0.77314  0.84562  0.41626  1.0000
  C   C907      1.0  0.76015  0.84412  0.44610  1.0000
  H   H1423     1.0  0.72442  0.83684  0.39178  1.0000
  H   H1424     1.0  0.74738  0.83922  0.33952  1.0000
  H   H1425     1.0  0.78671  0.84828  0.42330  1.0000
  H   H1426     1.0  0.76381  0.84568  0.47560  1.0000
  H   H1427     1.0  0.93730  0.92923  0.33017  1.0000
  H   H1428     1.0  0.78479  0.77049  0.39633  1.0000
  H   H1429     1.0  0.99172  0.96523  0.13355  1.0000
  H   H1430     1.0  0.75303  0.93967  0.07377  1.0000
  H   H1431     1.0  0.99813  0.79333  0.17293  1.0000
  H   H1432     1.0  0.00511  0.95255  0.05671  1.0000
  N   N91       1.0  0.83278  0.85913  0.09701  1.0000
  H   H1433     1.0  0.98315  0.76432  0.17615  1.0000
  H   H1434     1.0  0.73208  0.98510  0.06717  1.0000
  H   H1435     1.0  0.84107  0.87181  0.14801  1.0000
  N   N92       1.0  0.00677  0.76978  0.14275  1.0000
  H   H1436     1.0  0.96644  0.96088  0.37201  1.0000
  H   H1437     1.0  0.00047  0.91601  0.08882  1.0000
  H   H1438     1.0  0.76634  0.78977  0.30545  1.0000
  H   H1439     1.0  0.76776  0.76860  0.36141  1.0000
  H   H1440     1.0  0.71455  0.97117  0.05369  1.0000
  C   C908      1.0  0.80316  0.76832  0.15756  1.0000
  H   H1441     1.0  0.99574  0.98089  0.35650  1.0000
  H   H1442     1.0  0.00606  0.76899  0.08121  1.0000
  N   N93       1.0  0.92330  0.91413  0.37319  1.0000
  C   C909      1.0  0.93687  0.89942  0.37315  1.0000
  C   C910      1.0  0.92399  0.92368  0.33589  1.0000
  C   C911      1.0  0.92696  0.92641  0.40425  1.0000
  C   C912      1.0  0.90542  0.90696  0.37935  1.0000
  H   H1443     1.0  0.93707  0.89212  0.40108  1.0000
  H   H1444     1.0  0.93427  0.88971  0.35063  1.0000
  H   H1445     1.0  0.91385  0.93480  0.33473  1.0000
  H   H1446     1.0  0.92138  0.91474  0.31179  1.0000
  H   H1447     1.0  0.94045  0.93188  0.40057  1.0000
  H   H1448     1.0  0.91709  0.93779  0.40499  1.0000
  H   H1449     1.0  0.89480  0.91766  0.37958  1.0000
  H   H1450     1.0  0.90446  0.89947  0.40699  1.0000
  H   H1451     1.0  0.90230  0.89769  0.35616  1.0000
  S   S368      1.0  0.98024  0.97651  0.43876  1.0000
  C   C913      1.0  0.76573  0.88583  0.03866  1.0000
  H   H1452     1.0  0.80618  0.79475  0.38978  1.0000
  N   N94       1.0  0.78618  0.78900  0.34911  1.0000
  H   H1453     1.0  0.80814  0.76985  0.34435  1.0000
  H   H1454     1.0  0.80756  0.86596  0.07152  1.0000
  C   C914      1.0  0.81600  0.85411  0.07960  1.0000
  H   H1455     1.0  0.85683  0.84637  0.11819  1.0000
  C   C915      1.0  0.79415  0.76374  0.19159  1.0000
  H   H1456     1.0  0.99472  0.00738  0.31329  1.0000
  H   H1457     1.0  0.82113  0.85989  0.15381  1.0000
  C   C916      1.0  0.77586  0.77816  0.37658  1.0000
  H   H1458     1.0  0.00124  0.94100  0.17791  1.0000
  H   H1459     1.0  0.74784  0.95964  0.09965  1.0000
  H   H1460     1.0  0.82048  0.88073  0.12866  1.0000
  Fe  Fe184     1.0  0.98814  0.98577  0.05898  1.0000
  C   C917      1.0  0.77377  0.79883  0.32344  1.0000
  H   H1461     1.0  0.79113  0.91348  0.08731  1.0000
  C   C918      1.0  0.00976  0.85284  0.35549  1.0000
  C   C919      1.0  0.00377  0.78919  0.14449  1.0000
  C   C920      1.0  0.79846  0.77740  0.32610  1.0000
  H   H1462     1.0  0.76395  0.80733  0.33981  1.0000
  C   C921      1.0  0.77537  0.90078  0.04577  1.0000
  H   H1463     1.0  0.75685  0.86079  0.06098  1.0000
  H   H1464     1.0  0.76371  0.97675  0.04901  1.0000
  C   C922      1.0  0.78374  0.90191  0.08131  1.0000
  H   H1465     1.0  0.76653  0.78660  0.39445  1.0000
  C   C923      1.0  0.00954  0.81922  0.24309  1.0000
  H   H1466     1.0  0.85507  0.87510  0.08283  1.0000
  H   H1467     1.0  0.01236  0.79421  0.27333  1.0000
  H   H1468     1.0  0.83416  0.88332  0.06411  1.0000
  H   H1469     1.0  0.00890  0.86754  0.35368  1.0000
  H   H1470     1.0  0.80626  0.78517  0.30468  1.0000
  H   H1471     1.0  0.78105  0.80771  0.30351  1.0000
  H   H1472     1.0  0.69067  0.85707  0.49238  1.0000
  C   C924      1.0  0.84236  0.87105  0.07043  1.0000
  H   H1473     1.0  0.99443  0.79421  0.12219  1.0000
  H   H1474     1.0  0.00069  0.94476  0.46406  1.0000
  H   H1475     1.0  0.80431  0.81026  0.35042  1.0000
  C   C925      1.0  0.72796  0.97582  0.04499  1.0000
  H   H1476     1.0  0.81856  0.84631  0.05321  1.0000
  C   C926      1.0  0.98961  0.76106  0.14795  1.0000
  C   C927      1.0  0.00929  0.00848  0.31744  1.0000
  H   H1477     1.0  0.68841  0.84572  0.42762  1.0000
  H   H1478     1.0  0.69016  0.82467  0.48231  1.0000
  H   H1479     1.0  0.00345  0.91449  0.43756  1.0000
  H   H1480     1.0  0.00873  0.00691  0.41459  1.0000
  H   H1481     1.0  0.98012  0.76523  0.12521  1.0000
  H   H1482     1.0  0.00576  0.84892  0.38522  1.0000
  H   H1483     1.0  0.99047  0.93705  0.03785  1.0000
  H   H1484     1.0  0.01050  0.84279  0.20784  1.0000
  Fe  Fe185     1.0  0.72423  0.81375  0.61168  1.0000
  S   S369      1.0  0.74187  0.83554  0.58989  1.0000
  S   S370      1.0  0.73688  0.78754  0.63273  1.0000
  Fe  Fe186     1.0  0.69009  0.83550  0.59411  1.0000
  S   S371      1.0  0.70518  0.85848  0.57172  1.0000
  H   H1485     1.0  0.69748  0.85971  0.70371  1.0000
  Fe  Fe187     1.0  0.72254  0.85363  0.62335  1.0000
  S   S372      1.0  0.72777  0.87845  0.65797  1.0000
  C   C928      1.0  0.87813  0.99212  0.94774  1.0000
  S   S373      1.0  0.70614  0.83165  0.64746  1.0000
  Fe  Fe188     1.0  0.75323  0.91495  0.87021  1.0000
  S   S374      1.0  0.78056  0.91362  0.89600  1.0000
  S   S375      1.0  0.74656  0.89114  0.83372  1.0000
  Fe  Fe189     1.0  0.74413  0.95087  0.90628  1.0000
  S   S376      1.0  0.77111  0.95206  0.93248  1.0000
  S   S377      1.0  0.72598  0.97573  0.91074  1.0000
  Fe  Fe190     1.0  0.78227  0.94202  0.87654  1.0000
  S   S378      1.0  0.80844  0.94840  0.84544  1.0000
  Fe  Fe191     1.0  0.76741  0.92362  0.95045  1.0000
  H   H1486     1.0  0.99475  0.99611  0.63493  1.0000
  S   S379      1.0  0.75561  0.94287  0.84835  1.0000
  S   S380      1.0  0.73966  0.92294  0.92671  1.0000
  Fe  Fe192     1.0  0.72309  0.83854  0.54013  1.0000
  H   H1487     1.0  0.93330  0.00339  0.95214  1.0000
  H   H1488     1.0  0.79368  0.98405  0.86191  1.0000
  H   H1489     1.0  0.89039  0.99208  0.87526  1.0000
  H   H1490     1.0  0.68308  0.86163  0.74541  1.0000
  C   C929      1.0  0.70876  0.98162  0.94430  1.0000
  C   C930      1.0  0.69935  0.96898  0.96531  1.0000
  H   H1491     1.0  0.84241  0.99110  0.94363  1.0000
  C   C931      1.0  0.68536  0.97435  0.99074  1.0000
  C   C932      1.0  0.81633  0.96994  0.83644  1.0000
  C   C933      1.0  0.80652  0.98519  0.84754  1.0000
  C   C934      1.0  0.83969  0.98857  0.80971  1.0000
  C   C935      1.0  0.83295  0.97173  0.81754  1.0000
  H   H1492     1.0  0.85231  0.98977  0.79445  1.0000
  H   H1493     1.0  0.84060  0.96004  0.80858  1.0000
  H   H1494     1.0  0.75741  0.97524  0.99988  1.0000
  C   C936      1.0  0.72485  0.77002  0.65373  1.0000
  C   C937      1.0  0.73298  0.88159  0.70699  1.0000
  C   C938      1.0  0.73602  0.86746  0.73271  1.0000
  C   C939      1.0  0.73994  0.87069  0.77131  1.0000
  C   C940      1.0  0.74083  0.88804  0.78492  1.0000
  C   C941      1.0  0.73753  0.90218  0.75929  1.0000
  C   C942      1.0  0.73372  0.89895  0.72063  1.0000
  H   H1495     1.0  0.73550  0.85403  0.72284  1.0000
  H   H1496     1.0  0.74243  0.85962  0.79076  1.0000
  H   H1497     1.0  0.73778  0.91561  0.76924  1.0000
  H   H1498     1.0  0.73125  0.91001  0.70115  1.0000
  S   S381      1.0  0.00027  0.98847  0.99974  1.0000
  H   H1499     1.0  0.70258  0.95506  0.96134  1.0000
  C   C943      1.0  0.73489  0.94887  0.01084  1.0000
  H   H1500     1.0  0.84177  0.98688  0.89341  1.0000
  H   H1501     1.0  0.69876  0.78156  0.64277  1.0000
  S   S382      1.0  0.70683  0.81568  0.56051  1.0000
  C   C944      1.0  0.70384  0.99961  0.94861  1.0000
  S   S383      1.0  0.99707  0.98518  0.54932  1.0000
  C   C945      1.0  0.70620  0.77025  0.65449  1.0000
  C   C946      1.0  0.82989  0.00384  0.82085  1.0000
  C   C947      1.0  0.68972  0.00496  0.97365  1.0000
  H   H1502     1.0  0.88121  0.97795  0.95478  1.0000
  C   C948      1.0  0.68795  0.86881  0.71939  1.0000
  H   H1503     1.0  0.68906  0.87469  0.64293  1.0000
  H   H1504     1.0  0.69579  0.88002  0.72905  1.0000
  C   C949      1.0  0.00378  0.98683  0.65116  1.0000
  H   H1505     1.0  0.87112  0.99821  0.97299  1.0000
  C   C950      1.0  0.87727  0.98601  0.88026  1.0000
  C   C951      1.0  0.81325  0.00203  0.83963  1.0000
  H   H1506     1.0  0.72141  0.94409  0.01833  1.0000
  H   H1507     1.0  0.99527  0.97818  0.66924  1.0000
  H   H1508     1.0  0.99746  0.99941  0.72173  1.0000
  N   N95       1.0  0.79428  0.90906  0.76730  1.0000
  C   C952      1.0  0.80995  0.91735  0.74929  1.0000
  C   C953      1.0  0.79929  0.90086  0.80445  1.0000
  C   C954      1.0  0.78782  0.89536  0.74197  1.0000
  C   C955      1.0  0.77997  0.92274  0.77374  1.0000
  H   H1509     1.0  0.80658  0.92381  0.72136  1.0000
  H   H1510     1.0  0.82108  0.90745  0.74404  1.0000
  H   H1511     1.0  0.81505  0.92774  0.76798  1.0000
  H   H1512     1.0  0.78768  0.89461  0.81897  1.0000
  H   H1513     1.0  0.81004  0.89042  0.80083  1.0000
  H   H1514     1.0  0.80419  0.91087  0.82427  1.0000
  H   H1515     1.0  0.78345  0.90111  0.71399  1.0000
  H   H1516     1.0  0.77618  0.88871  0.75526  1.0000
  H   H1517     1.0  0.79834  0.88491  0.73602  1.0000
  H   H1518     1.0  0.76837  0.91713  0.78932  1.0000
  H   H1519     1.0  0.77513  0.92864  0.74631  1.0000
  H   H1520     1.0  0.78467  0.93371  0.79125  1.0000
  H   H1521     1.0  0.92602  0.00450  0.62298  1.0000
  H   H1522     1.0  0.01110  0.97827  0.62989  1.0000
  H   H1523     1.0  0.95438  0.00880  0.58635  1.0000
  H   H1524     1.0  0.68886  0.89510  0.66776  1.0000
  H   H1525     1.0  0.89111  0.99866  0.94379  1.0000
  C   C956      1.0  0.68041  0.88398  0.66023  1.0000
  H   H1526     1.0  0.00199  0.90726  0.02011  1.0000
  C   C957      1.0  0.68037  0.99235  0.99479  1.0000
  S   S384      1.0  0.77721  0.91857  0.01187  1.0000
  H   H1527     1.0  0.74402  0.93702  0.00775  1.0000
  C   C958      1.0  0.00595  0.00754  0.70238  1.0000
  N   N96       1.0  0.86733  0.99415  0.91296  1.0000
  H   H1528     1.0  0.87990  0.97158  0.88506  1.0000
  H   H1529     1.0  0.85239  0.97093  0.92479  1.0000
  H   H1530     1.0  0.75916  0.88473  0.01161  1.0000
  H   H1531     1.0  0.73424  0.95555  0.98225  1.0000
  H   H1532     1.0  0.86980  0.98779  0.85330  1.0000
  C   C959      1.0  0.85025  0.98536  0.91908  1.0000
  H   H1533     1.0  0.00671  0.94731  0.00690  1.0000
  H   H1534     1.0  0.76867  0.95675  0.02310  1.0000
  C   C960      1.0  0.75850  0.96773  0.02753  1.0000
  H   H1535     1.0  0.72631  0.98359  0.01779  1.0000
  H   H1536     1.0  0.71097  0.00950  0.93236  1.0000
