data_image0
_chemical_formula_structural       Fe2HS2H2S2FeSHFeS2FeSFeS4FeS2FeS2FeSFeS4C4H4C6H4C6H4C3HC2HCH2CH3C6H9CH6C3H6CHCH6CNHSHCNCH5C3HN2H2NH2CHC2H3CH5C2H3CH9FeS2FeS3HNSFeSHFeSCFeSFeS3FeSHFeS2FeSFeS3C7H5C3H3C2HC6H2C7H4C3H3CH2CNH2CHCSNC4H15CH2CH3FeCH2CSFeCHSH3C2HCHFeNH2SH3C2FeH2CH5SH2CHSHFeS2FeSCFeCFeHS2FeS2FeSHFeSFeS4FeS2FeS2FeSFeS3C8SH2C4H2C2H3CH2C6H5C6H4C7H3C2H9NH2CH8CHSH2CHC2H3C2H3CHCNHSHCNH2CH2C2H3NH3CH3NCH5FeH6C2HCSH4SC2HSHFeH5C4H3FeC2H3NCH4CHSH2CSC2HNFeCHSCNH5SCH6CH2C2H4CHC2H7CHC3HNH4CH7C2SH2C2H2SHC2H2CH2CH2CH2NCHCH3SH5NH2C2H2CHFeS2FeS2FeHFeS3NFeS2FeS2FeSFeS3H2CHCH2C6H4C6H5C3H4CNC3H3C3H2C3H4CH4NCNHCH5C6HNC4H13C2H5CH9SH4CH2C3HSH4FeS2FeS2FeSFeS2FeSHFeS2FeSFeS3C6H4C2H5C6H4C6H4CH2CHC3N2C3H2CHN2H5CH9CH3CH2CHNC4H8CH5C2H3NCSH2C2HCH3CHCHCH3CHCH2CHNHCHSH4CH3CHNH5CH2C2H3CHCHNH5CHCHCFeCHSC2HSHFe2H3CSCHSCH2NCHC4HCH2S2H2C3HCSHSH4CH2FeHCH2CHCHCFeCH4SH4CHCHCHSHCFeH3CHSH2C2NFeS2FeS2FeSFeS3FeS2FeS2FeSFeS3FeS2FeSHFeHFeCS2HSH3C2HC8H4SC5H4CHCH5C2H3C8H4CHCHCH3CH6C3H3CHCHCHCH3CHC2H3CH3SH4C2H5CHC2HNC5H2NH4N2H2CH2CH3NC4H9NCHCH4SFeH4CNCH3NH3C2HFeSH2FeHSFeS2CSH2S2FeS2FeS2FeSFeHS2FeH3C6H7CH2C2SHC4H2C6H5CH3SHCH2C2HNHSH6CH2SHC2NC4HC2FeH2SH3FeH5CHNHC3HSH3SH2C2HCHC2SHFeHSHCH2S2FeS2FeS2FeSFeS3CFeS2FeS2Fe2S3CHC3H3C2HC4H4C7H4C2HC2H2SC2HC6H5NCHCH5CH5CHNC4H15CN2HNC2H5CHCH2C2HSFeH5FeCH4C3H6CH4C2H5C5HNHSCHFeS2FeS2FeSFeS3NS2HFeS2FeS2FeSFeHS2C6H4C6H4FeC6H4C6H4C6H10NHCH2SNH5CHCHFeNC5SH11CH4NHCHCH7C3H2CH5C2H3C3HSH5FeHCSHFeSFeSFeCSFeNS2HCFeS2FeHSFeCFeHS2HCFeS2FeSHSHC2HC6H6CH4CNC4H3C6H4C6H2CH2FeHC3H2SC2H4SH4NSH5NH3FeCH2SCHCHCSH3CH2SCH12CH2C2H6C3FeH3C2HSH4SHCSH2CHCH3FeCS2FeS2H2FeH2SHFeS2FeS2FeSFeS3HFeS2FeS2FeSFeS3FeS3C4HC6H4C6H4C6H4C6H4C3HCH3C6H5CH2NC2HCHCNC2HCHCH2NC4H10NHC2H2CH2SH2CH3FeCHC2NHCH2SH4CHCH5NH8SH6FeHCHCHS2NSHSH7C2HC2H2C2S2HSC2H3CH2FeHSCNCH4CH2CHFeH5CH7CHFeS2FeSHFeSFeS3HFeS2FeS2FeSFeS3CH2CH3C6H4C6H4CS2HCHCH2C2H2NH3C6H7CSC2H3CHC2HCHCH3CH3C3NC4H8C2NH5CH2NH2CH4CHCFeS2FeS2FeSFeS2FeS2FeS2FeSFeS3HC5H3C7H5CH2C7H5C4H2CHCHC5H3NC4H15NH2CH3CH2C2HCH7CHNH2CH3CHNHCH4CSHC2HNC2H2CH6CHS3H3C2SH2C2H5C6H2CHCHCH4CSNH2CH2SHNH2FeC2H2NH3C2FeS2HFeCH5CSH3CFeH5CFeCHFeS2FeS2FeSFeS3FeS2FeS2FeSFeS3CHFeSHCFeSHSFe2SNS2H2CHC6H4C4HSH4C3HC2HCH2C6H4C6H6CHC6H4CH3CH4FeH3SCH2NH3C4H2C2HSCH2SCH7CH2CH2CHNCHCHC2H3NH3NH2CH5SH2C2HCHSH2CSFeSFeSH2FeS2CH2SC2SHFeSFeS2CFeS2HCHFeSHS2CHC2HC6H8NH2C3S2C6H3C7HSH2NHCHFeCHCFeH2NH6SHCH2CHCH2NHSHCH4FeH2C3HSFeH2CH4FeHCHCH5C3H9SHCFeS2FeS2FeSFeS3FeHSFeS2FeS2FeSFeS2C6H4C6H4C6H4C2HCH3C6H4CH4NC4H16CHNC4H10NH4CH4C2H2SCN2CH3CH4CHC2HCH2C2HCHSHSHFe
_chemical_formula_sum              "Fe192 H1536 S384 C960 N96"
_cell_length_a       64.4798
_cell_length_b       58.226
_cell_length_c       55.972
_cell_angle_alpha    88.6686
_cell_angle_beta     89.6027
_cell_angle_gamma    88.8805

_space_group_name_H-M_alt    "P 1"
_space_group_IT_number       1

loop_
  _space_group_symop_operation_xyz
  'x, y, z'

loop_
  _atom_site_type_symbol
  _atom_site_label
  _atom_site_symmetry_multiplicity
  _atom_site_fract_x
  _atom_site_fract_y
  _atom_site_fract_z
  _atom_site_occupancy
  Fe  Fe1       1.0  0.04795  0.12512  0.48277  1.0000
  Fe  Fe2       1.0  0.09097  0.14671  0.48719  1.0000
  H   H1        1.0  0.06083  0.16208  0.36949  1.0000
  S   S1        1.0  0.11545  0.16899  0.46936  1.0000
  S   S2        1.0  0.02713  0.11289  0.45298  1.0000
  H   H2        1.0  0.04150  0.09107  0.18137  1.0000
  H   H3        1.0  0.16683  0.30294  0.39850  1.0000
  S   S3        1.0  0.08052  0.11012  0.48456  1.0000
  S   S4        1.0  0.05896  0.16144  0.48231  1.0000
  Fe  Fe3       1.0  0.22192  0.17774  0.32324  1.0000
  S   S5        1.0  0.21521  0.21336  0.30893  1.0000
  H   H4        1.0  0.08198  0.14182  0.37344  1.0000
  Fe  Fe4       1.0  0.17978  0.17768  0.34947  1.0000
  S   S6        1.0  0.17066  0.21354  0.33650  1.0000
  S   S7        1.0  0.15864  0.15234  0.36864  1.0000
  Fe  Fe5       1.0  0.18300  0.20176  0.30072  1.0000
  S   S8        1.0  0.17302  0.20915  0.26194  1.0000
  Fe  Fe6       1.0  0.20381  0.22191  0.34578  1.0000
  S   S9        1.0  0.22038  0.25236  0.36197  1.0000
  S   S10       1.0  0.19028  0.16575  0.31321  1.0000
  S   S11       1.0  0.21220  0.18651  0.36068  1.0000
  S   S12       1.0  0.05159  0.32322  0.05206  1.0000
  Fe  Fe7       1.0  0.09372  0.17249  0.15993  1.0000
  S   S13       1.0  0.08536  0.14013  0.14138  1.0000
  S   S14       1.0  0.09825  0.17072  0.20049  1.0000
  Fe  Fe8       1.0  0.08827  0.20128  0.11376  1.0000
  S   S15       1.0  0.07901  0.17085  0.09222  1.0000
  S   S16       1.0  0.09857  0.23630  0.09924  1.0000
  Fe  Fe9       1.0  0.05930  0.16080  0.12454  1.0000
  S   S17       1.0  0.02861  0.14150  0.12069  1.0000
  Fe  Fe10      1.0  0.10543  0.15222  0.11073  1.0000
  S   S18       1.0  0.12884  0.12665  0.09506  1.0000
  S   S19       1.0  0.06661  0.19290  0.14461  1.0000
  S   S20       1.0  0.11581  0.18287  0.13078  1.0000
  S   S21       1.0  0.25096  0.16129  0.30640  1.0000
  C   C1        1.0  0.16647  0.11536  0.03746  1.0000
  C   C2        1.0  0.15700  0.11412  0.06025  1.0000
  C   C3        1.0  0.14065  0.12930  0.06639  1.0000
  C   C4        1.0  0.13382  0.14572  0.04944  1.0000
  H   H5        1.0  0.13647  0.23184  0.50950  1.0000
  H   H6        1.0  0.17919  0.10377  0.03316  1.0000
  H   H7        1.0  0.16245  0.10144  0.07331  1.0000
  H   H8        1.0  0.12124  0.15746  0.05389  1.0000
  C   C5        1.0  0.06485  0.29917  0.06514  1.0000
  C   C6        1.0  0.05342  0.28020  0.07339  1.0000
  C   C7        1.0  0.06342  0.26069  0.08376  1.0000
  C   C8        1.0  0.08498  0.26014  0.08624  1.0000
  C   C9        1.0  0.09639  0.27923  0.07829  1.0000
  C   C10       1.0  0.08641  0.29860  0.06767  1.0000
  H   H9        1.0  0.03670  0.28056  0.07161  1.0000
  H   H10       1.0  0.05444  0.24615  0.08984  1.0000
  H   H11       1.0  0.11308  0.27902  0.08027  1.0000
  H   H12       1.0  0.09533  0.31327  0.06183  1.0000
  C   C11       1.0  0.11959  0.18085  0.21710  1.0000
  C   C12       1.0  0.13561  0.19333  0.20633  1.0000
  C   C13       1.0  0.15169  0.20195  0.22036  1.0000
  C   C14       1.0  0.15227  0.19780  0.24525  1.0000
  C   C15       1.0  0.13654  0.18483  0.25594  1.0000
  C   C16       1.0  0.12023  0.17661  0.24197  1.0000
  H   H13       1.0  0.13560  0.19636  0.18720  1.0000
  H   H14       1.0  0.16385  0.21181  0.21185  1.0000
  H   H15       1.0  0.13675  0.18146  0.27504  1.0000
  H   H16       1.0  0.10798  0.16694  0.25054  1.0000
  C   C17       1.0  0.21101  0.27625  0.37860  1.0000
  C   C18       1.0  0.22540  0.29160  0.38784  1.0000
  C   C19       1.0  0.21878  0.31087  0.40098  1.0000
  H   H17       1.0  0.25297  0.20231  0.34485  1.0000
  C   C20       1.0  0.18323  0.29985  0.39558  1.0000
  C   C21       1.0  0.18985  0.28049  0.38260  1.0000
  H   H18       1.0  0.24179  0.28857  0.38484  1.0000
  C   C22       1.0  0.22081  0.17786  0.25205  1.0000
  H   H19       1.0  0.03796  0.17176  0.40406  1.0000
  H   H20       1.0  0.17859  0.26892  0.37561  1.0000
  C   C23       1.0  0.09489  0.26411  0.19344  1.0000
  H   H21       1.0  0.23005  0.32245  0.40795  1.0000
  H   H22       1.0  0.07881  0.12129  0.18854  1.0000
  H   H23       1.0  0.08889  0.20594  0.48527  1.0000
  C   C24       1.0  0.12789  0.16366  0.44178  1.0000
  C   C25       1.0  0.12657  0.14250  0.43067  1.0000
  C   C26       1.0  0.13612  0.13927  0.40826  1.0000
  C   C27       1.0  0.14728  0.15704  0.39698  1.0000
  C   C28       1.0  0.14878  0.17811  0.40825  1.0000
  C   C29       1.0  0.13911  0.18138  0.43057  1.0000
  H   H24       1.0  0.11838  0.12860  0.43944  1.0000
  H   H25       1.0  0.13511  0.12285  0.39973  1.0000
  H   H26       1.0  0.15736  0.19187  0.39974  1.0000
  H   H27       1.0  0.14032  0.19776  0.43912  1.0000
  H   H28       1.0  0.23794  0.17918  0.25367  1.0000
  H   H29       1.0  0.06513  0.26963  0.15993  1.0000
  H   H30       1.0  0.09528  0.16548  0.40512  1.0000
  H   H31       1.0  0.21968  0.13500  0.21193  1.0000
  H   H32       1.0  0.06650  0.24010  0.17016  1.0000
  C   C30       1.0  0.19762  0.31513  0.40493  1.0000
  H   H33       1.0  0.21842  0.16550  0.20631  1.0000
  H   H34       1.0  0.23980  0.13729  0.26145  1.0000
  H   H35       1.0  0.04807  0.11489  0.16201  1.0000
  H   H36       1.0  0.01736  0.12063  0.21761  1.0000
  H   H37       1.0  0.18676  0.13736  0.23554  1.0000
  H   H38       1.0  0.07487  0.12621  0.21956  1.0000
  C   C31       1.0  0.04383  0.15575  0.41312  1.0000
  C   C32       1.0  0.10804  0.23524  0.16681  1.0000
  C   C33       1.0  0.10603  0.27495  0.15349  1.0000
  H   H39       1.0  0.10954  0.22964  0.14802  1.0000
  H   H40       1.0  0.12404  0.23709  0.17375  1.0000
  H   H41       1.0  0.11067  0.26690  0.20067  1.0000
  H   H42       1.0  0.09724  0.29158  0.15402  1.0000
  H   H43       1.0  0.10704  0.27002  0.13439  1.0000
  H   H44       1.0  0.12213  0.27796  0.15956  1.0000
  C   C34       1.0  0.06595  0.14632  0.37960  1.0000
  H   H45       1.0  0.21613  0.13902  0.27810  1.0000
  C   C35       1.0  0.14309  0.14676  0.02658  1.0000
  H   H46       1.0  0.03297  0.14172  0.40907  1.0000
  H   H47       1.0  0.18564  0.16777  0.22927  1.0000
  H   H48       1.0  0.02276  0.11350  0.17515  1.0000
  H   H49       1.0  0.18453  0.15730  0.25950  1.0000
  H   H50       1.0  0.07383  0.18545  0.40335  1.0000
  H   H51       1.0  0.04275  0.15828  0.43275  1.0000
  C   C36       1.0  0.03411  0.11646  0.22067  1.0000
  N   N1        1.0  0.06530  0.14989  0.40565  1.0000
  H   H52       1.0  0.07241  0.13086  0.43794  1.0000
  S   S22       1.0  0.18815  0.33946  0.42075  1.0000
  H   H53       1.0  0.06172  0.11407  0.41494  1.0000
  C   C37       1.0  0.22260  0.13692  0.25977  1.0000
  N   N2        1.0  0.04679  0.12268  0.19947  1.0000
  C   C38       1.0  0.19197  0.15428  0.24179  1.0000
  H   H54       1.0  0.24119  0.15250  0.21966  1.0000
  H   H55       1.0  0.21503  0.19217  0.24017  1.0000
  H   H56       1.0  0.08665  0.26202  0.03353  1.0000
  H   H57       1.0  0.08002  0.17113  0.43129  1.0000
  H   H58       1.0  0.07488  0.24790  0.14051  1.0000
  C   C39       1.0  0.07917  0.16883  0.41161  1.0000
  C   C40       1.0  0.07226  0.12857  0.41828  1.0000
  C   C41       1.0  0.22394  0.15189  0.21920  1.0000
  H   H59       1.0  0.21411  0.18088  0.27005  1.0000
  N   N3        1.0  0.09590  0.25696  0.16828  1.0000
  N   N4        1.0  0.10404  0.22437  0.51283  1.0000
  H   H60       1.0  0.10063  0.22105  0.17729  1.0000
  H   H61       1.0  0.08575  0.28040  0.19530  1.0000
  N   N5        1.0  0.21483  0.15522  0.24320  1.0000
  H   H62       1.0  0.05568  0.13209  0.37455  1.0000
  H   H63       1.0  0.08750  0.25075  0.20506  1.0000
  C   C42       1.0  0.07466  0.25351  0.15940  1.0000
  H   H64       1.0  0.08820  0.12323  0.41270  1.0000
  C   C43       1.0  0.06881  0.11669  0.20413  1.0000
  C   C44       1.0  0.08616  0.22089  0.49700  1.0000
  H   H65       1.0  0.03902  0.12593  0.23666  1.0000
  H   H66       1.0  0.05147  0.15782  0.20904  1.0000
  H   H67       1.0  0.12636  0.21523  0.48578  1.0000
  C   C45       1.0  0.03951  0.10996  0.17865  1.0000
  H   H68       1.0  0.21840  0.11956  0.25374  1.0000
  H   H69       1.0  0.03539  0.09773  0.22499  1.0000
  H   H70       1.0  0.12738  0.07378  0.02161  1.0000
  H   H71       1.0  0.07179  0.21742  0.50749  1.0000
  H   H72       1.0  0.05276  0.15271  0.17764  1.0000
  C   C46       1.0  0.04467  0.14766  0.19452  1.0000
  C   C47       1.0  0.15944  0.13162  0.02043  1.0000
  H   H73       1.0  0.07109  0.09799  0.20795  1.0000
  H   H74       1.0  0.12027  0.24541  0.48703  1.0000
  H   H75       1.0  0.10679  0.06880  0.50964  1.0000
  C   C48       1.0  0.12261  0.22950  0.49815  1.0000
  H   H76       1.0  0.13070  0.03549  0.50320  1.0000
  H   H77       1.0  0.08298  0.23625  0.48533  1.0000
  H   H78       1.0  0.10681  0.29703  0.02207  1.0000
  H   H79       1.0  0.25540  0.23019  0.33103  1.0000
  H   H80       1.0  0.25833  0.22109  0.38311  1.0000
  H   H81       1.0  0.02814  0.15306  0.19265  1.0000
  H   H82       1.0  0.10519  0.24513  0.01722  1.0000
  H   H83       1.0  0.24576  0.16652  0.92717  1.0000
  H   H84       1.0  0.11150  0.30374  0.99107  1.0000
  Fe  Fe11      1.0  0.07635  0.28929  0.62663  1.0000
  S   S23       1.0  0.12281  0.33219  0.68352  1.0000
  S   S24       1.0  0.07796  0.25031  0.62424  1.0000
  Fe  Fe12      1.0  0.09795  0.32531  0.65557  1.0000
  S   S25       1.0  0.08294  0.08283  0.55163  1.0000
  S   S26       1.0  0.06688  0.30849  0.65990  1.0000
  S   S27       1.0  0.10785  0.30486  0.62371  1.0000
  H   H85       1.0  0.12463  0.27963  0.00522  1.0000
  N   N6        1.0  0.12946  0.24956  0.66805  1.0000
  S   S28       1.0  0.08904  0.14678  0.52735  1.0000
  Fe  Fe13      1.0  0.22072  0.31787  0.82055  1.0000
  S   S29       1.0  0.21208  0.28127  0.81196  1.0000
  H   H86       1.0  0.15878  0.26655  0.66484  1.0000
  Fe  Fe14      1.0  0.18134  0.32577  0.85025  1.0000
  S   S30       1.0  0.16968  0.29057  0.84413  1.0000
  C   C49       1.0  0.14901  0.32641  0.72195  1.0000
  Fe  Fe15      1.0  0.20238  0.27815  0.85080  1.0000
  S   S31       1.0  0.20475  0.25009  0.87987  1.0000
  Fe  Fe16      1.0  0.17961  0.29565  0.80571  1.0000
  S   S32       1.0  0.15666  0.28148  0.77882  1.0000
  S   S33       1.0  0.21349  0.31343  0.85966  1.0000
  S   S34       1.0  0.09498  0.32798  0.94665  1.0000
  Fe  Fe17      1.0  0.19484  0.11345  0.97057  1.0000
  S   S35       1.0  0.22355  0.13125  0.95716  1.0000
  H   H87       1.0  0.11133  0.25439  0.97380  1.0000
  Fe  Fe18      1.0  0.20260  0.07114  0.93992  1.0000
  S   S36       1.0  0.23178  0.08568  0.92411  1.0000
  S   S37       1.0  0.18817  0.03573  0.93508  1.0000
  Fe  Fe19      1.0  0.23982  0.09672  0.96127  1.0000
  S   S38       1.0  0.06173  0.31533  0.60161  1.0000
  Fe  Fe20      1.0  0.21444  0.11961  0.92093  1.0000
  S   S39       1.0  0.21960  0.14153  0.88714  1.0000
  S   S40       1.0  0.21176  0.07967  0.97771  1.0000
  S   S41       1.0  0.18458  0.10415  0.93366  1.0000
  C   C50       1.0  0.07282  0.28799  0.99693  1.0000
  C   C51       1.0  0.21470  0.17158  0.88502  1.0000
  C   C52       1.0  0.21926  0.18354  0.86353  1.0000
  C   C53       1.0  0.21640  0.20760  0.86153  1.0000
  C   C54       1.0  0.20891  0.21989  0.88107  1.0000
  C   C55       1.0  0.20439  0.20791  0.90252  1.0000
  C   C56       1.0  0.20718  0.18390  0.90449  1.0000
  H   H88       1.0  0.22529  0.17416  0.84844  1.0000
  H   H89       1.0  0.22038  0.21666  0.84511  1.0000
  H   H90       1.0  0.19862  0.21728  0.91775  1.0000
  H   H91       1.0  0.20361  0.17496  0.92114  1.0000
  H   H92       1.0  0.12337  0.25846  0.63125  1.0000
  C   C57       1.0  0.12216  0.31932  0.90998  1.0000
  C   C58       1.0  0.13799  0.32473  0.89349  1.0000
  C   C59       1.0  0.10978  0.05651  0.52405  1.0000
  H   H93       1.0  0.18199  0.02717  0.84750  1.0000
  H   H94       1.0  0.11521  0.30258  0.90974  1.0000
  H   H95       1.0  0.14310  0.31218  0.88072  1.0000
  C   C60       1.0  0.26050  0.17185  0.91839  1.0000
  C   C61       1.0  0.18558  0.03106  0.88555  1.0000
  H   H96       1.0  0.18906  0.04914  0.88403  1.0000
  C   C62       1.0  0.13101  0.31862  0.71086  1.0000
  C   C63       1.0  0.12053  0.30015  0.72147  1.0000
  C   C64       1.0  0.12847  0.28905  0.74230  1.0000
  C   C65       1.0  0.14661  0.29674  0.75326  1.0000
  C   C66       1.0  0.15669  0.31568  0.74307  1.0000
  C   C67       1.0  0.12944  0.24384  0.64244  1.0000
  H   H97       1.0  0.10629  0.29453  0.71364  1.0000
  H   H98       1.0  0.12038  0.27461  0.75015  1.0000
  C   C68       1.0  0.10804  0.25506  0.67593  1.0000
  C   C69       1.0  0.05390  0.20912  0.56121  1.0000
  C   C70       1.0  0.04768  0.23221  0.56389  1.0000
  C   C71       1.0  0.05536  0.24523  0.58269  1.0000
  C   C72       1.0  0.06898  0.23509  0.59937  1.0000
  C   C73       1.0  0.07523  0.21201  0.59667  1.0000
  C   C74       1.0  0.06787  0.19912  0.57758  1.0000
  H   H99       1.0  0.03677  0.24004  0.55141  1.0000
  H   H100      1.0  0.05027  0.26290  0.58468  1.0000
  H   H101      1.0  0.08561  0.20393  0.60958  1.0000
  H   H102      1.0  0.07259  0.18129  0.57588  1.0000
  C   C75       1.0  0.10024  0.05949  0.54630  1.0000
  C   C76       1.0  0.10434  0.04338  0.56487  1.0000
  C   C77       1.0  0.11796  0.02453  0.56129  1.0000
  H   H103      1.0  0.11648  0.04455  0.97780  1.0000
  H   H104      1.0  0.09713  0.04568  0.58219  1.0000
  H   H105      1.0  0.09734  0.24075  0.67237  1.0000
  C   C78       1.0  0.09668  0.26483  0.97385  1.0000
  H   H106      1.0  0.13644  0.28535  0.66239  1.0000
  H   H107      1.0  0.11925  0.22903  0.63903  1.0000
  C   C79       1.0  0.18469  0.02031  0.90815  1.0000
  N   N7        1.0  0.09240  0.27436  0.99767  1.0000
  H   H108      1.0  0.10729  0.25848  0.69536  1.0000
  H   H109      1.0  0.17236  0.05530  0.98493  1.0000
  C   C80       1.0  0.12333  0.03763  0.52045  1.0000
  H   H110      1.0  0.25681  0.12621  0.92232  1.0000
  C   C81       1.0  0.10799  0.20325  0.52737  1.0000
  S   S42       1.0  0.16932  0.13286  0.99071  1.0000
  N   N8        1.0  0.15585  0.22241  0.82874  1.0000
  C   C82       1.0  0.15793  0.22307  0.85501  1.0000
  C   C83       1.0  0.17559  0.22919  0.81728  1.0000
  C   C84       1.0  0.13908  0.23849  0.82088  1.0000
  C   C85       1.0  0.15084  0.19884  0.82175  1.0000
  H   H111      1.0  0.14322  0.21858  0.86432  1.0000
  H   H112      1.0  0.16235  0.24044  0.86095  1.0000
  H   H113      1.0  0.17017  0.21078  0.86158  1.0000
  H   H114      1.0  0.18840  0.21683  0.82185  1.0000
  H   H115      1.0  0.17427  0.23029  0.79745  1.0000
  H   H116      1.0  0.18040  0.24634  0.82319  1.0000
  H   H117      1.0  0.13724  0.23863  0.80110  1.0000
  H   H118      1.0  0.14243  0.25646  0.82572  1.0000
  H   H119      1.0  0.12392  0.23400  0.82915  1.0000
  H   H120      1.0  0.16318  0.18627  0.82756  1.0000
  H   H121      1.0  0.14935  0.19770  0.80201  1.0000
  H   H122      1.0  0.13599  0.19317  0.83001  1.0000
  H   H123      1.0  0.15373  0.22500  0.67670  1.0000
  H   H124      1.0  0.14528  0.23943  0.63583  1.0000
  H   H125      1.0  0.12785  0.21427  0.67987  1.0000
  C   C86       1.0  0.14275  0.26960  0.67167  1.0000
  H   H126      1.0  0.14705  0.09662  0.96390  1.0000
  H   H127      1.0  0.07794  0.24349  0.01084  1.0000
  C   C87       1.0  0.12746  0.02156  0.53902  1.0000
  H   H128      1.0  0.17066  0.32182  0.75119  1.0000
  H   H129      1.0  0.13293  0.09912  0.00422  1.0000
  H   H130      1.0  0.13782  0.23340  0.70161  1.0000
  Fe  Fe21      1.0  0.07572  0.11143  0.52439  1.0000
  C   C88       1.0  0.18154  0.01852  0.86481  1.0000
  H   H131      1.0  0.12062  0.20553  0.54047  1.0000
  H   H132      1.0  0.05935  0.27722  0.99262  1.0000
  C   C89       1.0  0.16202  0.06597  0.99646  1.0000
  S   S43       1.0  0.04253  0.12467  0.52246  1.0000
  Fe  Fe22      1.0  0.05450  0.33626  0.63425  1.0000
  C   C90       1.0  0.13759  0.22965  0.68218  1.0000
  H   H133      1.0  0.13216  0.03509  0.00275  1.0000
  S   S44       1.0  0.18875  0.33205  0.81140  1.0000
  H   H134      1.0  0.10167  0.27054  0.66627  1.0000
  H   H135      1.0  0.14395  0.27368  0.69092  1.0000
  H   H136      1.0  0.16891  0.08328  0.99740  1.0000
  C   C91       1.0  0.11533  0.33541  0.92673  1.0000
  C   C92       1.0  0.14118  0.07878  0.96297  1.0000
  H   H137      1.0  0.08390  0.25368  0.96810  1.0000
  C   C93       1.0  0.10960  0.28932  0.00431  1.0000
  H   H138      1.0  0.09836  0.27880  0.96003  1.0000
  Fe  Fe23      1.0  0.09281  0.33237  0.60083  1.0000
  N   N9        1.0  0.14074  0.06751  0.98690  1.0000
  H   H139      1.0  0.12546  0.07996  0.95494  1.0000
  H   H140      1.0  0.14237  0.03352  0.97282  1.0000
  S   S45       1.0  0.04376  0.19363  0.53715  1.0000
  H   H141      1.0  0.15153  0.06919  0.95044  1.0000
  H   H142      1.0  0.11109  0.08224  0.99678  1.0000
  H   H143      1.0  0.09387  0.19805  0.53751  1.0000
  C   C94       1.0  0.12741  0.08117  0.00308  1.0000
  C   C95       1.0  0.13253  0.04411  0.98500  1.0000
  Fe  Fe24      1.0  0.05650  0.15998  0.52235  1.0000
  H   H144      1.0  0.11255  0.24694  0.54091  1.0000
  H   H145      1.0  0.16235  0.05825  0.01482  1.0000
  C   C96       1.0  0.09936  0.24370  0.52879  1.0000
  H   H146      1.0  0.13749  0.15936  0.01353  1.0000
  H   H147      1.0  0.07354  0.30213  0.98328  1.0000
  H   H148      1.0  0.08560  0.24010  0.54030  1.0000
  H   H149      1.0  0.12132  0.01252  0.57584  1.0000
  H   H150      1.0  0.06943  0.29603  0.01440  1.0000
  S   S46       1.0  0.24673  0.34060  0.80529  1.0000
  H   H151      1.0  0.09596  0.25989  0.51846  1.0000
  H   H152      1.0  0.25718  0.17400  0.89895  1.0000
  C   C97       1.0  0.09050  0.25540  0.01554  1.0000
  H   H153      1.0  0.15719  0.34079  0.71406  1.0000
  S   S47       1.0  0.10325  0.34152  0.56273  1.0000
  H   H154      1.0  0.11264  0.18860  0.51596  1.0000
  Fe  Fe25      1.0  0.20825  0.42011  0.43731  1.0000
  S   S48       1.0  0.23006  0.39012  0.43020  1.0000
  S   S49       1.0  0.20836  0.44588  0.40553  1.0000
  Fe  Fe26      1.0  0.19409  0.39766  0.48518  1.0000
  S   S50       1.0  0.21431  0.36632  0.48015  1.0000
  C   C98       1.0  0.16769  0.41739  0.37725  1.0000
  Fe  Fe27      1.0  0.23887  0.39165  0.46908  1.0000
  C   C99       1.0  0.19970  0.58050  0.39360  1.0000
  Fe  Fe28      1.0  0.20372  0.36766  0.44183  1.0000
  H   H155      1.0  0.21376  0.55780  0.14493  1.0000
  S   S51       1.0  0.21914  0.42311  0.47543  1.0000
  S   S52       1.0  0.18153  0.39757  0.44774  1.0000
  Fe  Fe29      1.0  0.17546  0.56021  0.06675  1.0000
  S   S53       1.0  0.16566  0.54283  0.10156  1.0000
  S   S54       1.0  0.21088  0.55985  0.06092  1.0000
  Fe  Fe30      1.0  0.13046  0.57637  0.05645  1.0000
  S   S55       1.0  0.11826  0.56153  0.09092  1.0000
  H   H156      1.0  0.20039  0.54715  0.36242  1.0000
  Fe  Fe31      1.0  0.14697  0.57492  0.10819  1.0000
  S   S56       1.0  0.14897  0.59555  0.14255  1.0000
  Fe  Fe32      1.0  0.13796  0.53057  0.08169  1.0000
  S   S57       1.0  0.12135  0.49700  0.08861  1.0000
  S   S58       1.0  0.15758  0.59287  0.07411  1.0000
  S   S59       1.0  0.14915  0.54479  0.04637  1.0000
  S   S60       1.0  0.12096  0.41299  0.01792  1.0000
  Fe  Fe33      1.0  0.13969  0.60790  0.32108  1.0000
  S   S61       1.0  0.13609  0.57070  0.31243  1.0000
  S   S62       1.0  0.11222  0.63394  0.31999  1.0000
  Fe  Fe34      1.0  0.18798  0.60267  0.32345  1.0000
  S   S63       1.0  0.18676  0.56522  0.31391  1.0000
  S   S64       1.0  0.21942  0.61426  0.33793  1.0000
  Fe  Fe35      1.0  0.16267  0.57640  0.28666  1.0000
  S   S65       1.0  0.16068  0.55897  0.25049  1.0000
  Fe  Fe36      1.0  0.16053  0.56264  0.34031  1.0000
  S   S66       1.0  0.15721  0.53628  0.37138  1.0000
  S   S67       1.0  0.16573  0.61400  0.29418  1.0000
  S   S68       1.0  0.16220  0.59974  0.35084  1.0000
  C   C100      1.0  0.21588  0.55422  0.36610  1.0000
  C   C101      1.0  0.16004  0.37708  0.38222  1.0000
  C   C102      1.0  0.04566  0.63922  0.35224  1.0000
  C   C103      1.0  0.05366  0.65684  0.33766  1.0000
  C   C104      1.0  0.07400  0.65490  0.32811  1.0000
  C   C105      1.0  0.08673  0.63540  0.33296  1.0000
  C   C106      1.0  0.07868  0.61769  0.34739  1.0000
  C   C107      1.0  0.05834  0.61963  0.35694  1.0000
  S   S69       1.0  0.10938  0.59120  0.02712  1.0000
  H   H157      1.0  0.16029  0.37827  0.40206  1.0000
  H   H158      1.0  0.08814  0.60254  0.35131  1.0000
  C   C108      1.0  0.05631  0.61545  0.05854  1.0000
  C   C109      1.0  0.12136  0.47394  0.06859  1.0000
  C   C110      1.0  0.10622  0.45702  0.07128  1.0000
  C   C111      1.0  0.10548  0.43860  0.05546  1.0000
  H   H159      1.0  0.22270  0.64934  0.29915  1.0000
  H   H160      1.0  0.19913  0.53606  0.40628  1.0000
  C   C112      1.0  0.17342  0.39165  0.34451  1.0000
  C   C113      1.0  0.08366  0.60126  0.03232  1.0000
  H   H161      1.0  0.23809  0.58190  0.41181  1.0000
  H   H162      1.0  0.25898  0.62373  0.35837  1.0000
  H   H163      1.0  0.20664  0.40174  0.37133  1.0000
  C   C114      1.0  0.01493  0.60129  0.42607  1.0000
  H   H164      1.0  0.07391  0.48891  0.05689  1.0000
  H   H165      1.0  0.05598  0.51230  0.06239  1.0000
  C   C115      1.0  0.15242  0.58502  0.17242  1.0000
  C   C116      1.0  0.15431  0.60081  0.19095  1.0000
  C   C117      1.0  0.15712  0.59323  0.21489  1.0000
  C   C118      1.0  0.15795  0.56970  0.22060  1.0000
  C   C119      1.0  0.15616  0.55396  0.20205  1.0000
  C   C120      1.0  0.15347  0.56152  0.17811  1.0000
  H   H166      1.0  0.15362  0.61904  0.18674  1.0000
  H   H167      1.0  0.15875  0.60555  0.22888  1.0000
  H   H168      1.0  0.15677  0.53571  0.20624  1.0000
  H   H169      1.0  0.15202  0.54914  0.16413  1.0000
  H   H170      1.0  0.23683  0.58113  0.10299  1.0000
  C   C121      1.0  0.19362  0.47078  0.39640  1.0000
  C   C122      1.0  0.17749  0.47999  0.41025  1.0000
  C   C123      1.0  0.16638  0.49980  0.40211  1.0000
  C   C124      1.0  0.17114  0.51064  0.38003  1.0000
  C   C125      1.0  0.18712  0.50123  0.36606  1.0000
  C   C126      1.0  0.19830  0.48152  0.37425  1.0000
  H   H171      1.0  0.17363  0.47196  0.42729  1.0000
  H   H172      1.0  0.15404  0.50685  0.41308  1.0000
  H   H173      1.0  0.19082  0.50905  0.34887  1.0000
  H   H174      1.0  0.21065  0.47449  0.36329  1.0000
  C   C127      1.0  0.23881  0.63447  0.32944  1.0000
  C   C128      1.0  0.23661  0.64966  0.30983  1.0000
  C   C129      1.0  0.04955  0.61241  0.01631  1.0000
  C   C130      1.0  0.10572  0.57824  0.25001  1.0000
  C   C131      1.0  0.25703  0.63532  0.34315  1.0000
  C   C132      1.0  0.22710  0.57093  0.03749  1.0000
  C   C133      1.0  0.04274  0.61852  0.03912  1.0000
  H   H175      1.0  0.18856  0.56870  0.13677  1.0000
  H   H176      1.0  0.20725  0.62233  0.10736  1.0000
  H   H177      1.0  0.05241  0.60582  0.36811  1.0000
  C   C134      1.0  0.24878  0.56796  0.03936  1.0000
  C   C135      1.0  0.07659  0.60661  0.05522  1.0000
  H   H178      1.0  0.09322  0.56561  0.24773  1.0000
  H   H179      1.0  0.15750  0.39515  0.33759  1.0000
  H   H180      1.0  0.14374  0.37990  0.37634  1.0000
  H   H181      1.0  0.20102  0.37148  0.37455  1.0000
  H   H182      1.0  0.15154  0.42156  0.37154  1.0000
  H   H183      1.0  0.19538  0.60462  0.15753  1.0000
  H   H184      1.0  0.12539  0.61041  0.27394  1.0000
  H   H185      1.0  0.14767  0.48513  0.04784  1.0000
  H   H186      1.0  0.17822  0.37403  0.33908  1.0000
  N   N10       1.0  0.17414  0.39382  0.37074  1.0000
  H   H187      1.0  0.02276  0.60655  0.40899  1.0000
  H   H188      1.0  0.10884  0.63415  0.26569  1.0000
  C   C136      1.0  0.08562  0.59867  0.27965  1.0000
  H   H189      1.0  0.18473  0.60621  0.11535  1.0000
  H   H190      1.0  0.08034  0.55238  0.01792  1.0000
  H   H191      1.0  0.07678  0.62729  0.24263  1.0000
  H   H192      1.0  0.09503  0.45811  0.08573  1.0000
  H   H193      1.0  0.24500  0.57991  0.13363  1.0000
  H   H194      1.0  0.12363  0.61929  0.24313  1.0000
  H   H195      1.0  0.16848  0.41975  0.39692  1.0000
  H   H196      1.0  0.09579  0.59218  0.29442  1.0000
  C   C137      1.0  0.21187  0.60327  0.15139  1.0000
  H   H197      1.0  0.19979  0.58785  0.41175  1.0000
  S   S70       1.0  0.06210  0.38838  0.02814  1.0000
  H   H198      1.0  0.20202  0.59615  0.09250  1.0000
  H   H199      1.0  0.21792  0.62101  0.14999  1.0000
  C   C138      1.0  0.20516  0.56815  0.13115  1.0000
  H   H200      1.0  0.06022  0.54973  0.04014  1.0000
  C   C139      1.0  0.23539  0.58991  0.12048  1.0000
  C   C140      1.0  0.08331  0.61009  0.23798  1.0000
  H   H201      1.0  0.08694  0.55032  0.04890  1.0000
  H   H202      1.0  0.08691  0.60449  0.07031  1.0000
  H   H203      1.0  0.05118  0.62010  0.07625  1.0000
  C   C141      1.0  0.20136  0.60465  0.11010  1.0000
  C   C142      1.0  0.07223  0.50797  0.05714  1.0000
  H   H204      1.0  0.07911  0.61556  0.28540  1.0000
  H   H205      1.0  0.09387  0.42556  0.05781  1.0000
  H   H206      1.0  0.07252  0.58665  0.27822  1.0000
  C   C143      1.0  0.12026  0.43665  0.03719  1.0000
  H   H207      1.0  0.18401  0.40399  0.33539  1.0000
  C   C144      1.0  0.13542  0.45358  0.03453  1.0000
  N   N11       1.0  0.21347  0.59152  0.12830  1.0000
  H   H208      1.0  0.17801  0.43046  0.36885  1.0000
  S   S71       1.0  0.02014  0.64062  0.36519  1.0000
  H   H209      1.0  0.18426  0.57266  0.39105  1.0000
  C   C145      1.0  0.13587  0.47228  0.05001  1.0000
  N   N12       1.0  0.09728  0.60096  0.25690  1.0000
  H   H210      1.0  0.24222  0.60721  0.11808  1.0000
  H   H211      1.0  0.07006  0.59849  0.23525  1.0000
  C   C146      1.0  0.11453  0.61694  0.25993  1.0000
  H   H212      1.0  0.09167  0.61201  0.22058  1.0000
  H   H213      1.0  0.25519  0.55891  0.05480  1.0000
  C   C147      1.0  0.19553  0.38913  0.37905  1.0000
  C   C148      1.0  0.25233  0.66555  0.30422  1.0000
  H   H214      1.0  0.11462  0.57935  0.23290  1.0000
  H   H215      1.0  0.21522  0.55071  0.42676  1.0000
  H   H216      1.0  0.20632  0.55868  0.11410  1.0000
  N   N13       1.0  0.21673  0.56345  0.39042  1.0000
  H   H217      1.0  0.11659  0.57097  0.26372  1.0000
  H   H218      1.0  0.22661  0.53090  0.40593  1.0000
  H   H219      1.0  0.02641  0.60295  0.44064  1.0000
  C   C149      1.0  0.23685  0.57466  0.39368  1.0000
  H   H220      1.0  0.16476  0.35907  0.37808  1.0000
  H   H221      1.0  0.15138  0.36744  0.49970  1.0000
  H   H222      1.0  0.11036  0.51690  0.04117  1.0000
  N   N14       1.0  0.07773  0.51853  0.03373  1.0000
  C   C150      1.0  0.21439  0.54446  0.40817  1.0000
  H   H223      1.0  0.19639  0.39034  0.39873  1.0000
  H   H224      1.0  0.22066  0.59375  0.16564  1.0000
  H   H225      1.0  0.21878  0.56781  0.35225  1.0000
  H   H226      1.0  0.20096  0.59507  0.38046  1.0000
  H   H227      1.0  0.25006  0.56236  0.39111  1.0000
  Fe  Fe37      1.0  0.06553  0.34959  0.02612  1.0000
  H   H228      1.0  0.22763  0.54026  0.36344  1.0000
  H   H229      1.0  0.23886  0.58913  0.38048  1.0000
  H   H230      1.0  0.08250  0.51399  0.07154  1.0000
  H   H231      1.0  0.07996  0.66875  0.31699  1.0000
  H   H232      1.0  0.14698  0.45210  0.02051  1.0000
  H   H233      1.0  0.01328  0.64267  0.44618  1.0000
  C   C151      1.0  0.07617  0.54381  0.03523  1.0000
  C   C152      1.0  0.09922  0.51175  0.02727  1.0000
  H   H234      1.0  0.10091  0.49279  0.02545  1.0000
  C   C153      1.0  0.21912  0.58261  0.01732  1.0000
  S   S72       1.0  0.01790  0.63113  0.04413  1.0000
  H   H235      1.0  0.04423  0.67203  0.33383  1.0000
  H   H236      1.0  0.04702  0.51553  0.01953  1.0000
  H   H237      1.0  0.06003  0.41033  0.93263  1.0000
  H   H238      1.0  0.21551  0.41112  0.55066  1.0000
  S   S73       1.0  0.08521  0.35447  0.63224  1.0000
  C   C154      1.0  0.23265  0.59101  0.99929  1.0000
  C   C155      1.0  0.25929  0.64168  0.93409  1.0000
  H   H239      1.0  0.02764  0.66702  0.00432  1.0000
  S   S74       1.0  0.08327  0.38992  0.97445  1.0000
  H   H240      1.0  0.23447  0.37626  0.87593  1.0000
  Fe  Fe38      1.0  0.05119  0.38705  0.99003  1.0000
  H   H241      1.0  0.04555  0.37306  0.94513  1.0000
  H   H242      1.0  0.20883  0.36347  0.53275  1.0000
  H   H243      1.0  0.05397  0.65793  0.99951  1.0000
  H   H244      1.0  0.14693  0.37936  0.91019  1.0000
  H   H245      1.0  0.11939  0.36954  0.93977  1.0000
  C   C156      1.0  0.21396  0.36542  0.55153  1.0000
  C   C157      1.0  0.14004  0.36257  0.91007  1.0000
  C   C158      1.0  0.04209  0.40113  0.54911  1.0000
  C   C159      1.0  0.02612  0.36910  0.56981  1.0000
  H   H246      1.0  0.03534  0.41350  0.56205  1.0000
  H   H247      1.0  0.21640  0.34790  0.55945  1.0000
  H   H248      1.0  0.05677  0.40852  0.54202  1.0000
  Fe  Fe39      1.0  0.08503  0.35165  0.97640  1.0000
  C   C160      1.0  0.15786  0.38372  0.53286  1.0000
  C   C161      1.0  0.15217  0.38515  0.55713  1.0000
  H   H249      1.0  0.19973  0.40129  0.81560  1.0000
  H   H250      1.0  0.19251  0.40110  0.86955  1.0000
  H   H251      1.0  0.02854  0.35204  0.57893  1.0000
  N   N15       1.0  0.23294  0.37921  0.55268  1.0000
  C   C162      1.0  0.22421  0.37202  0.86085  1.0000
  H   H252      1.0  0.24775  0.40857  0.85099  1.0000
  H   H253      1.0  0.04462  0.36035  0.52748  1.0000
  H   H254      1.0  0.24593  0.36562  0.52029  1.0000
  H   H255      1.0  0.22623  0.59983  0.98374  1.0000
  C   C163      1.0  0.05502  0.36246  0.54300  1.0000
  H   H256      1.0  0.23268  0.35923  0.84977  1.0000
  S   S75       1.0  0.02857  0.41198  0.97143  1.0000
  H   H257      1.0  0.16020  0.39681  0.56846  1.0000
  H   H258      1.0  0.24258  0.41337  0.54304  1.0000
  C   C164      1.0  0.20471  0.38612  0.82671  1.0000
  S   S76       1.0  0.02580  0.36066  0.63181  1.0000
  C   C165      1.0  0.13595  0.37183  0.56682  1.0000
  C   C166      1.0  0.12500  0.35721  0.55219  1.0000
  H   H259      1.0  0.06374  0.36375  0.58934  1.0000
  N   N16       1.0  0.04590  0.37836  0.56061  1.0000
  Fe  Fe40      1.0  0.09434  0.38875  0.01237  1.0000
  C   C167      1.0  0.23900  0.38165  0.57789  1.0000
  H   H260      1.0  0.03112  0.40006  0.53394  1.0000
  S   S77       1.0  0.16647  0.35395  0.87234  1.0000
  C   C168      1.0  0.06044  0.38068  0.58063  1.0000
  N   N17       1.0  0.05078  0.38395  0.90884  1.0000
  H   H261      1.0  0.02241  0.37902  0.92869  1.0000
  H   H262      1.0  0.03732  0.35305  0.92347  1.0000
  H   H263      1.0  0.20193  0.42480  0.85171  1.0000
  H   H264      1.0  0.22488  0.40101  0.52261  1.0000
  H   H265      1.0  0.24210  0.36461  0.58670  1.0000
  S   S78       1.0  0.05210  0.34857  0.98914  1.0000
  C   C169      1.0  0.24995  0.36766  0.53944  1.0000
  H   H266      1.0  0.06417  0.49153  0.01387  1.0000
  H   H267      1.0  0.19041  0.37768  0.83355  1.0000
  H   H268      1.0  0.10420  0.51999  0.01009  1.0000
  H   H269      1.0  0.05805  0.34510  0.55120  1.0000
  H   H270      1.0  0.21034  0.36345  0.86862  1.0000
  H   H271      1.0  0.20075  0.37378  0.56114  1.0000
  C   C170      1.0  0.20682  0.40901  0.86191  1.0000
  H   H272      1.0  0.07996  0.37452  0.92506  1.0000
  H   H273      1.0  0.03917  0.36400  0.88022  1.0000
  C   C171      1.0  0.25433  0.58791  0.00109  1.0000
  C   C172      1.0  0.12439  0.35705  0.92683  1.0000
  H   H274      1.0  0.01886  0.38059  0.58329  1.0000
  H   H275      1.0  0.07024  0.36866  0.53611  1.0000
  H   H276      1.0  0.05396  0.39205  0.59470  1.0000
  H   H277      1.0  0.04949  0.39132  0.87109  1.0000
  C   C173      1.0  0.23708  0.40348  0.83660  1.0000
  H   H278      1.0  0.03918  0.61444  0.00128  1.0000
  C   C174      1.0  0.14696  0.34641  0.89338  1.0000
  C   C175      1.0  0.22885  0.40222  0.54183  1.0000
  H   H279      1.0  0.07563  0.38755  0.57450  1.0000
  H   H280      1.0  0.06108  0.41841  0.90152  1.0000
  H   H281      1.0  0.22653  0.39049  0.58829  1.0000
  H   H282      1.0  0.01638  0.65195  0.96596  1.0000
  H   H283      1.0  0.01473  0.36691  0.55525  1.0000
  H   H284      1.0  0.21646  0.41428  0.87718  1.0000
  H   H285      1.0  0.21287  0.37391  0.81464  1.0000
  C   C176      1.0  0.13076  0.35573  0.52797  1.0000
  H   H286      1.0  0.07535  0.59986  0.99514  1.0000
  C   C177      1.0  0.05219  0.40840  0.91515  1.0000
  C   C178      1.0  0.04057  0.38224  0.88542  1.0000
  C   C179      1.0  0.07186  0.37351  0.90765  1.0000
  H   H287      1.0  0.12237  0.34453  0.51646  1.0000
  N   N18       1.0  0.21823  0.39270  0.84653  1.0000
  H   H288      1.0  0.02464  0.39002  0.88583  1.0000
  H   H289      1.0  0.24587  0.39137  0.82490  1.0000
  H   H290      1.0  0.13163  0.37328  0.58544  1.0000
  H   H291      1.0  0.08171  0.38228  0.89398  1.0000
  C   C180      1.0  0.04257  0.67215  0.99582  1.0000
  H   H292      1.0  0.23318  0.41908  0.82554  1.0000
  H   H293      1.0  0.25333  0.39191  0.57935  1.0000
  H   H294      1.0  0.06722  0.51813  0.99740  1.0000
  H   H295      1.0  0.24880  0.63611  0.94895  1.0000
  H   H296      1.0  0.07145  0.35495  0.90330  1.0000
  H   H297      1.0  0.04221  0.64083  0.96136  1.0000
  H   H298      1.0  0.03651  0.41661  0.91701  1.0000
  C   C181      1.0  0.03189  0.65618  0.95853  1.0000
  C   C182      1.0  0.03844  0.37165  0.92724  1.0000
  S   S79       1.0  0.17786  0.40151  0.52133  1.0000
  H   H299      1.0  0.02974  0.65900  0.93893  1.0000
  H   H300      1.0  0.24987  0.64386  0.91761  1.0000
  C   C183      1.0  0.14723  0.36870  0.51840  1.0000
  C   C184      1.0  0.07003  0.60413  0.01290  1.0000
  H   H301      1.0  0.25354  0.35024  0.54705  1.0000
  H   H302      1.0  0.07186  0.66749  0.96172  1.0000
  S   S80       1.0  0.09862  0.35008  0.01323  1.0000
  H   H303      1.0  0.20253  0.58504  0.01553  1.0000
  C   C185      1.0  0.06339  0.51059  0.01531  1.0000
  C   C186      1.0  0.24239  0.93591  0.50655  1.0000
  H   H304      1.0  0.22572  0.88092  0.46010  1.0000
  H   H305      1.0  0.05980  0.80902  0.45428  1.0000
  C   C187      1.0  0.24557  0.86268  0.42182  1.0000
  H   H306      1.0  0.24304  0.95270  0.49789  1.0000
  H   H307      1.0  0.05195  0.83841  0.45889  1.0000
  C   C188      1.0  0.02872  0.81070  0.48648  1.0000
  H   H308      1.0  0.22507  0.90106  0.43520  1.0000
  H   H309      1.0  0.06921  0.99301  0.51382  1.0000
  C   C189      1.0  0.04728  0.82202  0.45066  1.0000
  H   H310      1.0  0.25879  0.85327  0.41321  1.0000
  H   H311      1.0  0.24064  0.90652  0.46079  1.0000
  N   N19       1.0  0.25311  0.88049  0.43784  1.0000
  C   C190      1.0  0.23531  0.89273  0.44892  1.0000
  H   H312      1.0  0.01938  0.79486  0.42946  1.0000
  C   C191      1.0  0.25903  0.92018  0.50364  1.0000
  H   H313      1.0  0.23579  0.87033  0.40727  1.0000
  H   H314      1.0  0.04111  0.79788  0.49121  1.0000
  H   H315      1.0  0.04655  0.82510  0.43097  1.0000
  S   S81       1.0  0.03172  0.88077  0.49673  1.0000
  H   H316      1.0  0.03230  0.82701  0.49557  1.0000
  H   H317      1.0  0.23614  0.84977  0.43178  1.0000
  H   H318      1.0  0.07390  0.89596  0.49431  1.0000
  H   H319      1.0  0.25659  0.90552  0.40927  1.0000
  H   H320      1.0  0.03313  0.77880  0.45241  1.0000
  N   N20       1.0  0.02712  0.81435  0.46032  1.0000
  H   H321      1.0  0.01517  0.84891  0.46292  1.0000
  H   H322      1.0  0.25691  0.85746  0.46820  1.0000
  C   C192      1.0  0.02129  0.79264  0.44915  1.0000
  C   C193      1.0  0.06956  0.89484  0.51300  1.0000
  H   H323      1.0  0.01389  0.80427  0.49421  1.0000
  H   H324      1.0  0.25028  0.67737  0.28920  1.0000
  C   C194      1.0  0.25791  0.89852  0.51489  1.0000
  H   H325      1.0  0.21423  0.91075  0.62841  1.0000
  Fe  Fe41      1.0  0.17440  0.92262  0.56213  1.0000
  S   S82       1.0  0.17829  0.95776  0.57687  1.0000
  S   S83       1.0  0.20207  0.90036  0.54972  1.0000
  Fe  Fe42      1.0  0.12768  0.92292  0.57488  1.0000
  S   S84       1.0  0.12891  0.95808  0.59083  1.0000
  S   S85       1.0  0.09616  0.90584  0.57784  1.0000
  Fe  Fe43      1.0  0.14824  0.96698  0.55858  1.0000
  H   H326      1.0  0.08012  0.95946  0.58146  1.0000
  Fe  Fe44      1.0  0.15867  0.94550  0.60810  1.0000
  S   S86       1.0  0.16990  0.95478  0.64540  1.0000
  S   S87       1.0  0.14546  0.93244  0.54156  1.0000
  S   S88       1.0  0.15629  0.90976  0.59438  1.0000
  N   N21       1.0  0.07480  0.97263  0.54575  1.0000
  Fe  Fe45      1.0  0.18544  0.89413  0.82812  1.0000
  S   S89       1.0  0.18857  0.92503  0.80353  1.0000
  S   S90       1.0  0.21012  0.86749  0.84016  1.0000
  Fe  Fe46      1.0  0.13755  0.90137  0.83385  1.0000
  S   S91       1.0  0.13763  0.93275  0.80947  1.0000
  S   S92       1.0  0.11065  0.88466  0.85501  1.0000
  Fe  Fe47      1.0  0.15960  0.91281  0.78571  1.0000
  S   S93       1.0  0.15483  0.90365  0.74652  1.0000
  Fe  Fe48      1.0  0.16657  0.94278  0.82935  1.0000
  S   S94       1.0  0.17093  0.98048  0.83934  1.0000
  S   S95       1.0  0.15773  0.88082  0.80912  1.0000
  S   S96       1.0  0.16526  0.91258  0.85501  1.0000
  H   H327      1.0  0.26129  0.91473  0.58918  1.0000
  H   H328      1.0  0.23656  0.95593  0.63154  1.0000
  C   C195      1.0  0.17641  0.98409  0.88880  1.0000
  H   H329      1.0  0.09007  0.98761  0.57546  1.0000
  C   C196      1.0  0.07113  0.99505  0.53339  1.0000
  H   H330      1.0  0.17306  0.96598  0.89026  1.0000
  H   H331      1.0  0.23955  0.87587  0.53726  1.0000
  C   C197      1.0  0.03969  0.87453  0.84825  1.0000
  C   C198      1.0  0.05018  0.88930  0.83212  1.0000
  C   C199      1.0  0.07189  0.89212  0.83339  1.0000
  C   C200      1.0  0.08344  0.88053  0.85118  1.0000
  C   C201      1.0  0.07294  0.86578  0.86730  1.0000
  C   C202      1.0  0.05129  0.86259  0.86572  1.0000
  H   H332      1.0  0.04143  0.89869  0.81852  1.0000
  H   H333      1.0  0.07961  0.90349  0.82079  1.0000
  H   H334      1.0  0.08163  0.85672  0.88118  1.0000
  H   H335      1.0  0.04357  0.85122  0.87832  1.0000
  C   C203      1.0  0.16513  0.94052  0.67339  1.0000
  C   C204      1.0  0.15518  0.91940  0.67507  1.0000
  C   C205      1.0  0.15214  0.90850  0.69759  1.0000
  C   C206      1.0  0.15882  0.91860  0.71876  1.0000
  C   C207      1.0  0.16880  0.93970  0.71710  1.0000
  C   C208      1.0  0.17200  0.95052  0.69455  1.0000
  H   H336      1.0  0.14979  0.91148  0.65901  1.0000
  H   H337      1.0  0.14436  0.89221  0.69860  1.0000
  H   H338      1.0  0.17405  0.94771  0.73316  1.0000
  H   H339      1.0  0.17970  0.96685  0.69350  1.0000
  H   H340      1.0  0.11850  0.98105  0.85501  1.0000
  C   C209      1.0  0.04407  0.88639  0.54364  1.0000
  C   C210      1.0  0.05869  0.89161  0.56122  1.0000
  C   C211      1.0  0.07878  0.89860  0.55484  1.0000
  H   H341      1.0  0.02522  0.85924  0.76033  1.0000
  H   H342      1.0  0.02869  0.88100  0.54888  1.0000
  H   H343      1.0  0.05437  0.89027  0.57991  1.0000
  H   H344      1.0  0.24532  0.68518  0.92729  1.0000
  C   C212      1.0  0.22364  0.90844  0.53158  1.0000
  N   N22       1.0  0.23400  0.93036  0.60472  1.0000
  C   C213      1.0  0.24616  0.87448  0.81321  1.0000
  C   C214      1.0  0.23603  0.86133  0.83080  1.0000
  C   C215      1.0  0.24661  0.84224  0.84114  1.0000
  H   H345      1.0  0.22338  0.96327  0.59084  1.0000
  H   H346      1.0  0.23834  0.88937  0.80529  1.0000
  H   H347      1.0  0.23889  0.83188  0.85469  1.0000
  C   C216      1.0  0.17693  0.99497  0.86621  1.0000
  C   C217      1.0  0.01925  0.84144  0.75963  1.0000
  C   C218      1.0  0.07698  0.97609  0.57169  1.0000
  H   H348      1.0  0.21218  0.94245  0.52244  1.0000
  H   H349      1.0  0.05703  0.00400  0.54040  1.0000
  C   C219      1.0  0.23173  0.94745  0.58492  1.0000
  C   C220      1.0  0.24028  0.89268  0.52867  1.0000
  C   C221      1.0  0.24571  0.91002  0.59619  1.0000
  H   H350      1.0  0.10117  0.97486  0.90649  1.0000
  H   H351      1.0  0.05569  0.95331  0.52237  1.0000
  H   H352      1.0  0.07943  0.95776  0.89854  1.0000
  H   H353      1.0  0.08820  0.95785  0.84477  1.0000
  C   C222      1.0  0.18003  0.99675  0.90959  1.0000
  H   H354      1.0  0.01609  0.79763  0.77561  1.0000
  H   H355      1.0  0.06270  0.98395  0.57951  1.0000
  H   H356      1.0  0.20438  0.91519  0.59875  1.0000
  H   H357      1.0  0.12569  0.92262  0.88117  1.0000
  N   N23       1.0  0.10655  0.95301  0.87658  1.0000
  C   C223      1.0  0.09471  0.94385  0.85651  1.0000
  N   N24       1.0  0.04020  0.67671  0.96986  1.0000
  H   H358      1.0  0.22270  0.94046  0.56998  1.0000
  C   C224      1.0  0.21326  0.92332  0.61318  1.0000
  H   H359      1.0  0.17937  0.98819  0.92693  1.0000
  H   H360      1.0  0.03210  0.83016  0.75304  1.0000
  H   H361      1.0  0.24392  0.67736  0.95854  1.0000
  H   H362      1.0  0.08166  0.93305  0.86298  1.0000
  H   H363      1.0  0.13295  0.97448  0.88168  1.0000
  C   C225      1.0  0.24524  0.94070  0.62460  1.0000
  C   C226      1.0  0.09405  0.96189  0.53638  1.0000
  C   C227      1.0  0.09272  0.96767  0.89117  1.0000
  C   C228      1.0  0.04946  0.88786  0.51943  1.0000
  C   C229      1.0  0.05715  0.95742  0.54160  1.0000
  C   C230      1.0  0.08414  0.90028  0.53059  1.0000
  H   H364      1.0  0.23739  0.90172  0.58142  1.0000
  N   N25       1.0  0.20070  0.85386  0.75741  1.0000
  C   C231      1.0  0.20384  0.87872  0.76018  1.0000
  C   C232      1.0  0.20404  0.84176  0.78063  1.0000
  C   C233      1.0  0.21563  0.84494  0.73958  1.0000
  C   C234      1.0  0.17929  0.85010  0.74925  1.0000
  H   H365      1.0  0.20109  0.88853  0.74312  1.0000
  H   H366      1.0  0.21978  0.88232  0.76637  1.0000
  H   H367      1.0  0.19279  0.88590  0.77348  1.0000
  H   H368      1.0  0.20135  0.82302  0.77943  1.0000
  H   H369      1.0  0.22014  0.84391  0.78715  1.0000
  H   H370      1.0  0.19342  0.84852  0.79471  1.0000
  H   H371      1.0  0.21371  0.82621  0.73703  1.0000
  H   H372      1.0  0.23193  0.84758  0.74525  1.0000
  H   H373      1.0  0.21349  0.85380  0.72189  1.0000
  H   H374      1.0  0.17633  0.83159  0.74663  1.0000
  H   H375      1.0  0.17604  0.85952  0.73207  1.0000
  H   H376      1.0  0.16764  0.85653  0.76242  1.0000
  H   H377      1.0  0.24785  0.89682  0.61069  1.0000
  C   C235      1.0  0.12392  0.96678  0.86712  1.0000
  C   C236      1.0  0.11486  0.93373  0.89154  1.0000
  H   H378      1.0  0.04179  0.82194  0.79551  1.0000
  H   H379      1.0  0.12360  0.93994  0.90711  1.0000
  H   H380      1.0  0.02314  0.69995  0.94643  1.0000
  H   H381      1.0  0.13501  0.95606  0.85667  1.0000
  H   H382      1.0  0.08624  0.98240  0.88037  1.0000
  C   C237      1.0  0.02878  0.83365  0.80072  1.0000
  H   H383      1.0  0.20389  0.93832  0.61931  1.0000
  H   H384      1.0  0.10227  0.92241  0.89830  1.0000
  H   H385      1.0  0.03146  0.71236  0.97383  1.0000
  H   H386      1.0  0.10468  0.93274  0.84514  1.0000
  H   H387      1.0  0.24704  0.95261  0.57746  1.0000
  H   H388      1.0  0.05929  0.68568  0.93958  1.0000
  H   H389      1.0  0.04801  0.68754  0.00516  1.0000
  H   H390      1.0  0.24730  0.92826  0.63983  1.0000
  H   H391      1.0  0.06737  0.69745  0.96737  1.0000
  S   S97       1.0  0.14428  0.99789  0.53344  1.0000
  H   H392      1.0  0.02346  0.82822  0.81893  1.0000
  H   H393      1.0  0.03513  0.85119  0.80233  1.0000
  H   H394      1.0  0.08438  0.00674  0.53580  1.0000
  H   H395      1.0  0.10763  0.97298  0.53911  1.0000
  C   C238      1.0  0.02570  0.69640  0.96585  1.0000
  H   H396      1.0  0.09957  0.90548  0.52539  1.0000
  H   H397      1.0  0.04223  0.96534  0.54761  1.0000
  C   C239      1.0  0.06060  0.68208  0.95916  1.0000
  C   C240      1.0  0.25476  0.68173  0.94361  1.0000
  C   C241      1.0  0.22484  0.93013  0.52045  1.0000
  H   H398      1.0  0.26088  0.94647  0.61880  1.0000
  S   S98       1.0  0.01214  0.87205  0.84582  1.0000
  H   H399      1.0  0.09750  0.94515  0.54558  1.0000
  H   H400      1.0  0.05907  0.94080  0.55163  1.0000
  H   H401      1.0  0.09304  0.95872  0.51691  1.0000
  H   H402      1.0  0.47520  0.13330  0.06666  1.0000
  Fe  Fe49      1.0  0.41159  0.08216  0.06991  1.0000
  S   S99       1.0  0.42055  0.04709  0.08410  1.0000
  S   S100      1.0  0.43666  0.10925  0.06832  1.0000
  Fe  Fe50      1.0  0.36511  0.07033  0.06736  1.0000
  S   S101      1.0  0.37144  0.03464  0.08240  1.0000
  S   S102      1.0  0.33067  0.07918  0.06118  1.0000
  Fe  Fe51      1.0  0.39273  0.05121  0.10849  1.0000
  S   S103      1.0  0.39667  0.03956  0.14764  1.0000
  Fe  Fe52      1.0  0.39850  0.03398  0.05696  1.0000
  S   S104      1.0  0.38458  0.08693  0.09540  1.0000
  S   S105      1.0  0.39138  0.06909  0.04072  1.0000
  Fe  Fe53      1.0  0.38044  0.05259  0.32568  1.0000
  S   S106      1.0  0.38434  0.07999  0.35248  1.0000
  H   H403      1.0  0.44573  0.04917  0.33230  1.0000
  Fe  Fe54      1.0  0.38660  0.08704  0.28353  1.0000
  S   S107      1.0  0.39054  0.11679  0.30856  1.0000
  S   S108      1.0  0.38630  0.09667  0.24356  1.0000
  Fe  Fe55      1.0  0.41131  0.09233  0.32977  1.0000
  S   S109      1.0  0.44230  0.09717  0.34956  1.0000
  Fe  Fe56      1.0  0.36329  0.10189  0.32886  1.0000
  S   S110      1.0  0.33578  0.11869  0.34864  1.0000
  S   S111      1.0  0.40853  0.06325  0.30392  1.0000
  S   S112      1.0  0.35831  0.07387  0.30284  1.0000
  C   C242      1.0  0.31203  0.12973  0.33650  1.0000
  C   C243      1.0  0.30895  0.13241  0.31188  1.0000
  C   C244      1.0  0.29013  0.14194  0.30308  1.0000
  C   C245      1.0  0.27407  0.14875  0.31870  1.0000
  C   C246      1.0  0.27695  0.14564  0.34332  1.0000
  C   C247      1.0  0.29589  0.13635  0.35215  1.0000
  H   H404      1.0  0.32119  0.12742  0.29960  1.0000
  H   H405      1.0  0.38365  0.02372  0.38500  1.0000
  H   H406      1.0  0.48011  0.23583  0.34826  1.0000
  H   H407      1.0  0.29804  0.13428  0.37123  1.0000
  C   C248      1.0  0.29575  0.23536  0.34260  1.0000
  C   C249      1.0  0.43077  0.04210  0.37675  1.0000
  H   H408      1.0  0.28560  0.06015  0.36977  1.0000
  H   H409      1.0  0.49627  0.19874  0.02590  1.0000
  H   H410      1.0  0.26436  0.08737  0.01849  1.0000
  H   H411      1.0  0.28809  0.14416  0.28399  1.0000
  H   H412      1.0  0.32645  0.01434  0.36506  1.0000
  C   C250      1.0  0.49982  0.14390  0.34105  1.0000
  C   C251      1.0  0.48332  0.14580  0.32465  1.0000
  C   C252      1.0  0.46566  0.13180  0.32692  1.0000
  C   C253      1.0  0.46415  0.11559  0.34571  1.0000
  C   C254      1.0  0.48066  0.11371  0.36212  1.0000
  C   C255      1.0  0.49832  0.12771  0.35986  1.0000
  H   H413      1.0  0.48417  0.15820  0.31000  1.0000
  H   H414      1.0  0.45320  0.13356  0.31411  1.0000
  H   H415      1.0  0.47976  0.10134  0.37679  1.0000
  H   H416      1.0  0.47593  0.24301  0.37901  1.0000
  C   C256      1.0  0.39210  0.05522  0.17425  1.0000
  C   C257      1.0  0.39680  0.04467  0.19651  1.0000
  C   C258      1.0  0.39468  0.05684  0.21797  1.0000
  C   C259      1.0  0.38803  0.07987  0.21739  1.0000
  C   C260      1.0  0.38327  0.09038  0.19514  1.0000
  C   C261      1.0  0.38504  0.07811  0.17375  1.0000
  H   H417      1.0  0.40222  0.02696  0.19717  1.0000
  H   H418      1.0  0.39842  0.04849  0.23490  1.0000
  H   H419      1.0  0.37797  0.10813  0.19448  1.0000
  H   H420      1.0  0.38091  0.08639  0.15691  1.0000
  C   C262      1.0  0.31555  0.08401  0.03494  1.0000
  H   H421      1.0  0.46645  0.04867  0.35325  1.0000
  H   H422      1.0  0.42076  0.05381  0.36568  1.0000
  C   C263      1.0  0.50501  0.18474  0.01684  1.0000
  H   H423      1.0  0.49135  0.19637  0.36082  1.0000
  C   C264      1.0  0.45963  0.10473  0.05140  1.0000
  C   C265      1.0  0.47636  0.11961  0.05396  1.0000
  C   C266      1.0  0.49463  0.11681  0.04025  1.0000
  N   N26       1.0  0.44189  0.02524  0.36177  1.0000
  N   N27       1.0  0.33801  0.01604  0.01722  1.0000
  C   C267      1.0  0.31612  0.02412  0.01678  1.0000
  C   C268      1.0  0.46138  0.08692  0.03513  1.0000
  C   C269      1.0  0.28107  0.08732  0.01661  1.0000
  H   H424      1.0  0.31263  0.03571  0.03194  1.0000
  H   H425      1.0  0.50751  0.12814  0.04259  1.0000
  C   C270      1.0  0.45493  0.00995  0.37714  1.0000
  H   H426      1.0  0.29900  0.02003  0.36543  1.0000
  N   N28       1.0  0.28056  0.21997  0.35424  1.0000
  N   N29       1.0  0.31779  0.05009  0.36704  1.0000
  H   H427      1.0  0.34977  0.04761  0.03006  1.0000
  H   H428      1.0  0.29813  0.18903  0.34717  1.0000
  H   H429      1.0  0.34092  0.07516  0.37383  1.0000
  H   H430      1.0  0.44863  0.07533  0.03303  1.0000
  H   H431      1.0  0.30340  0.22703  0.32704  1.0000
  C   C271      1.0  0.29118  0.19851  0.36245  1.0000
  H   H432      1.0  0.30388  0.20196  0.37515  1.0000
  H   H433      1.0  0.31380  0.02212  0.39241  1.0000
  H   H434      1.0  0.28249  0.23484  0.38904  1.0000
  H   H435      1.0  0.42072  0.03351  0.39035  1.0000
  H   H436      1.0  0.43725  0.09355  0.18082  1.0000
  H   H437      1.0  0.33812  0.05357  0.39702  1.0000
  H   H438      1.0  0.35089  0.04659  0.36948  1.0000
  H   H439      1.0  0.46046  0.11670  0.12375  1.0000
  H   H440      1.0  0.49259  0.26030  0.36040  1.0000
  C   C272      1.0  0.29376  0.08409  0.03692  1.0000
  H   H441      1.0  0.45373  0.12364  0.15402  1.0000
  H   H442      1.0  0.33844  0.01488  0.05559  1.0000
  H   H443      1.0  0.28662  0.08162  0.05433  1.0000
  C   C273      1.0  0.48777  0.24235  0.36447  1.0000
  H   H444      1.0  0.30811  0.24012  0.35525  1.0000
  H   H445      1.0  0.46653  0.01988  0.38708  1.0000
  C   C274      1.0  0.31404  0.02559  0.37276  1.0000
  H   H446      1.0  0.47526  0.10439  0.14814  1.0000
  N   N30       1.0  0.44519  0.08987  0.14360  1.0000
  C   C275      1.0  0.42433  0.09759  0.13577  1.0000
  C   C276      1.0  0.45299  0.07166  0.12770  1.0000
  C   C277      1.0  0.44398  0.08065  0.16841  1.0000
  C   C278      1.0  0.45932  0.10954  0.14237  1.0000
  H   H447      1.0  0.41733  0.11040  0.14805  1.0000
  H   H448      1.0  0.41366  0.08290  0.13519  1.0000
  H   H449      1.0  0.42471  0.10557  0.11752  1.0000
  H   H450      1.0  0.46892  0.06574  0.13265  1.0000
  H   H451      1.0  0.44285  0.05637  0.12868  1.0000
  H   H452      1.0  0.45342  0.07781  0.10868  1.0000
  H   H453      1.0  0.45951  0.07519  0.17521  1.0000
  H   H454      1.0  0.43387  0.06535  0.16961  1.0000
  C   C279      1.0  0.33780  0.05664  0.37733  1.0000
  H   H455      1.0  0.30348  0.08313  0.37299  1.0000
  H   H456      1.0  0.48726  0.20347  0.39165  1.0000
  H   H457      1.0  0.28018  0.18675  0.37173  1.0000
  H   H458      1.0  0.33102  0.04298  0.33257  1.0000
  H   H459      1.0  0.30007  0.06242  0.39696  1.0000
  C   C280      1.0  0.31847  0.05366  0.34082  1.0000
  C   C281      1.0  0.30096  0.06455  0.37717  1.0000
  H   H460      1.0  0.32139  0.07197  0.33588  1.0000
  H   H461      1.0  0.28810  0.25156  0.33590  1.0000
  H   H462      1.0  0.44173  0.05323  0.38625  1.0000
  N   N31       1.0  0.50573  0.22760  0.37145  1.0000
  C   C282      1.0  0.45514  0.03757  0.34424  1.0000
  S   S113      1.0  0.37107  0.01565  0.33538  1.0000
  H   H463      1.0  0.26462  0.15042  0.35555  1.0000
  H   H464      1.0  0.27094  0.20623  0.32073  1.0000
  C   C283      1.0  0.49870  0.20397  0.37670  1.0000
  C   C284      1.0  0.47951  0.08431  0.02123  1.0000
  H   H465      1.0  0.30361  0.04897  0.33239  1.0000
  C   C285      1.0  0.49616  0.09929  0.02360  1.0000
  H   H466      1.0  0.41630  0.02239  0.33759  1.0000
  H   H467      1.0  0.51075  0.12595  0.37269  1.0000
  H   H468      1.0  0.46397  0.02548  0.33271  1.0000
  C   C286      1.0  0.26431  0.21448  0.33691  1.0000
  H   H469      1.0  0.50726  0.17038  0.03010  1.0000
  C   C287      1.0  0.42671  0.01139  0.34900  1.0000
  H   H470      1.0  0.30525  0.00956  0.01825  1.0000
  C   C288      1.0  0.27095  0.23154  0.37492  1.0000
  H   H471      1.0  0.50450  0.23770  0.40826  1.0000
  H   H472      1.0  0.51190  0.19227  0.38175  1.0000
  H   H473      1.0  0.26374  0.24839  0.36951  1.0000
  C   C289      1.0  0.27121  0.13229  0.91349  1.0000
  H   H474      1.0  0.50890  0.14374  0.99658  1.0000
  C   C290      1.0  0.49988  0.26686  0.87186  1.0000
  H   H475      1.0  0.44378  0.33219  0.61156  1.0000
  H   H476      1.0  0.48257  0.21106  0.98621  1.0000
  C   C291      1.0  0.29004  0.09060  0.99400  1.0000
  H   H477      1.0  0.49252  0.32424  0.87976  1.0000
  N   N32       1.0  0.49408  0.17711  0.99537  1.0000
  H   H478      1.0  0.29401  0.16411  0.89083  1.0000
  C   C292      1.0  0.28117  0.15236  0.94877  1.0000
  H   H479      1.0  0.31897  0.09322  0.97464  1.0000
  S   S114      1.0  0.27497  0.09491  0.96766  1.0000
  H   H480      1.0  0.48164  0.30091  0.89672  1.0000
  H   H481      1.0  0.47546  0.30495  0.86553  1.0000
  H   H482      1.0  0.46475  0.16255  0.98657  1.0000
  H   H483      1.0  0.34845  0.04619  0.99810  1.0000
  C   C293      1.0  0.49168  0.19669  0.97826  1.0000
  H   H484      1.0  0.30941  0.14963  0.91344  1.0000
  H   H485      1.0  0.28332  0.11872  0.91682  1.0000
  H   H486      1.0  0.50708  0.20355  0.97277  1.0000
  C   C294      1.0  0.47344  0.16845  0.00233  1.0000
  H   H487      1.0  0.30782  0.33768  0.85879  1.0000
  N   N33       1.0  0.27733  0.15470  0.92280  1.0000
  H   H488      1.0  0.34122  0.08785  0.01054  1.0000
  H   H489      1.0  0.46382  0.18188  0.01122  1.0000
  H   H490      1.0  0.48057  0.07065  0.00848  1.0000
  H   H491      1.0  0.31247  0.03408  0.00005  1.0000
  H   H492      1.0  0.30147  0.17915  0.91701  1.0000
  C   C295      1.0  0.48810  0.30587  0.87890  1.0000
  H   H493      1.0  0.29370  0.13941  0.95277  1.0000
  H   H494      1.0  0.27231  0.32671  0.84692  1.0000
  C   C296      1.0  0.50630  0.15857  0.98401  1.0000
  C   C297      1.0  0.31184  0.09057  0.99201  1.0000
  H   H495      1.0  0.48768  0.26436  0.85824  1.0000
  H   H496      1.0  0.28569  0.16893  0.95652  1.0000
  H   H497      1.0  0.49838  0.15195  0.96805  1.0000
  C   C298      1.0  0.28079  0.33906  0.83615  1.0000
  H   H498      1.0  0.49369  0.26089  0.88949  1.0000
  C   C299      1.0  0.29643  0.16225  0.91047  1.0000
  H   H499      1.0  0.33925  0.00915  0.97970  1.0000
  N   N34       1.0  0.50612  0.29113  0.87245  1.0000
  H   H500      1.0  0.48368  0.19152  0.96173  1.0000
  H   H501      1.0  0.26797  0.13335  0.89397  1.0000
  H   H502      1.0  0.26438  0.18899  0.92528  1.0000
  H   H503      1.0  0.26712  0.14640  0.95860  1.0000
  H   H504      1.0  0.50181  0.29770  0.83477  1.0000
  C   C300      1.0  0.32452  0.08738  0.01233  1.0000
  H   H505      1.0  0.36834  0.03056  0.01413  1.0000
  C   C301      1.0  0.35173  0.03598  0.01473  1.0000
  H   H506      1.0  0.47480  0.15351  0.01505  1.0000
  C   C302      1.0  0.28751  0.40188  0.50195  1.0000
  Fe  Fe57      1.0  0.45165  0.66694  0.10135  1.0000
  C   C303      1.0  0.49337  0.59333  0.10044  1.0000
  H   H507      1.0  0.31524  0.66161  0.27291  1.0000
  S   S115      1.0  0.46117  0.64339  0.13188  1.0000
  C   C304      1.0  0.49238  0.62632  0.07357  1.0000
  C   C305      1.0  0.43739  0.65070  0.32923  1.0000
  H   H508      1.0  0.45581  0.61265  0.09083  1.0000
  S   S116      1.0  0.46463  0.60619  0.47948  1.0000
  H   H509      1.0  0.48721  0.60373  0.11546  1.0000
  Fe  Fe58      1.0  0.49637  0.62148  0.47458  1.0000
  Fe  Fe59      1.0  0.45303  0.64303  0.48010  1.0000
  H   H510      1.0  0.41654  0.62545  0.38660  1.0000
  H   H511      1.0  0.45706  0.58400  0.07968  1.0000
  H   H512      1.0  0.38779  0.66820  0.26076  1.0000
  C   C306      1.0  0.38987  0.67263  0.40547  1.0000
  S   S117      1.0  0.27224  0.38577  0.48213  1.0000
  C   C307      1.0  0.43084  0.47865  0.50934  1.0000
  H   H513      1.0  0.43273  0.62893  0.42657  1.0000
  S   S118      1.0  0.43946  0.65773  0.06437  1.0000
  C   C308      1.0  0.46026  0.50350  0.51199  1.0000
  H   H514      1.0  0.32526  0.48949  0.49593  1.0000
  H   H515      1.0  0.42859  0.48358  0.49020  1.0000
  N   N35       1.0  0.48573  0.60236  0.07712  1.0000
  C   C309      1.0  0.39000  0.61109  0.03248  1.0000
  H   H516      1.0  0.46432  0.46790  0.48237  1.0000
  C   C310      1.0  0.41271  0.64400  0.02964  1.0000
  C   C311      1.0  0.41933  0.64035  0.05337  1.0000
  C   C312      1.0  0.41097  0.62208  0.06674  1.0000
  C   C313      1.0  0.39666  0.60735  0.05620  1.0000
  H   H517      1.0  0.45908  0.50883  0.49281  1.0000
  C   C314      1.0  0.27049  0.66646  0.31801  1.0000
  H   H518      1.0  0.41581  0.61905  0.08502  1.0000
  H   H519      1.0  0.39062  0.59300  0.06653  1.0000
  S   S119      1.0  0.48426  0.65805  0.47225  1.0000
  S   S120      1.0  0.38443  0.65161  0.36224  1.0000
  H   H520      1.0  0.48653  0.63709  0.08829  1.0000
  H   H521      1.0  0.46097  0.38973  0.50288  1.0000
  C   C315      1.0  0.39608  0.65490  0.39045  1.0000
  C   C316      1.0  0.30797  0.66571  0.25527  1.0000
  C   C317      1.0  0.42090  0.64120  0.42071  1.0000
  H   H522      1.0  0.27890  0.57381  0.02306  1.0000
  C   C318      1.0  0.41426  0.65857  0.43600  1.0000
  S   S121      1.0  0.43248  0.66047  0.18967  1.0000
  H   H523      1.0  0.40967  0.64684  0.23162  1.0000
  S   S122      1.0  0.37325  0.59101  0.01929  1.0000
  H   H524      1.0  0.42491  0.46091  0.51204  1.0000
  H   H525      1.0  0.45186  0.65075  0.33995  1.0000
  H   H526      1.0  0.39961  0.66718  0.31696  1.0000
  H   H527      1.0  0.29155  0.67080  0.25913  1.0000
  C   C319      1.0  0.30803  0.39452  0.50677  1.0000
  H   H528      1.0  0.45655  0.60847  0.05939  1.0000
  H   H529      1.0  0.46000  0.44563  0.50446  1.0000
  Fe  Fe60      1.0  0.48784  0.65847  0.51218  1.0000
  H   H530      1.0  0.41909  0.65802  0.01910  1.0000
  C   C320      1.0  0.41171  0.63927  0.39807  1.0000
  H   H531      1.0  0.43953  0.63798  0.31485  1.0000
  H   H532      1.0  0.42481  0.64433  0.34128  1.0000
  C   C321      1.0  0.49438  0.58822  0.05774  1.0000
  H   H533      1.0  0.28660  0.65158  0.34829  1.0000
  C   C322      1.0  0.39794  0.62971  0.01935  1.0000
  H   H534      1.0  0.48961  0.57002  0.05982  1.0000
  C   C323      1.0  0.40768  0.66528  0.22961  1.0000
  Fe  Fe61      1.0  0.49228  0.66054  0.13076  1.0000
  C   C324      1.0  0.46282  0.60171  0.07673  1.0000
  H   H535      1.0  0.30793  0.64962  0.24496  1.0000
  H   H536      1.0  0.41432  0.66068  0.29063  1.0000
  H   H537      1.0  0.51060  0.59403  0.10151  1.0000
  H   H538      1.0  0.49833  0.38026  0.50883  1.0000
  S   S123      1.0  0.50271  0.62315  0.51373  1.0000
  H   H539      1.0  0.48626  0.63419  0.05665  1.0000
  H   H540      1.0  0.48901  0.59477  0.03994  1.0000
  H   H541      1.0  0.26399  0.42731  0.50977  1.0000
  H   H542      1.0  0.31435  0.37962  0.49787  1.0000
  C   C325      1.0  0.41279  0.67292  0.30552  1.0000
  H   H543      1.0  0.45146  0.66990  0.28807  1.0000
  C   C326      1.0  0.27278  0.65113  0.33748  1.0000
  H   H544      1.0  0.48873  0.57526  0.10385  1.0000
  C   C327      1.0  0.46538  0.46361  0.50181  1.0000
  H   H545      1.0  0.48206  0.46370  0.50681  1.0000
  S   S124      1.0  0.42402  0.66081  0.46532  1.0000
  H   H546      1.0  0.51165  0.58842  0.05764  1.0000
  C   C328      1.0  0.27959  0.42120  0.51358  1.0000
  Fe  Fe62      1.0  0.45056  0.67205  0.15610  1.0000
  H   H547      1.0  0.50958  0.62767  0.07355  1.0000
  H   H548      1.0  0.34201  0.66123  0.22738  1.0000
  H   H549      1.0  0.35207  0.51963  0.49761  1.0000
  C   C329      1.0  0.26231  0.57637  0.02134  1.0000
  H   H550      1.0  0.30907  0.67392  0.20772  1.0000
  S   S125      1.0  0.34914  0.67449  0.31097  1.0000
  H   H551      1.0  0.34902  0.67341  0.25534  1.0000
  H   H552      1.0  0.31537  0.52929  0.50761  1.0000
  C   C330      1.0  0.39878  0.67429  0.42822  1.0000
  C   C331      1.0  0.32827  0.48555  0.51514  1.0000
  N   N36       1.0  0.43220  0.67385  0.31930  1.0000
  Fe  Fe63      1.0  0.36133  0.43904  0.56709  1.0000
  S   S126      1.0  0.36878  0.46244  0.59738  1.0000
  S   S127      1.0  0.32695  0.44023  0.55651  1.0000
  Fe  Fe64      1.0  0.40818  0.42877  0.55842  1.0000
  S   S128      1.0  0.41852  0.45188  0.58728  1.0000
  S   S129      1.0  0.43008  0.41126  0.53237  1.0000
  Fe  Fe65      1.0  0.39262  0.43575  0.60917  1.0000
  S   S130      1.0  0.39890  0.41724  0.64519  1.0000
  Fe  Fe66      1.0  0.39384  0.47641  0.57309  1.0000
  S   S131      1.0  0.39386  0.51323  0.55889  1.0000
  S   S132      1.0  0.38346  0.41125  0.58040  1.0000
  S   S133      1.0  0.38532  0.45423  0.54267  1.0000
  Fe  Fe67      1.0  0.41101  0.40003  0.82207  1.0000
  S   S134      1.0  0.40644  0.43822  0.81586  1.0000
  S   S135      1.0  0.44337  0.38298  0.81632  1.0000
  Fe  Fe68      1.0  0.36278  0.39306  0.82414  1.0000
  S   S136      1.0  0.35602  0.43060  0.81677  1.0000
  S   S137      1.0  0.33818  0.36780  0.83806  1.0000
  Fe  Fe69      1.0  0.38204  0.42830  0.78937  1.0000
  S   S138      1.0  0.38195  0.44768  0.75317  1.0000
  Fe  Fe70      1.0  0.38089  0.43722  0.84369  1.0000
  S   S139      1.0  0.37426  0.45713  0.87819  1.0000
  S   S140      1.0  0.38702  0.39023  0.79487  1.0000
  S   S141      1.0  0.38728  0.39949  0.85176  1.0000
  Fe  Fe71      1.0  0.34164  0.58266  0.93788  1.0000
  S   S142      1.0  0.31503  0.60824  0.93367  1.0000
  S   S143      1.0  0.35357  0.56166  0.90598  1.0000
  Fe  Fe72      1.0  0.35151  0.59908  0.98792  1.0000
  S   S144      1.0  0.32568  0.62548  0.98776  1.0000
  H   H553      1.0  0.47062  0.44608  0.78269  1.0000
  Fe  Fe73      1.0  0.30589  0.59851  0.97165  1.0000
  H   H554      1.0  0.46423  0.35249  0.60776  1.0000
  Fe  Fe74      1.0  0.33574  0.63405  0.94993  1.0000
  C   C332      1.0  0.49413  0.62560  0.61073  1.0000
  S   S145      1.0  0.33094  0.57090  0.97456  1.0000
  S   S146      1.0  0.36317  0.60959  0.95147  1.0000
  H   H555      1.0  0.36343  0.41359  0.90375  1.0000
  S   S147      1.0  0.33595  0.67264  0.94123  1.0000
  H   H556      1.0  0.34652  0.43607  0.91390  1.0000
  H   H557      1.0  0.32132  0.37474  0.88642  1.0000
  H   H558      1.0  0.31852  0.41114  0.86303  1.0000
  C   C333      1.0  0.28230  0.65911  0.96189  1.0000
  C   C334      1.0  0.31254  0.36106  0.82888  1.0000
  H   H559      1.0  0.42807  0.45116  0.73792  1.0000
  C   C335      1.0  0.48774  0.40569  0.56173  1.0000
  C   C336      1.0  0.40584  0.53278  0.94069  1.0000
  C   C337      1.0  0.36779  0.48625  0.88516  1.0000
  C   C338      1.0  0.36150  0.49137  0.90867  1.0000
  C   C339      1.0  0.35653  0.51414  0.91526  1.0000
  C   C340      1.0  0.35817  0.53227  0.89851  1.0000
  C   C341      1.0  0.36452  0.52714  0.87505  1.0000
  C   C342      1.0  0.36913  0.50432  0.86835  1.0000
  H   H560      1.0  0.36041  0.47761  0.92190  1.0000
  H   H561      1.0  0.35147  0.51764  0.93329  1.0000
  H   H562      1.0  0.36588  0.54095  0.86190  1.0000
  H   H563      1.0  0.37397  0.50079  0.85023  1.0000
  S   S148      1.0  0.27054  0.59888  0.97758  1.0000
  C   C343      1.0  0.28334  0.36426  0.80144  1.0000
  C   C344      1.0  0.46890  0.38167  0.85687  1.0000
  C   C345      1.0  0.46670  0.37665  0.83269  1.0000
  C   C346      1.0  0.48362  0.36612  0.82082  1.0000
  C   C347      1.0  0.33902  0.49977  0.55320  1.0000
  H   H564      1.0  0.34875  0.40953  0.93092  1.0000
  H   H565      1.0  0.40216  0.51445  0.94451  1.0000
  H   H566      1.0  0.42618  0.34887  0.57539  1.0000
  H   H567      1.0  0.47142  0.47406  0.54768  1.0000
  C   C348      1.0  0.41543  0.53135  0.55539  1.0000
  H   H568      1.0  0.32349  0.53982  0.53595  1.0000
  C   C349      1.0  0.27192  0.34826  0.81519  1.0000
  H   H569      1.0  0.32921  0.43711  0.87463  1.0000
  H   H570      1.0  0.35119  0.48610  0.55483  1.0000
  H   H571      1.0  0.34879  0.37792  0.88796  1.0000
  H   H572      1.0  0.30403  0.51818  0.53485  1.0000
  H   H573      1.0  0.31043  0.40539  0.92892  1.0000
  C   C350      1.0  0.43310  0.52870  0.56962  1.0000
  C   C351      1.0  0.45681  0.40542  0.53715  1.0000
  H   H574      1.0  0.42512  0.45405  0.76943  1.0000
  H   H575      1.0  0.47543  0.44234  0.73876  1.0000
  H   H576      1.0  0.31207  0.38273  0.79723  1.0000
  C   C352      1.0  0.40555  0.57151  0.95516  1.0000
  C   C353      1.0  0.34813  0.41706  0.91249  1.0000
  C   C354      1.0  0.39293  0.42589  0.67492  1.0000
  C   C355      1.0  0.38800  0.44869  0.68039  1.0000
  C   C356      1.0  0.38449  0.45492  0.70436  1.0000
  C   C357      1.0  0.38554  0.43846  0.72318  1.0000
  C   C358      1.0  0.39011  0.41558  0.71767  1.0000
  C   C359      1.0  0.39402  0.40942  0.69375  1.0000
  H   H577      1.0  0.38713  0.46161  0.66621  1.0000
  H   H578      1.0  0.38090  0.47266  0.70834  1.0000
  H   H579      1.0  0.39061  0.40262  0.73183  1.0000
  H   H580      1.0  0.39767  0.39170  0.68979  1.0000
  C   C360      1.0  0.31239  0.42523  0.53506  1.0000
  H   H581      1.0  0.27670  0.37150  0.78517  1.0000
  C   C361      1.0  0.30346  0.37069  0.80824  1.0000
  H   H582      1.0  0.27229  0.65406  0.97737  1.0000
  C   C362      1.0  0.44941  0.54435  0.56709  1.0000
  H   H583      1.0  0.40072  0.55179  0.52744  1.0000
  H   H584      1.0  0.48296  0.65487  0.55933  1.0000
  H   H585      1.0  0.45795  0.42025  0.57194  1.0000
  C   C363      1.0  0.46460  0.42767  0.73948  1.0000
  H   H586      1.0  0.44674  0.46698  0.75435  1.0000
  H   H587      1.0  0.30840  0.43185  0.91180  1.0000
  H   H588      1.0  0.33396  0.37389  0.91501  1.0000
  H   H589      1.0  0.29778  0.40600  0.90037  1.0000
  H   H590      1.0  0.36705  0.50133  0.51758  1.0000
  H   H591      1.0  0.42225  0.57385  0.95087  1.0000
  C   C364      1.0  0.32046  0.40620  0.52307  1.0000
  C   C365      1.0  0.45499  0.47351  0.54180  1.0000
  C   C366      1.0  0.46014  0.43117  0.78213  1.0000
  H   H592      1.0  0.48877  0.60853  0.60486  1.0000
  H   H593      1.0  0.34590  0.41432  0.86495  1.0000
  H   H594      1.0  0.33617  0.40024  0.52657  1.0000
  C   C367      1.0  0.46662  0.41138  0.55826  1.0000
  H   H595      1.0  0.39654  0.57754  0.93920  1.0000
  C   C368      1.0  0.44825  0.56263  0.55024  1.0000
  H   H596      1.0  0.43389  0.51512  0.58311  1.0000
  C   C369      1.0  0.49934  0.39443  0.54395  1.0000
  H   H597      1.0  0.40119  0.37620  0.61212  1.0000
  C   C370      1.0  0.29187  0.43262  0.53020  1.0000
  H   H598      1.0  0.27049  0.62715  0.93129  1.0000
  H   H599      1.0  0.44570  0.48531  0.55320  1.0000
  H   H600      1.0  0.31377  0.47857  0.52315  1.0000
  C   C371      1.0  0.50242  0.36072  0.83282  1.0000
  H   H601      1.0  0.46708  0.65277  0.58565  1.0000
  C   C372      1.0  0.37889  0.54533  0.96774  1.0000
  C   C373      1.0  0.48766  0.37619  0.86890  1.0000
  H   H602      1.0  0.41359  0.36444  0.63809  1.0000
  H   H603      1.0  0.44944  0.45582  0.54550  1.0000
  H   H604      1.0  0.42249  0.53363  0.93549  1.0000
  C   C374      1.0  0.48961  0.38900  0.52262  1.0000
  H   H605      1.0  0.45614  0.38977  0.86635  1.0000
  H   H606      1.0  0.32489  0.49300  0.56224  1.0000
  H   H607      1.0  0.48166  0.63312  0.62216  1.0000
  S   S149      1.0  0.46863  0.58253  0.54845  1.0000
  H   H608      1.0  0.43062  0.54106  0.97810  1.0000
  H   H609      1.0  0.37476  0.55589  0.98348  1.0000
  H   H610      1.0  0.42741  0.40855  0.74199  1.0000
  H   H611      1.0  0.44899  0.43265  0.79730  1.0000
  C   C375      1.0  0.43537  0.41030  0.75938  1.0000
  C   C376      1.0  0.47978  0.64411  0.57550  1.0000
  H   H612      1.0  0.36886  0.55130  0.95268  1.0000
  H   H613      1.0  0.44398  0.39392  0.76345  1.0000
  H   H614      1.0  0.47407  0.41159  0.74190  1.0000
  H   H615      1.0  0.28543  0.44732  0.53934  1.0000
  H   H616      1.0  0.45034  0.35054  0.63570  1.0000
  C   C377      1.0  0.46841  0.39437  0.51931  1.0000
  H   H617      1.0  0.39655  0.53839  0.92478  1.0000
  C   C378      1.0  0.35439  0.51462  0.51672  1.0000
  C   C379      1.0  0.50460  0.36570  0.85704  1.0000
  H   H618      1.0  0.42975  0.40408  0.60615  1.0000
  N   N37       1.0  0.33099  0.40762  0.89860  1.0000
  C   C380      1.0  0.33386  0.38244  0.89704  1.0000
  C   C381      1.0  0.31099  0.41294  0.91048  1.0000
  C   C382      1.0  0.33103  0.41806  0.87428  1.0000
  C   C383      1.0  0.44046  0.39044  0.61336  1.0000
  C   C384      1.0  0.41376  0.53976  0.98213  1.0000
  H   H619      1.0  0.34452  0.51467  0.56338  1.0000
  H   H620      1.0  0.34015  0.47140  0.51617  1.0000
  N   N38       1.0  0.40106  0.54731  0.96142  1.0000
  H   H621      1.0  0.48221  0.36214  0.80213  1.0000
  H   H622      1.0  0.42079  0.37917  0.57338  1.0000
  H   H623      1.0  0.44703  0.36866  0.57182  1.0000
  H   H624      1.0  0.42312  0.41210  0.77330  1.0000
  N   N39       1.0  0.44925  0.43019  0.75901  1.0000
  N   N40       1.0  0.43344  0.36734  0.60709  1.0000
  H   H625      1.0  0.46960  0.41526  0.78575  1.0000
  H   H626      1.0  0.45097  0.51618  0.52240  1.0000
  C   C385      1.0  0.43685  0.45155  0.75498  1.0000
  H   H627      1.0  0.29113  0.67459  0.96664  1.0000
  H   H628      1.0  0.42091  0.49037  0.52021  1.0000
  C   C386      1.0  0.41439  0.54947  0.53839  1.0000
  H   H629      1.0  0.45683  0.42701  0.72180  1.0000
  H   H630      1.0  0.33421  0.65933  0.89083  1.0000
  H   H631      1.0  0.37474  0.52728  0.97223  1.0000
  N   N41       1.0  0.33510  0.50603  0.52787  1.0000
  C   C387      1.0  0.41296  0.36319  0.61827  1.0000
  C   C388      1.0  0.43079  0.56494  0.53567  1.0000
  C   C389      1.0  0.43178  0.36592  0.58082  1.0000
  C   C390      1.0  0.31876  0.52415  0.52649  1.0000
  H   H632      1.0  0.41029  0.55055  0.99796  1.0000
  H   H633      1.0  0.39308  0.63281  0.00108  1.0000
  H   H634      1.0  0.49523  0.41008  0.57821  1.0000
  H   H635      1.0  0.40142  0.58309  0.97016  1.0000
  H   H636      1.0  0.46282  0.54255  0.57853  1.0000
  H   H637      1.0  0.47385  0.62743  0.56931  1.0000
  H   H638      1.0  0.48907  0.38018  0.88760  1.0000
  H   H639      1.0  0.44088  0.39255  0.63308  1.0000
  H   H640      1.0  0.45625  0.39383  0.60613  1.0000
  N   N42       1.0  0.49870  0.64085  0.58997  1.0000
  C   C391      1.0  0.44862  0.34985  0.61595  1.0000
  H   H641      1.0  0.47675  0.50516  0.51735  1.0000
  C   C392      1.0  0.50559  0.66339  0.59825  1.0000
  H   H642      1.0  0.50808  0.62260  0.62204  1.0000
  H   H643      1.0  0.29382  0.64496  0.95961  1.0000
  H   H644      1.0  0.41063  0.52161  0.98744  1.0000
  H   H645      1.0  0.51028  0.61351  0.56805  1.0000
  S   S150      1.0  0.45602  0.64543  0.52013  1.0000
  Fe  Fe75      1.0  0.47038  0.60993  0.51879  1.0000
  H   H646      1.0  0.36015  0.52991  0.52610  1.0000
  H   H647      1.0  0.49317  0.67242  0.60855  1.0000
  H   H648      1.0  0.29630  0.65579  0.91699  1.0000
  H   H649      1.0  0.42969  0.57899  0.52270  1.0000
  C   C393      1.0  0.28423  0.66940  0.91996  1.0000
  N   N43       1.0  0.27013  0.66299  0.93986  1.0000
  C   C394      1.0  0.30098  0.34536  0.84286  1.0000
  H   H650      1.0  0.40706  0.34595  0.61396  1.0000
  H   H651      1.0  0.27573  0.67224  0.90290  1.0000
  H   H652      1.0  0.26446  0.37773  0.53971  1.0000
  N   N44       1.0  0.45289  0.47984  0.51621  1.0000
  H   H653      1.0  0.50975  0.67495  0.58288  1.0000
  H   H654      1.0  0.32661  0.80215  0.47620  1.0000
  H   H655      1.0  0.37139  0.77377  0.44576  1.0000
  C   C395      1.0  0.42949  0.69005  0.33909  1.0000
  C   C396      1.0  0.36936  0.99913  0.36259  1.0000
  H   H656      1.0  0.35235  0.94644  0.38243  1.0000
  Fe  Fe76      1.0  0.47111  0.70848  0.12465  1.0000
  S   S151      1.0  0.47859  0.74644  0.11968  1.0000
  H   H657      1.0  0.42546  0.70769  0.33232  1.0000
  H   H658      1.0  0.31686  0.70333  0.20912  1.0000
  Fe  Fe77      1.0  0.36235  0.70847  0.30025  1.0000
  H   H659      1.0  0.27259  0.88253  0.46857  1.0000
  S   S152      1.0  0.37670  0.71732  0.26375  1.0000
  Fe  Fe78      1.0  0.34973  0.73047  0.34875  1.0000
  S   S153      1.0  0.33523  0.69755  0.36258  1.0000
  S   S154      1.0  0.35897  0.76224  0.36938  1.0000
  C   C397      1.0  0.31854  0.70514  0.25681  1.0000
  S   S155      1.0  0.48239  0.68764  0.15690  1.0000
  H   H660      1.0  0.40839  0.69007  0.29760  1.0000
  H   H661      1.0  0.44199  0.82657  0.12364  1.0000
  S   S156      1.0  0.37865  0.71269  0.33502  1.0000
  S   S157      1.0  0.33452  0.72896  0.31283  1.0000
  Fe  Fe79      1.0  0.35002  0.92101  0.44400  1.0000
  S   S158      1.0  0.31737  0.91322  0.43360  1.0000
  S   S159      1.0  0.36778  0.95308  0.43120  1.0000
  Fe  Fe80      1.0  0.35129  0.88219  0.48249  1.0000
  S   S160      1.0  0.31830  0.87255  0.47481  1.0000
  S   S161      1.0  0.28969  0.68706  0.31007  1.0000
  Fe  Fe81      1.0  0.32725  0.87588  0.43611  1.0000
  S   S162      1.0  0.31174  0.84900  0.41355  1.0000
  Fe  Fe82      1.0  0.31037  0.91008  0.47302  1.0000
  H   H662      1.0  0.38140  0.78358  0.48769  1.0000
  S   S163      1.0  0.36074  0.88349  0.44356  1.0000
  S   S164      1.0  0.34260  0.91990  0.48369  1.0000
  Fe  Fe83      1.0  0.32180  0.69465  0.32535  1.0000
  H   H663      1.0  0.40378  0.88369  0.50402  1.0000
  H   H664      1.0  0.27143  0.91090  0.43548  1.0000
  H   H665      1.0  0.46049  0.87134  0.08058  1.0000
  C   C398      1.0  0.34510  0.78680  0.37964  1.0000
  C   C399      1.0  0.32352  0.78731  0.38250  1.0000
  C   C400      1.0  0.31348  0.80660  0.39259  1.0000
  C   C401      1.0  0.32488  0.82554  0.39991  1.0000
  C   C402      1.0  0.34637  0.82526  0.39650  1.0000
  C   C403      1.0  0.35641  0.80596  0.38657  1.0000
  H   H666      1.0  0.31462  0.77270  0.37729  1.0000
  H   H667      1.0  0.29681  0.80670  0.39492  1.0000
  H   H668      1.0  0.35524  0.84002  0.40130  1.0000
  H   H669      1.0  0.37308  0.80583  0.38422  1.0000
  H   H670      1.0  0.46327  0.85950  0.11032  1.0000
  H   H671      1.0  0.40976  0.97896  0.07280  1.0000
  H   H672      1.0  0.41659  0.00161  0.36163  1.0000
  C   C404      1.0  0.42921  0.94324  0.01891  1.0000
  H   H673      1.0  0.38950  0.80969  0.45308  1.0000
  H   H674      1.0  0.49230  0.79044  0.10225  1.0000
  C   C405      1.0  0.36717  0.97077  0.40468  1.0000
  C   C406      1.0  0.34085  0.67702  0.23816  1.0000
  S   S165      1.0  0.28024  0.92827  0.48491  1.0000
  H   H675      1.0  0.42544  0.86537  0.11710  1.0000
  C   C407      1.0  0.41442  0.70057  0.20765  1.0000
  C   C408      1.0  0.40210  0.71266  0.22431  1.0000
  C   C409      1.0  0.39259  0.70120  0.24378  1.0000
  C   C410      1.0  0.42958  0.93332  0.04189  1.0000
  H   H676      1.0  0.42164  0.70965  0.19280  1.0000
  H   H677      1.0  0.39995  0.73106  0.22207  1.0000
  C   C411      1.0  0.47131  0.78432  0.04705  1.0000
  C   C412      1.0  0.46358  0.76208  0.05046  1.0000
  C   C413      1.0  0.46600  0.75015  0.07247  1.0000
  C   C414      1.0  0.47619  0.76039  0.09133  1.0000
  C   C415      1.0  0.48418  0.78254  0.08782  1.0000
  C   C416      1.0  0.48180  0.79446  0.06576  1.0000
  H   H678      1.0  0.45555  0.75401  0.03608  1.0000
  H   H679      1.0  0.45982  0.73310  0.07494  1.0000
  H   H680      1.0  0.44535  0.00042  0.39057  1.0000
  H   H681      1.0  0.48828  0.81132  0.06314  1.0000
  H   H682      1.0  0.39353  0.68774  0.43997  1.0000
  C   C417      1.0  0.41453  0.97889  0.03470  1.0000
  H   H683      1.0  0.46936  0.76500  0.51001  1.0000
  H   H684      1.0  0.42002  0.83065  0.06242  1.0000
  H   H685      1.0  0.36853  0.80721  0.50219  1.0000
  S   S166      1.0  0.43792  0.90446  0.04688  1.0000
  H   H686      1.0  0.43366  0.80135  0.51307  1.0000
  C   C418      1.0  0.41519  0.96912  0.05776  1.0000
  H   H687      1.0  0.44554  0.69909  0.29547  1.0000
  H   H688      1.0  0.36892  0.82550  0.43847  1.0000
  C   C419      1.0  0.37602  0.99272  0.40507  1.0000
  C   C420      1.0  0.42297  0.86084  0.09814  1.0000
  H   H689      1.0  0.42335  0.81486  0.10375  1.0000
  N   N45       1.0  0.31905  0.68426  0.24232  1.0000
  H   H690      1.0  0.47231  0.84341  0.08520  1.0000
  S   S167      1.0  0.36541  0.85759  0.51091  1.0000
  H   H691      1.0  0.34553  0.76961  0.45710  1.0000
  H   H692      1.0  0.30236  0.71123  0.26046  1.0000
  H   H693      1.0  0.35446  0.97103  0.34558  1.0000
  H   H694      1.0  0.29239  0.69484  0.22178  1.0000
  H   H695      1.0  0.45047  0.81039  0.09843  1.0000
  H   H696      1.0  0.43506  0.85487  0.05295  1.0000
  C   C421      1.0  0.36034  0.97731  0.36223  1.0000
  H   H697      1.0  0.35501  0.78096  0.49787  1.0000
  H   H698      1.0  0.42272  0.93878  0.07912  1.0000
  S   S168      1.0  0.48325  0.68278  0.09882  1.0000
  H   H699      1.0  0.34981  0.78871  0.43221  1.0000
  C   C422      1.0  0.37688  0.00693  0.38428  1.0000
  C   C423      1.0  0.35907  0.96330  0.38313  1.0000
  N   N46       1.0  0.35887  0.80192  0.46607  1.0000
  C   C424      1.0  0.33870  0.81398  0.46929  1.0000
  C   C425      1.0  0.35634  0.78265  0.44963  1.0000
  C   C426      1.0  0.36630  0.79297  0.48949  1.0000
  C   C427      1.0  0.37412  0.81817  0.45597  1.0000
  H   H700      1.0  0.45936  0.80576  0.50121  1.0000
  C   C428      1.0  0.26602  0.86949  0.45673  1.0000
  C   C429      1.0  0.44911  0.68169  0.30329  1.0000
  Fe  Fe84      1.0  0.45633  0.88549  0.01856  1.0000
  H   H701      1.0  0.33286  0.98805  0.04222  1.0000
  H   H702      1.0  0.33298  0.82171  0.45212  1.0000
  S   S169      1.0  0.48450  0.86591  0.03197  1.0000
  H   H703      1.0  0.27928  0.85960  0.44896  1.0000
  H   H704      1.0  0.44381  0.69108  0.34995  1.0000
  H   H705      1.0  0.34971  0.69071  0.22857  1.0000
  Fe  Fe85      1.0  0.36357  0.68006  0.34690  1.0000
  H   H706      1.0  0.37785  0.68476  0.39980  1.0000
  H   H707      1.0  0.32580  0.70164  0.27442  1.0000
  H   H708      1.0  0.37639  0.83290  0.46798  1.0000
  H   H709      1.0  0.40721  0.85356  0.09675  1.0000
  H   H710      1.0  0.32723  0.71943  0.24807  1.0000
  C   C430      1.0  0.42252  0.94633  0.06129  1.0000
  H   H711      1.0  0.46406  0.68260  0.31300  1.0000
  N   N47       1.0  0.43915  0.84454  0.08971  1.0000
  H   H712      1.0  0.41681  0.68462  0.35150  1.0000
  C   C431      1.0  0.43521  0.83906  0.06451  1.0000
  C   C432      1.0  0.43870  0.82321  0.10456  1.0000
  C   C433      1.0  0.45971  0.85514  0.09156  1.0000
  H   H713      1.0  0.42300  0.87719  0.08734  1.0000
  S   S170      1.0  0.43875  0.69447  0.12538  1.0000
  H   H714      1.0  0.33996  0.82813  0.48220  1.0000
  H   H715      1.0  0.44739  0.82723  0.05737  1.0000
  H   H716      1.0  0.27950  0.88846  0.41568  1.0000
  S   S171      1.0  0.40408  0.00680  0.02897  1.0000
  H   H717      1.0  0.35894  0.99853  0.04164  1.0000
  H   H718      1.0  0.43449  0.99874  0.33715  1.0000
  C   C434      1.0  0.39538  0.67738  0.24627  1.0000
  C   C435      1.0  0.30887  0.68930  0.21918  1.0000
  H   H719      1.0  0.46355  0.99698  0.36642  1.0000
  C   C436      1.0  0.41729  0.67676  0.21018  1.0000
  H   H720      1.0  0.38230  0.99870  0.42164  1.0000
  C   C437      1.0  0.34225  0.00379  0.04015  1.0000
  C   C438      1.0  0.26570  0.89706  0.42392  1.0000
  S   S172      1.0  0.46725  0.79878  0.01920  1.0000
  H   H721      1.0  0.27063  0.88628  0.51305  1.0000
  Fe  Fe86      1.0  0.46175  0.86727  0.96792  1.0000
  H   H722      1.0  0.33201  0.98508  0.99848  1.0000
  S   S173      1.0  0.45343  0.86524  0.92874  1.0000
  H   H723      1.0  0.34505  0.86619  0.86492  1.0000
  C   C439      1.0  0.37639  0.74511  0.76106  1.0000
  H   H724      1.0  0.49922  0.86243  0.74009  1.0000
  H   H725      1.0  0.37961  0.83250  0.55252  1.0000
  S   S174      1.0  0.49048  0.84691  0.97773  1.0000
  S   S175      1.0  0.47203  0.89942  0.98554  1.0000
  Fe  Fe87      1.0  0.34342  0.77000  0.84021  1.0000
  S   S176      1.0  0.32743  0.79987  0.85785  1.0000
  S   S177      1.0  0.33738  0.73152  0.84333  1.0000
  Fe  Fe88      1.0  0.37244  0.80057  0.81040  1.0000
  S   S178      1.0  0.35940  0.83314  0.82615  1.0000
  S   S179      1.0  0.39981  0.79276  0.78523  1.0000
  Fe  Fe89      1.0  0.35955  0.81402  0.86147  1.0000
  S   S180      1.0  0.36511  0.83067  0.89705  1.0000
  Fe  Fe90      1.0  0.32773  0.81777  0.82186  1.0000
  S   S181      1.0  0.30300  0.84300  0.80697  1.0000
  S   S182      1.0  0.37543  0.78281  0.84664  1.0000
  S   S183      1.0  0.34086  0.78657  0.80339  1.0000
  C   C440      1.0  0.39216  0.84336  0.54664  1.0000
  Fe  Fe91      1.0  0.44974  0.82376  0.65385  1.0000
  S   S184      1.0  0.46741  0.85253  0.63589  1.0000
  S   S185      1.0  0.42638  0.83457  0.68282  1.0000
  Fe  Fe92      1.0  0.47020  0.78808  0.62107  1.0000
  S   S186      1.0  0.49009  0.81424  0.60207  1.0000
  S   S187      1.0  0.46512  0.75057  0.61222  1.0000
  Fe  Fe93      1.0  0.49557  0.82905  0.63858  1.0000
  Fe  Fe94      1.0  0.46048  0.83577  0.60106  1.0000
  S   S188      1.0  0.45203  0.85521  0.56633  1.0000
  S   S189      1.0  0.47788  0.80068  0.65777  1.0000
  S   S190      1.0  0.44058  0.80916  0.61864  1.0000
  C   C441      1.0  0.35263  0.72136  0.78371  1.0000
  H   H726      1.0  0.45764  0.77171  0.97812  1.0000
  C   C442      1.0  0.41099  0.84268  0.55937  1.0000
  C   C443      1.0  0.42741  0.85660  0.55201  1.0000
  C   C444      1.0  0.42464  0.87127  0.53188  1.0000
  H   H727      1.0  0.29265  0.68543  0.92375  1.0000
  H   H728      1.0  0.41275  0.83143  0.57490  1.0000
  H   H729      1.0  0.39945  0.74105  0.80079  1.0000
  C   C445      1.0  0.45660  0.77792  0.95916  1.0000
  C   C446      1.0  0.49150  0.70707  0.55113  1.0000
  H   H730      1.0  0.44431  0.80665  0.56544  1.0000
  C   C447      1.0  0.49482  0.73939  0.57803  1.0000
  C   C448      1.0  0.47521  0.73509  0.58774  1.0000
  C   C449      1.0  0.46360  0.71709  0.57868  1.0000
  C   C450      1.0  0.47154  0.70338  0.56020  1.0000
  H   H731      1.0  0.44839  0.71368  0.58607  1.0000
  H   H732      1.0  0.38093  0.69942  0.75655  1.0000
  H   H733      1.0  0.34017  0.72070  0.93108  1.0000
  H   H734      1.0  0.37027  0.73916  0.74379  1.0000
  C   C451      1.0  0.49406  0.87964  0.69549  1.0000
  C   C452      1.0  0.40655  0.80436  0.75651  1.0000
  C   C453      1.0  0.42325  0.79432  0.74385  1.0000
  C   C454      1.0  0.42934  0.80300  0.72113  1.0000
  C   C455      1.0  0.41889  0.82203  0.71086  1.0000
  C   C456      1.0  0.40224  0.83210  0.72356  1.0000
  C   C457      1.0  0.39601  0.82326  0.74615  1.0000
  H   H735      1.0  0.43158  0.77974  0.75168  1.0000
  H   H736      1.0  0.44216  0.79505  0.71164  1.0000
  H   H737      1.0  0.39404  0.84683  0.71582  1.0000
  H   H738      1.0  0.38317  0.83122  0.75560  1.0000
  C   C458      1.0  0.33762  0.71527  0.87066  1.0000
  C   C459      1.0  0.33575  0.69122  0.87016  1.0000
  H   H739      1.0  0.40342  0.71054  0.77076  1.0000
  C   C460      1.0  0.33934  0.72575  0.89276  1.0000
  C   C461      1.0  0.51190  0.88173  0.93205  1.0000
  H   H740      1.0  0.35074  0.70815  0.79827  1.0000
  H   H741      1.0  0.34073  0.74421  0.89347  1.0000
  S   S191      1.0  0.50336  0.68835  0.53030  1.0000
  C   C462      1.0  0.33902  0.71236  0.91408  1.0000
  C   C463      1.0  0.38930  0.85822  0.52667  1.0000
  H   H742      1.0  0.39281  0.75015  0.75808  1.0000
  C   C464      1.0  0.42887  0.85542  0.92024  1.0000
  C   C465      1.0  0.42590  0.84835  0.89669  1.0000
  C   C466      1.0  0.40653  0.84036  0.88941  1.0000
  C   C467      1.0  0.38990  0.83973  0.90557  1.0000
  C   C468      1.0  0.39288  0.84679  0.92910  1.0000
  C   C469      1.0  0.41231  0.85451  0.93646  1.0000
  H   H743      1.0  0.43864  0.84904  0.88402  1.0000
  H   H744      1.0  0.40438  0.83500  0.87122  1.0000
  H   H745      1.0  0.38006  0.84643  0.94167  1.0000
  H   H746      1.0  0.41435  0.86015  0.95455  1.0000
  H   H747      1.0  0.49104  0.87771  0.67606  1.0000
  N   N48       1.0  0.43530  0.78590  0.95319  1.0000
  C   C470      1.0  0.43441  0.79320  0.92773  1.0000
  H   H748      1.0  0.43846  0.77878  0.91576  1.0000
  C   C471      1.0  0.42066  0.76705  0.95777  1.0000
  H   H749      1.0  0.51010  0.87281  0.69869  1.0000
  H   H750      1.0  0.49022  0.79592  0.52673  1.0000
  H   H751      1.0  0.38576  0.69286  0.78761  1.0000
  H   H752      1.0  0.38156  0.72336  0.81772  1.0000
  H   H753      1.0  0.44361  0.75993  0.52128  1.0000
  C   C472      1.0  0.42955  0.80558  0.96820  1.0000
  H   H754      1.0  0.49750  0.87182  0.92971  1.0000
  H   H755      1.0  0.42083  0.76136  0.97692  1.0000
  H   H756      1.0  0.44942  0.82348  0.52460  1.0000
  H   H757      1.0  0.40445  0.77248  0.95331  1.0000
  H   H758      1.0  0.49617  0.92243  0.94627  1.0000
  C   C473      1.0  0.33564  0.67778  0.89150  1.0000
  H   H759      1.0  0.46182  0.76354  0.94770  1.0000
  N   N49       1.0  0.31384  0.87587  0.87472  1.0000
  C   C474      1.0  0.33165  0.87664  0.85797  1.0000
  C   C475      1.0  0.32003  0.88515  0.89791  1.0000
  C   C476      1.0  0.30741  0.85182  0.87831  1.0000
  C   C477      1.0  0.29636  0.88969  0.86467  1.0000
  H   H760      1.0  0.33703  0.89450  0.85485  1.0000
  H   H761      1.0  0.32750  0.86976  0.84025  1.0000
  H   H762      1.0  0.47876  0.90921  0.92607  1.0000
  H   H763      1.0  0.30700  0.88466  0.91105  1.0000
  H   H764      1.0  0.33326  0.87496  0.90579  1.0000
  H   H765      1.0  0.32505  0.90327  0.89592  1.0000
  H   H766      1.0  0.29350  0.85055  0.89012  1.0000
  H   H767      1.0  0.32002  0.84108  0.88662  1.0000
  H   H768      1.0  0.30346  0.84401  0.86102  1.0000
  H   H769      1.0  0.47526  0.84029  0.68548  1.0000
  H   H770      1.0  0.29166  0.88321  0.84697  1.0000
  H   H771      1.0  0.30054  0.90802  0.86196  1.0000
  H   H772      1.0  0.36764  0.76110  0.76572  1.0000
  H   H773      1.0  0.42886  0.78449  0.55340  1.0000
  H   H774      1.0  0.41859  0.79967  0.92277  1.0000
  C   C478      1.0  0.38673  0.70658  0.77346  1.0000
  N   N50       1.0  0.37466  0.72729  0.78021  1.0000
  N   N51       1.0  0.45841  0.78922  0.53596  1.0000
  H   H775      1.0  0.47940  0.81399  0.54943  1.0000
  N   N52       1.0  0.47866  0.86721  0.71031  1.0000
  C   C479      1.0  0.44503  0.78934  0.55749  1.0000
  C   C480      1.0  0.34209  0.00036  0.99727  1.0000
  H   H776      1.0  0.41339  0.81176  0.96468  1.0000
  H   H777      1.0  0.46792  0.79204  0.95696  1.0000
  H   H778      1.0  0.49388  0.89832  0.69916  1.0000
  H   H779      1.0  0.42101  0.97326  0.99744  1.0000
  H   H780      1.0  0.49302  0.88973  0.89015  1.0000
  C   C481      1.0  0.50298  0.72530  0.55995  1.0000
  H   H781      1.0  0.47211  0.86045  0.74744  1.0000
  C   C482      1.0  0.27710  0.84932  0.81634  1.0000
  H   H782      1.0  0.43450  0.93337  0.00384  1.0000
  H   H783      1.0  0.27479  0.82138  0.84200  1.0000
  C   C483      1.0  0.40567  0.87223  0.51938  1.0000
  C   C484      1.0  0.38290  0.73614  0.80269  1.0000
  H   H784      1.0  0.27421  0.87873  0.79236  1.0000
  S   S192      1.0  0.44338  0.85528  0.99979  1.0000
  Fe  Fe95      1.0  0.47269  0.83655  0.01087  1.0000
  H   H785      1.0  0.37416  0.75176  0.80813  1.0000
  H   H786      1.0  0.28243  0.88905  0.87652  1.0000
  H   H787      1.0  0.49244  0.93462  0.91682  1.0000
  H   H788      1.0  0.43723  0.88207  0.52596  1.0000
  H   H789      1.0  0.44536  0.80737  0.92371  1.0000
  Fe  Fe96      1.0  0.49972  0.87819  0.99762  1.0000
  C   C485      1.0  0.48351  0.86968  0.73587  1.0000
  H   H790      1.0  0.45639  0.89530  0.70970  1.0000
  H   H791      1.0  0.49517  0.83489  0.70699  1.0000
  H   H792      1.0  0.34312  0.73660  0.78904  1.0000
  H   H793      1.0  0.44000  0.82027  0.96459  1.0000
  C   C486      1.0  0.33723  0.68832  0.91362  1.0000
  C   C487      1.0  0.47952  0.79621  0.54241  1.0000
  C   C488      1.0  0.26701  0.83626  0.83400  1.0000
  H   H794      1.0  0.44559  0.86747  0.71593  1.0000
  H   H795      1.0  0.35855  0.99402  0.99738  1.0000
  H   H796      1.0  0.43071  0.80099  0.98759  1.0000
  H   H797      1.0  0.50405  0.75296  0.58511  1.0000
  H   H798      1.0  0.45096  0.77712  0.57153  1.0000
  H   H799      1.0  0.45354  0.87511  0.68620  1.0000
  C   C489      1.0  0.45767  0.87678  0.70539  1.0000
  H   H800      1.0  0.34579  0.71461  0.76716  1.0000
  H   H801      1.0  0.42466  0.75180  0.94689  1.0000
  H   H802      1.0  0.46812  0.83255  0.71537  1.0000
  H   H803      1.0  0.46233  0.68974  0.55330  1.0000
  C   C490      1.0  0.26652  0.86842  0.80596  1.0000
  C   C491      1.0  0.47938  0.84262  0.70443  1.0000
  H   H804      1.0  0.46571  0.75312  0.53949  1.0000
  H   H805      1.0  0.50724  0.91495  0.88168  1.0000
  H   H806      1.0  0.48627  0.78456  0.55651  1.0000
  H   H807      1.0  0.33436  0.68292  0.85317  1.0000
  H   H808      1.0  0.48319  0.88804  0.74095  1.0000
  C   C492      1.0  0.49386  0.91815  0.92718  1.0000
  C   C493      1.0  0.50788  0.89883  0.89273  1.0000
  C   C494      1.0  0.45929  0.76583  0.52620  1.0000
  C   C495      1.0  0.44983  0.80561  0.51785  1.0000
  C   C496      1.0  0.42153  0.96584  0.01533  1.0000
  H   H809      1.0  0.26251  0.69798  0.94813  1.0000
  N   N53       1.0  0.51117  0.90362  0.91822  1.0000
  H   H810      1.0  0.75570  0.11594  0.08418  1.0000
  S   S193      1.0  0.59385  0.14365  0.06675  1.0000
  C   C497      1.0  0.59189  0.12447  0.29190  1.0000
  H   H811      1.0  0.58591  0.27752  0.48351  1.0000
  Fe  Fe97      1.0  0.67913  0.20280  0.18808  1.0000
  S   S194      1.0  0.68896  0.16998  0.17017  1.0000
  S   S195      1.0  0.65345  0.21186  0.21512  1.0000
  Fe  Fe98      1.0  0.70953  0.23179  0.15875  1.0000
  S   S196      1.0  0.72245  0.20148  0.13897  1.0000
  S   S197      1.0  0.72103  0.26864  0.15559  1.0000
  Fe  Fe99      1.0  0.68920  0.19075  0.13584  1.0000
  S   S198      1.0  0.68258  0.17666  0.09928  1.0000
  Fe  Fe100     1.0  0.72194  0.18193  0.17396  1.0000
  S   S199      1.0  0.74495  0.15281  0.18386  1.0000
  S   S200      1.0  0.67640  0.22261  0.15286  1.0000
  S   S201      1.0  0.71205  0.21317  0.19457  1.0000
  N   N54       1.0  0.73888  0.13765  0.10838  1.0000
  S   S202      1.0  0.55110  0.30457  0.46962  1.0000
  S   S203      1.0  0.68202  0.11497  0.47201  1.0000
  H   H812      1.0  0.61997  0.31498  0.44560  1.0000
  Fe  Fe101     1.0  0.59948  0.17555  0.34210  1.0000
  S   S204      1.0  0.58182  0.14658  0.36008  1.0000
  S   S205      1.0  0.62450  0.16569  0.31460  1.0000
  Fe  Fe102     1.0  0.57588  0.21198  0.37120  1.0000
  S   S206      1.0  0.55692  0.18579  0.39093  1.0000
  S   S207      1.0  0.57045  0.25062  0.37386  1.0000
  Fe  Fe103     1.0  0.58725  0.16570  0.39412  1.0000
  S   S208      1.0  0.59435  0.15055  0.43120  1.0000
  Fe  Fe104     1.0  0.55293  0.16886  0.35551  1.0000
  H   H813      1.0  0.70931  0.29068  0.20252  1.0000
  S   S209      1.0  0.60643  0.19324  0.37653  1.0000
  S   S210      1.0  0.57051  0.19644  0.33531  1.0000
  C   C498      1.0  0.65768  0.12584  0.46143  1.0000
  C   C499      1.0  0.65563  0.13155  0.43696  1.0000
  C   C500      1.0  0.63652  0.13959  0.42751  1.0000
  C   C501      1.0  0.61910  0.14171  0.44241  1.0000
  C   C502      1.0  0.62118  0.13611  0.46690  1.0000
  C   C503      1.0  0.64038  0.12837  0.47642  1.0000
  H   H814      1.0  0.66886  0.12957  0.42516  1.0000
  H   H815      1.0  0.63516  0.14373  0.40864  1.0000
  H   H816      1.0  0.60780  0.13761  0.47857  1.0000
  H   H817      1.0  0.64166  0.12397  0.49524  1.0000
  C   C504      1.0  0.55695  0.29007  0.44279  1.0000
  C   C505      1.0  0.56197  0.30181  0.42152  1.0000
  C   C506      1.0  0.56628  0.28947  0.40062  1.0000
  C   C507      1.0  0.56606  0.26531  0.40089  1.0000
  C   C508      1.0  0.56147  0.25357  0.42229  1.0000
  C   C509      1.0  0.55659  0.26591  0.44300  1.0000
  H   H818      1.0  0.56214  0.32040  0.42105  1.0000
  H   H819      1.0  0.56971  0.29871  0.38411  1.0000
  H   H820      1.0  0.56135  0.23498  0.42282  1.0000
  H   H821      1.0  0.55267  0.25667  0.45936  1.0000
  Fe  Fe105     1.0  0.69363  0.10860  0.51024  1.0000
  C   C510      1.0  0.64596  0.19883  0.24292  1.0000
  C   C511      1.0  0.62996  0.20926  0.25637  1.0000
  C   C512      1.0  0.62340  0.19962  0.27848  1.0000
  C   C513      1.0  0.63271  0.17930  0.28739  1.0000
  C   C514      1.0  0.64869  0.16887  0.27393  1.0000
  C   C515      1.0  0.65534  0.17859  0.25189  1.0000
  H   H822      1.0  0.62256  0.22490  0.24962  1.0000
  H   H823      1.0  0.61112  0.20789  0.28859  1.0000
  H   H824      1.0  0.65603  0.15315  0.28061  1.0000
  H   H825      1.0  0.66765  0.17033  0.24180  1.0000
  C   C516      1.0  0.71424  0.28784  0.13156  1.0000
  C   C517      1.0  0.69695  0.28422  0.11729  1.0000
  C   C518      1.0  0.69130  0.30041  0.09925  1.0000
  C   C519      1.0  0.70305  0.32019  0.09484  1.0000
  C   C520      1.0  0.72054  0.32370  0.10890  1.0000
  C   C521      1.0  0.72592  0.30774  0.12735  1.0000
  H   H826      1.0  0.68776  0.26906  0.12029  1.0000
  H   H827      1.0  0.67774  0.29750  0.08852  1.0000
  H   H828      1.0  0.70737  0.12992  0.11829  1.0000
  H   H829      1.0  0.73940  0.31064  0.13820  1.0000
  C   C522      1.0  0.61842  0.15363  0.07519  1.0000
  C   C523      1.0  0.63474  0.15577  0.05875  1.0000
  C   C524      1.0  0.65428  0.16300  0.06638  1.0000
  C   C525      1.0  0.65758  0.16841  0.09039  1.0000
  C   C526      1.0  0.64120  0.16654  0.10677  1.0000
  C   C527      1.0  0.62174  0.15904  0.09920  1.0000
  H   H830      1.0  0.63236  0.15159  0.04026  1.0000
  H   H831      1.0  0.66688  0.16440  0.05362  1.0000
  H   H832      1.0  0.64359  0.17061  0.12529  1.0000
  H   H833      1.0  0.60919  0.15740  0.11201  1.0000
  H   H834      1.0  0.55762  0.13664  0.24729  1.0000
  H   H835      1.0  0.71696  0.12308  0.42601  1.0000
  H   H836      1.0  0.74785  0.10201  0.11166  1.0000
  H   H837      1.0  0.64262  0.26651  0.48155  1.0000
  H   H838      1.0  0.65826  0.29213  0.23422  1.0000
  H   H839      1.0  0.58849  0.10587  0.29401  1.0000
  N   N55       1.0  0.74387  0.12413  0.44835  1.0000
  H   H840      1.0  0.73766  0.14023  0.41410  1.0000
  C   C528      1.0  0.63653  0.27706  0.46623  1.0000
  H   H841      1.0  0.59481  0.13098  0.31009  1.0000
  H   H842      1.0  0.60344  0.31145  0.49760  1.0000
  S   S211      1.0  0.55172  0.15234  0.02101  1.0000
  N   N56       1.0  0.61628  0.28791  0.47209  1.0000
  H   H843      1.0  0.55102  0.11831  0.29878  1.0000
  H   H844      1.0  0.60670  0.12617  0.28170  1.0000
  H   H845      1.0  0.59845  0.25852  0.46295  1.0000
  H   H846      1.0  0.56790  0.17201  0.26770  1.0000
  H   H847      1.0  0.69043  0.25894  0.25690  1.0000
  C   C529      1.0  0.55593  0.13631  0.29539  1.0000
  H   H848      1.0  0.72643  0.12327  0.14115  1.0000
  C   C530      1.0  0.74304  0.11501  0.09777  1.0000
  H   H849      1.0  0.56583  0.10891  0.25888  1.0000
  Fe  Fe106     1.0  0.58406  0.13905  0.02836  1.0000
  N   N57       1.0  0.68489  0.27322  0.22158  1.0000
  C   C531      1.0  0.68274  0.25467  0.23989  1.0000
  C   C532      1.0  0.67457  0.26655  0.19937  1.0000
  C   C533      1.0  0.70712  0.27707  0.21659  1.0000
  C   C534      1.0  0.67507  0.29456  0.23037  1.0000
  C   C535      1.0  0.58055  0.16162  0.27633  1.0000
  S   S212      1.0  0.69431  0.34039  0.07256  1.0000
  H   H850      1.0  0.74589  0.08733  0.45244  1.0000
  H   H851      1.0  0.67622  0.27981  0.18486  1.0000
  H   H852      1.0  0.68150  0.25042  0.19254  1.0000
  H   H853      1.0  0.65776  0.26333  0.20231  1.0000
  H   H854      1.0  0.60604  0.29049  0.43554  1.0000
  H   H855      1.0  0.73981  0.10937  0.41389  1.0000
  H   H856      1.0  0.54259  0.14602  0.28728  1.0000
  H   H857      1.0  0.59468  0.16311  0.26487  1.0000
  H   H858      1.0  0.67636  0.30885  0.21690  1.0000
  H   H859      1.0  0.68246  0.30010  0.24714  1.0000
  H   H860      1.0  0.55869  0.14392  0.31312  1.0000
  C   C536      1.0  0.72210  0.13556  0.12639  1.0000
  H   H861      1.0  0.71797  0.14908  0.08053  1.0000
  H   H862      1.0  0.72914  0.17165  0.09686  1.0000
  H   H863      1.0  0.74469  0.15644  0.07548  1.0000
  H   H864      1.0  0.71497  0.26128  0.20980  1.0000
  N   N58       1.0  0.57468  0.13738  0.28009  1.0000
  H   H865      1.0  0.72898  0.10855  0.08886  1.0000
  C   C537      1.0  0.57042  0.12718  0.25674  1.0000
  H   H866      1.0  0.59389  0.31056  0.45527  1.0000
  C   C538      1.0  0.73573  0.14386  0.46194  1.0000
  H   H867      1.0  0.62945  0.31740  0.48838  1.0000
  H   H868      1.0  0.72185  0.09991  0.46222  1.0000
  H   H869      1.0  0.71863  0.14278  0.46475  1.0000
  H   H870      1.0  0.74453  0.10275  0.47997  1.0000
  H   H871      1.0  0.52141  0.25455  0.38940  1.0000
  H   H872      1.0  0.71552  0.28216  0.23286  1.0000
  H   H873      1.0  0.66613  0.25118  0.24394  1.0000
  C   C539      1.0  0.75788  0.14562  0.11998  1.0000
  C   C540      1.0  0.60878  0.30153  0.45116  1.0000
  C   C541      1.0  0.51552  0.23691  0.39291  1.0000
  H   H874      1.0  0.58413  0.16976  0.29355  1.0000
  H   H875      1.0  0.58437  0.12767  0.24488  1.0000
  C   C542      1.0  0.52100  0.22723  0.35166  1.0000
  H   H876      1.0  0.71866  0.15230  0.13475  1.0000
  H   H877      1.0  0.73881  0.16047  0.45249  1.0000
  H   H878      1.0  0.68974  0.23818  0.23371  1.0000
  H   H879      1.0  0.62442  0.29379  0.50872  1.0000
  H   H880      1.0  0.64829  0.29022  0.46155  1.0000
  C   C543      1.0  0.73886  0.10255  0.46129  1.0000
  C   C544      1.0  0.73247  0.15438  0.08944  1.0000
  H   H881      1.0  0.74298  0.14446  0.47992  1.0000
  H   H882      1.0  0.63524  0.26554  0.45071  1.0000
  H   H883      1.0  0.72993  0.33863  0.10559  1.0000
  C   C545      1.0  0.73419  0.12423  0.42449  1.0000
  C   C546      1.0  0.60120  0.26988  0.47831  1.0000
  C   C547      1.0  0.61856  0.30322  0.49257  1.0000
  H   H884      1.0  0.52909  0.22614  0.39870  1.0000
  S   S213      1.0  0.52169  0.16225  0.33706  1.0000
  H   H885      1.0  0.60659  0.25887  0.49362  1.0000
  H   H886      1.0  0.75512  0.16236  0.12882  1.0000
  H   H887      1.0  0.56211  0.03063  0.01741  1.0000
  H   H888      1.0  0.53484  0.21664  0.35663  1.0000
  H   H889      1.0  0.52667  0.24475  0.34709  1.0000
  Fe  Fe107     1.0  0.56029  0.34024  0.48166  1.0000
  H   H890      1.0  0.51445  0.21974  0.33528  1.0000
  C   C548      1.0  0.63020  0.28330  0.95982  1.0000
  S   S214      1.0  0.55671  0.13175  0.96775  1.0000
  H   H891      1.0  0.64760  0.25925  0.56468  1.0000
  Fe  Fe108     1.0  0.56453  0.16464  0.98549  1.0000
  S   S215      1.0  0.55306  0.20069  0.97429  1.0000
  Fe  Fe109     1.0  0.58859  0.11932  0.97877  1.0000
  S   S216      1.0  0.60581  0.09927  0.95018  1.0000
  Fe  Fe110     1.0  0.57978  0.29262  0.87166  1.0000
  C   C549      1.0  0.66425  0.02059  0.62210  1.0000
  S   S217      1.0  0.57396  0.25438  0.87671  1.0000
  Fe  Fe111     1.0  0.59835  0.32881  0.83735  1.0000
  N   N59       1.0  0.62356  0.26388  0.94534  1.0000
  S   S218      1.0  0.61209  0.30551  0.86585  1.0000
  S   S219      1.0  0.56648  0.31353  0.84078  1.0000
  H   H892      1.0  0.53242  0.01833  0.99308  1.0000
  C   C550      1.0  0.75141  0.33393  0.72564  1.0000
  Fe  Fe112     1.0  0.70968  0.27381  0.65205  1.0000
  S   S220      1.0  0.70596  0.30759  0.63178  1.0000
  S   S221      1.0  0.72567  0.24475  0.63168  1.0000
  Fe  Fe113     1.0  0.69086  0.29410  0.69821  1.0000
  H   H893      1.0  0.61049  0.25868  0.91059  1.0000
  S   S222      1.0  0.68104  0.28589  0.73677  1.0000
  Fe  Fe114     1.0  0.67462  0.30962  0.64943  1.0000
  C   C551      1.0  0.63032  0.01478  0.73911  1.0000
  Fe  Fe115     1.0  0.71827  0.32360  0.66508  1.0000
  H   H894      1.0  0.72473  0.31275  0.75568  1.0000
  S   S223      1.0  0.67752  0.27490  0.66762  1.0000
  S   S224      1.0  0.72378  0.28982  0.68449  1.0000
  H   H895      1.0  0.67011  0.05086  0.59991  1.0000
  C   C552      1.0  0.67492  0.03335  0.60425  1.0000
  Fe  Fe116     1.0  0.70423  0.07555  0.55351  1.0000
  S   S225      1.0  0.72655  0.10090  0.56823  1.0000
  S   S226      1.0  0.70571  0.03845  0.56898  1.0000
  Fe  Fe117     1.0  0.70220  0.12807  0.55948  1.0000
  S   S227      1.0  0.68874  0.15532  0.58454  1.0000
  H   H896      1.0  0.63716  0.03219  0.73913  1.0000
  S   S228      1.0  0.67896  0.10240  0.54653  1.0000
  H   H897      1.0  0.63479  0.29318  0.80672  1.0000
  C   C553      1.0  0.69169  0.02341  0.59197  1.0000
  C   C554      1.0  0.59219  0.30516  0.70494  1.0000
  H   H898      1.0  0.58576  0.02837  0.96961  1.0000
  C   C555      1.0  0.71548  0.21914  0.62002  1.0000
  C   C556      1.0  0.72799  0.20581  0.60472  1.0000
  C   C557      1.0  0.72019  0.18615  0.59382  1.0000
  C   C558      1.0  0.69974  0.17954  0.59817  1.0000
  C   C559      1.0  0.68727  0.19279  0.61360  1.0000
  C   C560      1.0  0.69508  0.21242  0.62452  1.0000
  H   H899      1.0  0.74380  0.21081  0.60112  1.0000
  H   H900      1.0  0.72998  0.17614  0.58204  1.0000
  H   H901      1.0  0.67149  0.18771  0.61723  1.0000
  H   H902      1.0  0.68533  0.22223  0.63650  1.0000
  H   H903      1.0  0.65100  0.33183  0.96541  1.0000
  H   H904      1.0  0.61718  0.29580  0.96286  1.0000
  C   C561      1.0  0.67287  0.26451  0.60208  1.0000
  H   H905      1.0  0.74967  0.05558  0.58075  1.0000
  H   H906      1.0  0.75568  0.01414  0.57328  1.0000
  H   H907      1.0  0.61270  0.24419  0.97582  1.0000
  H   H908      1.0  0.67043  0.33179  0.59602  1.0000
  C   C562      1.0  0.63241  0.32329  0.78384  1.0000
  N   N60       1.0  0.67859  0.26537  0.57648  1.0000
  C   C563      1.0  0.65517  0.32295  0.74843  1.0000
  C   C564      1.0  0.66282  0.30105  0.75490  1.0000
  C   C565      1.0  0.65550  0.29057  0.77616  1.0000
  C   C566      1.0  0.64039  0.30158  0.79055  1.0000
  H   H909      1.0  0.52728  0.28714  0.84291  1.0000
  H   H910      1.0  0.63694  0.23342  0.93009  1.0000
  H   H911      1.0  0.66137  0.27368  0.78145  1.0000
  C   C567      1.0  0.55993  0.21546  0.94741  1.0000
  C   C568      1.0  0.55581  0.23924  0.94526  1.0000
  C   C569      1.0  0.56068  0.25156  0.92403  1.0000
  C   C570      1.0  0.56910  0.24005  0.90445  1.0000
  C   C571      1.0  0.57313  0.21627  0.90658  1.0000
  C   C572      1.0  0.56883  0.20407  0.92804  1.0000
  H   H912      1.0  0.54897  0.24820  0.96018  1.0000
  H   H913      1.0  0.55758  0.26986  0.92274  1.0000
  H   H914      1.0  0.57961  0.20719  0.89152  1.0000
  H   H915      1.0  0.57203  0.18576  0.92940  1.0000
  C   C573      1.0  0.61564  0.07095  0.95499  1.0000
  C   C574      1.0  0.61900  0.06188  0.97802  1.0000
  C   C575      1.0  0.62704  0.03936  0.98118  1.0000
  C   C576      1.0  0.63145  0.02559  0.96140  1.0000
  C   C577      1.0  0.62779  0.03452  0.93839  1.0000
  C   C578      1.0  0.62007  0.05718  0.93522  1.0000
  H   H916      1.0  0.61585  0.07239  0.99336  1.0000
  H   H917      1.0  0.62989  0.03261  0.99905  1.0000
  C   C579      1.0  0.66011  0.27202  0.56224  1.0000
  H   H918      1.0  0.61753  0.06411  0.91734  1.0000
  H   H919      1.0  0.75870  0.31912  0.73555  1.0000
  Fe  Fe118     1.0  0.60303  0.33300  0.89193  1.0000
  H   H920      1.0  0.62416  0.01103  0.75741  1.0000
  C   C580      1.0  0.61421  0.28448  0.67735  1.0000
  C   C581      1.0  0.56925  0.02319  0.97079  1.0000
  C   C582      1.0  0.53422  0.03426  0.98194  1.0000
  H   H921      1.0  0.66103  0.25127  0.60601  1.0000
  H   H922      1.0  0.62589  0.32992  0.71144  1.0000
  S   S229      1.0  0.64254  0.31635  0.63416  1.0000
  C   C583      1.0  0.51404  0.29833  0.84865  1.0000
  C   C584      1.0  0.71841  0.32773  0.74514  1.0000
  H   H923      1.0  0.62734  0.28284  0.91223  1.0000
  H   H924      1.0  0.51967  0.31627  0.84876  1.0000
  H   H925      1.0  0.69995  0.28344  0.55346  1.0000
  H   H926      1.0  0.62174  0.29355  0.73644  1.0000
  S   S230      1.0  0.59738  0.15351  0.99397  1.0000
  H   H927      1.0  0.66125  0.01972  0.70672  1.0000
  H   H928      1.0  0.70904  0.27802  0.58339  1.0000
  H   H929      1.0  0.74259  0.03930  0.54107  1.0000
  H   H930      1.0  0.60493  0.26865  0.67946  1.0000
  N   N61       1.0  0.61379  0.29809  0.69933  1.0000
  S   S231      1.0  0.71555  0.13528  0.52289  1.0000
  H   H931      1.0  0.61350  0.26795  0.72240  1.0000
  H   H932      1.0  0.55311  0.05979  0.94729  1.0000
  H   H933      1.0  0.57947  0.05186  0.00560  1.0000
  H   H934      1.0  0.66088  0.33143  0.73237  1.0000
  H   H935      1.0  0.63883  0.27894  0.71612  1.0000
  N   N62       1.0  0.55605  0.04157  0.98109  1.0000
  H   H936      1.0  0.60795  0.29463  0.66179  1.0000
  H   H937      1.0  0.63035  0.27916  0.67252  1.0000
  H   H938      1.0  0.75837  0.06160  0.52875  1.0000
  Fe  Fe119     1.0  0.73788  0.10569  0.53016  1.0000
  C   C585      1.0  0.61544  0.27280  0.92223  1.0000
  H   H939      1.0  0.71219  0.01410  0.96221  1.0000
  H   H940      1.0  0.64274  0.29309  0.95064  1.0000
  S   S232      1.0  0.57132  0.31862  0.89889  1.0000
  C   C586      1.0  0.64147  0.24827  0.94098  1.0000
  H   H941      1.0  0.60182  0.28454  0.92481  1.0000
  C   C587      1.0  0.69500  0.28246  0.57253  1.0000
  H   H942      1.0  0.68979  0.24215  0.54965  1.0000
  C   C588      1.0  0.55767  0.06269  0.96608  1.0000
  S   S233      1.0  0.68618  0.32880  0.68094  1.0000
  H   H943      1.0  0.65410  0.25733  0.93115  1.0000
  H   H944      1.0  0.68964  0.29994  0.57770  1.0000
  H   H945      1.0  0.70110  0.23771  0.57845  1.0000
  C   C589      1.0  0.63827  0.32653  0.60458  1.0000
  H   H946      1.0  0.66391  0.27338  0.54286  1.0000
  H   H947      1.0  0.74559  0.32739  0.70848  1.0000
  S   S234      1.0  0.62446  0.33362  0.92450  1.0000
  C   C590      1.0  0.52262  0.29349  0.89036  1.0000
  H   H948      1.0  0.57377  0.06910  0.96570  1.0000
  H   H949      1.0  0.64298  0.31404  0.69210  1.0000
  H   H950      1.0  0.65359  0.28899  0.56767  1.0000
  H   H951      1.0  0.64804  0.24126  0.95806  1.0000
  H   H952      1.0  0.59141  0.31542  0.72152  1.0000
  H   H953      1.0  0.68657  0.26026  0.61339  1.0000
  H   H954      1.0  0.52830  0.03089  0.96376  1.0000
  H   H955      1.0  0.58536  0.31596  0.69019  1.0000
  H   H956      1.0  0.61690  0.01549  0.72668  1.0000
  H   H957      1.0  0.60184  0.23637  0.94781  1.0000
  H   H958      1.0  0.56435  0.01913  0.95237  1.0000
  H   H959      1.0  0.67094  0.01359  0.74948  1.0000
  C   C591      1.0  0.63998  0.33390  0.76273  1.0000
  H   H960      1.0  0.67512  0.22876  0.57345  1.0000
  H   H961      1.0  0.59336  0.26242  0.96175  1.0000
  C   C592      1.0  0.56307  0.04619  0.00557  1.0000
  C   C593      1.0  0.60716  0.25117  0.95826  1.0000
  H   H962      1.0  0.63612  0.27739  0.97760  1.0000
  H   H963      1.0  0.65125  0.02851  0.63131  1.0000
  H   H964      1.0  0.54763  0.07682  0.97299  1.0000
  H   H965      1.0  0.52179  0.16468  0.97808  1.0000
  H   H966      1.0  0.58216  0.28999  0.70782  1.0000
  H   H967      1.0  0.60505  0.32374  0.60765  1.0000
  C   C594      1.0  0.65471  0.33255  0.58942  1.0000
  C   C595      1.0  0.61787  0.32826  0.59600  1.0000
  C   C596      1.0  0.62232  0.28401  0.71942  1.0000
  Fe  Fe120     1.0  0.54644  0.11867  0.00391  1.0000
  H   H968      1.0  0.63117  0.02410  0.92302  1.0000
  H   H969      1.0  0.52394  0.04777  0.98982  1.0000
  H   H970      1.0  0.66646  0.28134  0.60804  1.0000
  C   C597      1.0  0.68641  0.24253  0.56915  1.0000
  C   C598      1.0  0.62645  0.31876  0.69558  1.0000
  H   H971      1.0  0.71182  0.32083  0.72852  1.0000
  S   S235      1.0  0.57781  0.10411  0.01377  1.0000
  H   H972      1.0  0.70525  0.33527  0.75550  1.0000
  H   H973      1.0  0.53681  0.28340  0.88548  1.0000
  H   H974      1.0  0.62100  0.32931  0.67989  1.0000
  H   H975      1.0  0.75023  0.33931  0.77304  1.0000
  S   S236      1.0  0.51825  0.09573  0.00496  1.0000
  H   H976      1.0  0.52714  0.31175  0.89189  1.0000
  C   C599      1.0  0.75880  0.04374  0.53611  1.0000
  S   S237      1.0  0.61255  0.33757  0.80051  1.0000
  H   H977      1.0  0.70662  0.01577  0.00592  1.0000
  H   H978      1.0  0.59808  0.33729  0.56603  1.0000
  C   C600      1.0  0.61387  0.33593  0.57242  1.0000
  H   H979      1.0  0.52067  0.19140  0.01216  1.0000
  C   C601      1.0  0.65073  0.33994  0.56572  1.0000
  H   H980      1.0  0.55338  0.05998  0.01385  1.0000
  H   H981      1.0  0.51336  0.25539  0.86740  1.0000
  H   H982      1.0  0.51755  0.28745  0.90843  1.0000
  Fe  Fe121     1.0  0.55967  0.34073  0.86779  1.0000
  C   C602      1.0  0.63029  0.34176  0.55716  1.0000
  S   S238      1.0  0.56499  0.34055  0.52156  1.0000
  S   S239      1.0  0.71679  0.07942  0.51580  1.0000
  Fe  Fe122     1.0  0.71343  0.42378  0.05777  1.0000
  S   S240      1.0  0.73562  0.39320  0.06156  1.0000
  S   S241      1.0  0.71614  0.44902  0.08867  1.0000
  H   H983      1.0  0.67889  0.41267  0.15708  1.0000
  H   H984      1.0  0.58730  0.62121  0.42879  1.0000
  Fe  Fe123     1.0  0.70781  0.37203  0.05354  1.0000
  H   H985      1.0  0.75086  0.56382  0.14952  1.0000
  H   H986      1.0  0.63002  0.48094  0.50624  1.0000
  S   S242      1.0  0.68556  0.40235  0.05078  1.0000
  H   H987      1.0  0.60617  0.53916  0.51192  1.0000
  Fe  Fe124     1.0  0.68112  0.55996  0.43206  1.0000
  S   S243      1.0  0.67617  0.53718  0.40053  1.0000
  S   S244      1.0  0.71337  0.57463  0.43765  1.0000
  Fe  Fe125     1.0  0.63452  0.56148  0.44387  1.0000
  S   S245      1.0  0.62610  0.53913  0.41357  1.0000
  S   S246      1.0  0.61158  0.57499  0.47128  1.0000
  Fe  Fe126     1.0  0.65393  0.51805  0.42461  1.0000
  S   S247      1.0  0.65360  0.47919  0.42629  1.0000
  Fe  Fe127     1.0  0.64866  0.55997  0.39161  1.0000
  S   S248      1.0  0.63615  0.57272  0.35553  1.0000
  S   S249      1.0  0.66106  0.53882  0.45681  1.0000
  S   S250      1.0  0.65490  0.58425  0.42137  1.0000
  H   H988      1.0  0.75186  0.58631  0.11148  1.0000
  Fe  Fe128     1.0  0.65999  0.55394  0.16339  1.0000
  S   S251      1.0  0.65454  0.59103  0.15208  1.0000
  S   S252      1.0  0.65770  0.52772  0.13346  1.0000
  Fe  Fe129     1.0  0.66493  0.56706  0.21596  1.0000
  S   S253      1.0  0.66031  0.60483  0.20771  1.0000
  S   S254      1.0  0.67449  0.55199  0.25246  1.0000
  Fe  Fe130     1.0  0.63378  0.59398  0.18434  1.0000
  S   S255      1.0  0.60353  0.61552  0.18808  1.0000
  Fe  Fe131     1.0  0.68135  0.59890  0.17611  1.0000
  S   S256      1.0  0.70513  0.62329  0.15911  1.0000
  S   S257      1.0  0.63740  0.55635  0.19447  1.0000
  S   S258      1.0  0.68781  0.56173  0.18555  1.0000
  Fe  Fe132     1.0  0.57183  0.39110  0.47618  1.0000
  S   S259      1.0  0.57243  0.42321  0.45221  1.0000
  S   S260      1.0  0.59023  0.35799  0.47313  1.0000
  S   S261      1.0  0.54122  0.37321  0.48131  1.0000
  C   C603      1.0  0.75443  0.63651  0.20242  1.0000
  C   C604      1.0  0.72905  0.63315  0.17065  1.0000
  C   C605      1.0  0.73557  0.62787  0.19396  1.0000
  C   C606      1.0  0.74179  0.64688  0.15587  1.0000
  H   H989      1.0  0.72600  0.61738  0.20562  1.0000
  C   C607      1.0  0.54436  0.63197  0.14350  1.0000
  C   C608      1.0  0.54731  0.64172  0.16583  1.0000
  C   C609      1.0  0.56545  0.63642  0.17911  1.0000
  C   C610      1.0  0.58093  0.62132  0.17037  1.0000
  C   C611      1.0  0.57810  0.61176  0.14793  1.0000
  C   C612      1.0  0.55994  0.61702  0.13466  1.0000
  H   H990      1.0  0.69731  0.58195  0.13192  1.0000
  H   H991      1.0  0.56738  0.64395  0.19642  1.0000
  H   H992      1.0  0.58978  0.60012  0.14088  1.0000
  H   H993      1.0  0.55792  0.60936  0.11745  1.0000
  C   C613      1.0  0.58552  0.58255  0.46473  1.0000
  C   C614      1.0  0.57397  0.59544  0.48122  1.0000
  C   C615      1.0  0.55335  0.60235  0.47634  1.0000
  C   C616      1.0  0.54410  0.59637  0.45490  1.0000
  C   C617      1.0  0.55556  0.58311  0.43858  1.0000
  C   C618      1.0  0.57616  0.57609  0.44352  1.0000
  H   H994      1.0  0.58108  0.60045  0.49772  1.0000
  H   H995      1.0  0.54474  0.61264  0.48898  1.0000
  H   H996      1.0  0.54839  0.57820  0.42209  1.0000
  H   H997      1.0  0.58477  0.56575  0.43093  1.0000
  C   C619      1.0  0.63092  0.46406  0.43401  1.0000
  C   C620      1.0  0.61117  0.47347  0.42953  1.0000
  C   C621      1.0  0.59342  0.46069  0.43516  1.0000
  C   C622      1.0  0.59522  0.43865  0.44582  1.0000
  C   C623      1.0  0.61496  0.42941  0.45069  1.0000
  C   C624      1.0  0.63274  0.44196  0.44450  1.0000
  H   H998      1.0  0.60955  0.49039  0.42134  1.0000
  H   H999      1.0  0.57818  0.46785  0.43121  1.0000
  H   H1000     1.0  0.61652  0.41242  0.45882  1.0000
  H   H1001     1.0  0.64798  0.43454  0.44797  1.0000
  C   C625      1.0  0.64763  0.56787  0.32707  1.0000
  C   C626      1.0  0.66660  0.55609  0.32458  1.0000
  C   C627      1.0  0.67460  0.55147  0.30163  1.0000
  C   C628      1.0  0.66399  0.55900  0.28089  1.0000
  C   C629      1.0  0.64518  0.57112  0.28340  1.0000
  C   C630      1.0  0.63701  0.57540  0.30636  1.0000
  H   H1002     1.0  0.67522  0.55066  0.34029  1.0000
  H   H1003     1.0  0.68925  0.54226  0.29988  1.0000
  H   H1004     1.0  0.63681  0.57694  0.26762  1.0000
  H   H1005     1.0  0.62233  0.58454  0.30803  1.0000
  C   C631      1.0  0.73014  0.57470  0.46288  1.0000
  C   C632      1.0  0.74937  0.58567  0.46067  1.0000
  C   C633      1.0  0.59743  0.51531  0.47312  1.0000
  H   H1006     1.0  0.70563  0.40382  0.16077  1.0000
  C   C634      1.0  0.72496  0.56423  0.48483  1.0000
  H   H1007     1.0  0.60800  0.64106  0.42466  1.0000
  H   H1008     1.0  0.72934  0.58795  0.09262  1.0000
  H   H1009     1.0  0.71026  0.55575  0.48684  1.0000
  C   C635      1.0  0.69945  0.47062  0.10092  1.0000
  C   C636      1.0  0.70597  0.48230  0.12125  1.0000
  C   C637      1.0  0.69341  0.49964  0.13161  1.0000
  C   C638      1.0  0.67414  0.50563  0.12166  1.0000
  C   C639      1.0  0.66757  0.49382  0.10144  1.0000
  C   C640      1.0  0.68009  0.47642  0.09115  1.0000
  H   H1010     1.0  0.72085  0.47787  0.12908  1.0000
  H   H1011     1.0  0.69857  0.50824  0.14735  1.0000
  H   H1012     1.0  0.65269  0.49824  0.09360  1.0000
  H   H1013     1.0  0.67480  0.46767  0.07555  1.0000
  H   H1014     1.0  0.69873  0.42593  0.13917  1.0000
  C   C641      1.0  0.61720  0.52478  0.50784  1.0000
  H   H1015     1.0  0.72336  0.38079  0.12916  1.0000
  H   H1016     1.0  0.58621  0.52965  0.47663  1.0000
  N   N63       1.0  0.60676  0.50608  0.49549  1.0000
  C   C642      1.0  0.62077  0.62693  0.38181  1.0000
  C   C643      1.0  0.59429  0.59859  0.38750  1.0000
  H   H1017     1.0  0.62613  0.64446  0.38580  1.0000
  C   C644      1.0  0.63181  0.66507  0.18688  1.0000
  H   H1018     1.0  0.69595  0.36303  0.15340  1.0000
  C   C645      1.0  0.62667  0.65247  0.14652  1.0000
  N   N64       1.0  0.69126  0.39172  0.12900  1.0000
  C   C646      1.0  0.73884  0.56480  0.50424  1.0000
  C   C647      1.0  0.68445  0.36985  0.14017  1.0000
  H   H1019     1.0  0.66027  0.49559  0.37224  1.0000
  C   C648      1.0  0.73460  0.58635  0.11149  1.0000
  H   H1020     1.0  0.72923  0.60217  0.12074  1.0000
  C   C649      1.0  0.66103  0.66133  0.16000  1.0000
  H   H1021     1.0  0.63506  0.64738  0.19401  1.0000
  H   H1022     1.0  0.60948  0.52225  0.46079  1.0000
  N   N65       1.0  0.63663  0.49475  0.34530  1.0000
  C   C650      1.0  0.64329  0.47211  0.33627  1.0000
  C   C651      1.0  0.62000  0.49168  0.36336  1.0000
  C   C652      1.0  0.62890  0.50952  0.32528  1.0000
  C   C653      1.0  0.65444  0.50577  0.35645  1.0000
  H   H1023     1.0  0.65580  0.47388  0.32256  1.0000
  H   H1024     1.0  0.63018  0.46317  0.32792  1.0000
  H   H1025     1.0  0.64942  0.46073  0.35100  1.0000
  H   H1026     1.0  0.61469  0.50848  0.37055  1.0000
  H   H1027     1.0  0.60627  0.48328  0.35571  1.0000
  H   H1028     1.0  0.62347  0.52663  0.33162  1.0000
  H   H1029     1.0  0.61568  0.50161  0.31606  1.0000
  H   H1030     1.0  0.64129  0.51280  0.31168  1.0000
  H   H1031     1.0  0.65003  0.52322  0.36261  1.0000
  H   H1032     1.0  0.66761  0.50779  0.34364  1.0000
  N   N66       1.0  0.72645  0.56546  0.12344  1.0000
  H   H1033     1.0  0.61477  0.66814  0.18872  1.0000
  C   C654      1.0  0.73399  0.54486  0.11081  1.0000
  C   C655      1.0  0.67561  0.39993  0.11146  1.0000
  H   H1034     1.0  0.72780  0.54871  0.15809  1.0000
  H   H1035     1.0  0.70981  0.37546  0.10205  1.0000
  C   C656      1.0  0.62207  0.48772  0.48989  1.0000
  H   H1036     1.0  0.66392  0.64323  0.16613  1.0000
  H   H1037     1.0  0.66040  0.40371  0.12016  1.0000
  S   S262      1.0  0.52161  0.63757  0.12597  1.0000
  H   H1038     1.0  0.61995  0.62545  0.36203  1.0000
  H   H1039     1.0  0.61454  0.47291  0.48147  1.0000
  C   C657      1.0  0.71133  0.38784  0.11673  1.0000
  H   H1040     1.0  0.71732  0.40408  0.10873  1.0000
  H   H1041     1.0  0.61360  0.61080  0.42714  1.0000
  H   H1042     1.0  0.56931  0.63559  0.39296  1.0000
  Fe  Fe133     1.0  0.74062  0.39695  0.02167  1.0000
  C   C658      1.0  0.75803  0.57584  0.50201  1.0000
  H   H1043     1.0  0.57874  0.59462  0.39507  1.0000
  C   C659      1.0  0.58474  0.63881  0.38454  1.0000
  C   C660      1.0  0.70353  0.56636  0.12302  1.0000
  N   N67       1.0  0.60059  0.62206  0.39338  1.0000
  H   H1044     1.0  0.60554  0.58546  0.39466  1.0000
  C   C661      1.0  0.73363  0.56428  0.14848  1.0000
  H   H1045     1.0  0.67073  0.67231  0.17130  1.0000
  H   H1046     1.0  0.62549  0.48081  0.37882  1.0000
  S   S263      1.0  0.72060  0.42887  0.01837  1.0000
  H   H1047     1.0  0.58285  0.63783  0.36483  1.0000
  H   H1048     1.0  0.73696  0.65114  0.13781  1.0000
  H   H1049     1.0  0.75357  0.59380  0.44379  1.0000
  H   H1050     1.0  0.75915  0.63251  0.22057  1.0000
  C   C662      1.0  0.60247  0.62388  0.41959  1.0000
  H   H1051     1.0  0.58901  0.50183  0.46356  1.0000
  C   C663      1.0  0.69372  0.40925  0.14740  1.0000
  H   H1052     1.0  0.66693  0.66282  0.14131  1.0000
  H   H1053     1.0  0.60969  0.65614  0.14805  1.0000
  H   H1054     1.0  0.53554  0.65320  0.17295  1.0000
  H   H1055     1.0  0.67295  0.38678  0.09770  1.0000
  H   H1056     1.0  0.68061  0.41601  0.10206  1.0000
  N   N68       1.0  0.63876  0.66767  0.16174  1.0000
  H   H1057     1.0  0.68267  0.35638  0.12648  1.0000
  H   H1058     1.0  0.63303  0.61448  0.38793  1.0000
  H   H1059     1.0  0.72807  0.57951  0.15858  1.0000
  H   H1060     1.0  0.63428  0.49398  0.47726  1.0000
  H   H1061     1.0  0.59363  0.59630  0.36782  1.0000
  H   H1062     1.0  0.66924  0.37199  0.14943  1.0000
  H   H1063     1.0  0.58899  0.65672  0.38865  1.0000
  H   H1064     1.0  0.72808  0.52882  0.11944  1.0000
  S   S264      1.0  0.51866  0.60577  0.44738  1.0000
  H   H1065     1.0  0.69745  0.56664  0.10446  1.0000
  H   H1066     1.0  0.69683  0.55116  0.13242  1.0000
  H   H1067     1.0  0.62975  0.53228  0.49655  1.0000
  H   H1068     1.0  0.62911  0.63411  0.15182  1.0000
  H   H1069     1.0  0.72869  0.54507  0.09191  1.0000
  H   H1070     1.0  0.75123  0.54358  0.11070  1.0000
  Fe  Fe134     1.0  0.59386  0.35994  0.51307  1.0000
  H   H1071     1.0  0.63115  0.65431  0.12736  1.0000
  C   C664      1.0  0.76072  0.65539  0.16427  1.0000
  H   H1072     1.0  0.58213  0.48235  0.50219  1.0000
  C   C665      1.0  0.59029  0.49653  0.51107  1.0000
  H   H1073     1.0  0.57843  0.50992  0.51559  1.0000
  S   S265      1.0  0.57777  0.39446  0.51536  1.0000
  S   S266      1.0  0.67362  0.41089  0.97940  1.0000
  N   N69       1.0  0.72881  0.40219  0.94004  1.0000
  S   S267      1.0  0.59096  0.35753  0.86306  1.0000
  H   H1074     1.0  0.75360  0.41526  0.91803  1.0000
  S   S268      1.0  0.71466  0.37274  0.01408  1.0000
  H   H1075     1.0  0.75509  0.36653  0.75844  1.0000
  H   H1076     1.0  0.70852  0.38232  0.96260  1.0000
  H   H1077     1.0  0.73062  0.36167  0.77316  1.0000
  H   H1078     1.0  0.74934  0.38494  0.91556  1.0000
  H   H1079     1.0  0.72304  0.36589  0.94136  1.0000
  H   H1080     1.0  0.73574  0.37653  0.96718  1.0000
  H   H1081     1.0  0.73717  0.37670  0.71960  1.0000
  C   C666      1.0  0.63806  0.35561  0.93912  1.0000
  C   C667      1.0  0.71257  0.40712  0.92201  1.0000
  H   H1082     1.0  0.71140  0.39289  0.90919  1.0000
  C   C668      1.0  0.66008  0.38926  0.96420  1.0000
  C   C669      1.0  0.66114  0.36619  0.97166  1.0000
  H   H1083     1.0  0.71774  0.35806  0.70904  1.0000
  H   H1084     1.0  0.51524  0.35284  0.82328  1.0000
  C   C670      1.0  0.63717  0.37867  0.93149  1.0000
  C   C671      1.0  0.64813  0.39538  0.94398  1.0000
  S   S269      1.0  0.73945  0.35479  0.66526  1.0000
  S   S270      1.0  0.52757  0.35836  0.87370  1.0000
  H   H1085     1.0  0.67020  0.36118  0.98719  1.0000
  S   S271      1.0  0.62604  0.35053  0.52712  1.0000
  C   C672      1.0  0.74299  0.35348  0.76208  1.0000
  C   C673      1.0  0.74924  0.39941  0.92820  1.0000
  H   H1086     1.0  0.66349  0.34465  0.55407  1.0000
  H   H1087     1.0  0.64715  0.41318  0.93807  1.0000
  H   H1088     1.0  0.62792  0.38367  0.91612  1.0000
  C   C674      1.0  0.65018  0.34952  0.95922  1.0000
  H   H1089     1.0  0.62431  0.51860  0.52492  1.0000
  H   H1090     1.0  0.71571  0.42322  0.91163  1.0000
  Fe  Fe135     1.0  0.69451  0.40434  0.01184  1.0000
  H   H1091     1.0  0.71439  0.42415  0.96589  1.0000
  S   S272      1.0  0.52564  0.38684  0.54949  1.0000
  C   C675      1.0  0.72382  0.38079  0.95337  1.0000
  N   N70       1.0  0.73451  0.34483  0.73961  1.0000
  C   C676      1.0  0.72523  0.36417  0.72552  1.0000
  H   H1092     1.0  0.73349  0.43785  0.94734  1.0000
  H   H1093     1.0  0.73460  0.55672  0.52111  1.0000
  H   H1094     1.0  0.74147  0.41818  0.97079  1.0000
  H   H1095     1.0  0.51952  0.66159  0.60979  1.0000
  C   C677      1.0  0.51522  0.63027  0.57517  1.0000
  H   H1096     1.0  0.69701  0.40927  0.93068  1.0000
  H   H1097     1.0  0.59676  0.48935  0.52811  1.0000
  C   C678      1.0  0.72958  0.42144  0.95673  1.0000
  H   H1098     1.0  0.71310  0.37354  0.73589  1.0000
  Fe  Fe136     1.0  0.54818  0.37488  0.52045  1.0000
  H   H1099     1.0  0.51918  0.64160  0.55951  1.0000
  H   H1100     1.0  0.52970  0.62716  0.58553  1.0000
  H   H1101     1.0  0.63403  0.35076  0.75746  1.0000
  H   H1102     1.0  0.76170  0.39572  0.94160  1.0000
  H   H1103     1.0  0.69782  0.99080  0.02229  1.0000
  C   C679      1.0  0.63551  0.69178  0.15359  1.0000
  H   H1104     1.0  0.64054  0.69435  0.13466  1.0000
  H   H1105     1.0  0.73156  0.91323  0.01983  1.0000
  H   H1106     1.0  0.64444  0.70375  0.16463  1.0000
  H   H1107     1.0  0.61882  0.69699  0.15478  1.0000
  H   H1108     1.0  0.63984  0.67708  0.19872  1.0000
  H   H1109     1.0  0.74764  0.82867  0.06217  1.0000
  H   H1110     1.0  0.75212  0.81438  0.03445  1.0000
  C   C680      1.0  0.75933  0.81863  0.05178  1.0000
  H   H1111     1.0  0.67533  0.98367  0.74378  1.0000
  Fe  Fe137     1.0  0.65542  0.95229  0.88783  1.0000
  S   S273      1.0  0.66052  0.91632  0.90179  1.0000
  S   S274      1.0  0.66552  0.96181  0.84962  1.0000
  Fe  Fe138     1.0  0.64694  0.96993  0.93871  1.0000
  S   S275      1.0  0.65216  0.93464  0.95555  1.0000
  H   H1112     1.0  0.72716  0.89439  0.88916  1.0000
  Fe  Fe139     1.0  0.67970  0.93150  0.93075  1.0000
  S   S276      1.0  0.71393  0.92031  0.93395  1.0000
  Fe  Fe140     1.0  0.63255  0.92297  0.92522  1.0000
  S   S277      1.0  0.60819  0.89522  0.92772  1.0000
  S   S278      1.0  0.67562  0.96740  0.91594  1.0000
  S   S279      1.0  0.62601  0.95833  0.90937  1.0000
  H   H1113     1.0  0.69292  0.95400  0.00098  1.0000
  Fe  Fe141     1.0  0.66010  0.94607  0.66685  1.0000
  S   S280      1.0  0.66784  0.91423  0.64661  1.0000
  S   S281      1.0  0.65574  0.98238  0.65044  1.0000
  Fe  Fe142     1.0  0.65176  0.91779  0.71371  1.0000
  S   S282      1.0  0.65882  0.88411  0.69584  1.0000
  S   S283      1.0  0.63802  0.91777  0.75157  1.0000
  Fe  Fe143     1.0  0.68614  0.90253  0.67918  1.0000
  S   S284      1.0  0.72111  0.89386  0.67994  1.0000
  Fe  Fe144     1.0  0.63967  0.89871  0.66502  1.0000
  S   S285      1.0  0.61515  0.88289  0.64071  1.0000
  S   S286      1.0  0.67967  0.93569  0.69866  1.0000
  S   S287      1.0  0.63134  0.93120  0.68383  1.0000
  C   C681      1.0  0.73732  0.86882  0.67726  1.0000
  H   H1114     1.0  0.69572  0.95387  0.96897  1.0000
  H   H1115     1.0  0.56875  0.00706  0.98184  1.0000
  C   C682      1.0  0.73031  0.84835  0.66782  1.0000
  H   H1116     1.0  0.64086  0.00326  0.69429  1.0000
  H   H1117     1.0  0.54450  0.90485  0.91539  1.0000
  H   H1118     1.0  0.71427  0.84711  0.66251  1.0000
  C   C683      1.0  0.54879  0.85447  0.65332  1.0000
  C   C684      1.0  0.55762  0.85575  0.63039  1.0000
  C   C685      1.0  0.57782  0.86448  0.62695  1.0000
  C   C686      1.0  0.58956  0.87219  0.64627  1.0000
  C   C687      1.0  0.58065  0.87114  0.66916  1.0000
  C   C688      1.0  0.56050  0.86231  0.67262  1.0000
  H   H1119     1.0  0.54898  0.84980  0.61532  1.0000
  H   H1120     1.0  0.58446  0.86506  0.60916  1.0000
  H   H1121     1.0  0.58937  0.87686  0.68428  1.0000
  H   H1122     1.0  0.55402  0.86137  0.69047  1.0000
  C   C689      1.0  0.65813  0.94857  0.82277  1.0000
  C   C690      1.0  0.64110  0.93415  0.82181  1.0000
  C   C691      1.0  0.63538  0.92465  0.79992  1.0000
  C   C692      1.0  0.64685  0.92899  0.77887  1.0000
  C   C693      1.0  0.66432  0.94277  0.78000  1.0000
  C   C694      1.0  0.66974  0.95278  0.80176  1.0000
  H   H1123     1.0  0.63205  0.93070  0.83780  1.0000
  H   H1124     1.0  0.62188  0.91393  0.79926  1.0000
  H   H1125     1.0  0.67354  0.94581  0.76407  1.0000
  H   H1126     1.0  0.68308  0.96374  0.80238  1.0000
  C   C695      1.0  0.73085  0.91746  0.95895  1.0000
  S   S288      1.0  0.52953  0.89863  0.99726  1.0000
  S   S289      1.0  0.64168  0.99750  0.96649  1.0000
  H   H1127     1.0  0.53355  0.92001  0.94006  1.0000
  C   C696      1.0  0.72345  0.91612  0.98249  1.0000
  H   H1128     1.0  0.51848  0.72823  0.55313  1.0000
  C   C697      1.0  0.69143  0.96477  0.98437  1.0000
  H   H1129     1.0  0.70693  0.91611  0.98589  1.0000
  H   H1130     1.0  0.69954  0.89352  0.88988  1.0000
  C   C698      1.0  0.69759  0.00054  0.59792  1.0000
  C   C699      1.0  0.63602  0.97444  0.73204  1.0000
  H   H1131     1.0  0.64075  0.90922  0.60290  1.0000
  H   H1132     1.0  0.71383  0.87400  0.87135  1.0000
  N   N71       1.0  0.62412  0.94105  0.59591  1.0000
  H   H1133     1.0  0.73051  0.91880  0.82716  1.0000
  H   H1134     1.0  0.60445  0.96864  0.58268  1.0000
  H   H1135     1.0  0.73218  0.96676  0.97481  1.0000
  C   C700      1.0  0.55182  0.89664  0.97862  1.0000
  C   C701      1.0  0.56549  0.91517  0.97760  1.0000
  C   C702      1.0  0.58288  0.91492  0.96223  1.0000
  C   C703      1.0  0.58684  0.89603  0.94780  1.0000
  C   C704      1.0  0.57329  0.87739  0.94898  1.0000
  C   C705      1.0  0.55592  0.87761  0.96442  1.0000
  H   H1136     1.0  0.56255  0.92987  0.98868  1.0000
  H   H1137     1.0  0.59325  0.92932  0.96157  1.0000
  H   H1138     1.0  0.57640  0.86259  0.93808  1.0000
  H   H1139     1.0  0.54588  0.86296  0.96553  1.0000
  H   H1140     1.0  0.67475  0.96959  0.98249  1.0000
  H   H1141     1.0  0.63572  0.91538  0.57185  1.0000
  H   H1142     1.0  0.70859  0.98763  0.94702  1.0000
  C   C706      1.0  0.61545  0.94199  0.62037  1.0000
  S   S290      1.0  0.52342  0.84328  0.65912  1.0000
  C   C707      1.0  0.53096  0.91567  0.92106  1.0000
  C   C708      1.0  0.64313  0.95484  0.59442  1.0000
  H   H1143     1.0  0.62980  0.96959  0.75005  1.0000
  H   H1144     1.0  0.74530  0.90864  0.85253  1.0000
  H   H1145     1.0  0.73161  0.88865  0.83469  1.0000
  C   C709      1.0  0.70291  0.99820  0.96214  1.0000
  H   H1146     1.0  0.59412  0.94041  0.57949  1.0000
  C   C710      1.0  0.73748  0.91420  0.00170  1.0000
  C   C711      1.0  0.60865  0.95046  0.57876  1.0000
  H   H1147     1.0  0.65503  0.94839  0.60738  1.0000
  C   C712      1.0  0.75243  0.91626  0.95493  1.0000
  H   H1148     1.0  0.64735  0.96071  0.72705  1.0000
  C   C713      1.0  0.74419  0.82951  0.66482  1.0000
  H   H1149     1.0  0.75838  0.91708  0.93682  1.0000
  H   H1150     1.0  0.61522  0.90594  0.59159  1.0000
  H   H1151     1.0  0.60107  0.93177  0.62227  1.0000
  C   C714      1.0  0.69712  0.00010  0.00469  1.0000
  H   H1152     1.0  0.65798  0.99210  0.76738  1.0000
  H   H1153     1.0  0.69185  0.97034  0.62023  1.0000
  H   H1154     1.0  0.65026  0.95449  0.57628  1.0000
  C   C715      1.0  0.67021  0.99778  0.62812  1.0000
  C   C716      1.0  0.65362  0.00274  0.70762  1.0000
  C   C717      1.0  0.75827  0.86999  0.68401  1.0000
  N   N72       1.0  0.71226  0.90893  0.85784  1.0000
  C   C718      1.0  0.69338  0.90533  0.84364  1.0000
  C   C719      1.0  0.71169  0.93238  0.86744  1.0000
  C   C720      1.0  0.73077  0.90612  0.84238  1.0000
  C   C721      1.0  0.71327  0.89191  0.87785  1.0000
  H   H1155     1.0  0.69287  0.88758  0.83676  1.0000
  H   H1156     1.0  0.69252  0.91743  0.82798  1.0000
  H   H1157     1.0  0.67903  0.90830  0.85438  1.0000
  H   H1158     1.0  0.69796  0.93508  0.87923  1.0000
  H   H1159     1.0  0.72562  0.93570  0.87838  1.0000
  H   H1160     1.0  0.71063  0.94572  0.85289  1.0000
  H   H1161     1.0  0.63986  0.97316  0.59872  1.0000
  H   H1162     1.0  0.52063  0.88775  0.88554  1.0000
  C   C722      1.0  0.62919  0.91690  0.59019  1.0000
  C   C723      1.0  0.68700  0.98783  0.61589  1.0000
  N   N73       1.0  0.70447  0.98530  0.98514  1.0000
  H   H1163     1.0  0.61470  0.95006  0.56009  1.0000
  H   H1164     1.0  0.61187  0.95996  0.62566  1.0000
  H   H1165     1.0  0.73863  0.81391  0.65716  1.0000
  H   H1166     1.0  0.62663  0.93463  0.63356  1.0000
  H   H1167     1.0  0.62299  0.97393  0.71915  1.0000
  C   C724      1.0  0.72629  0.97804  0.98928  1.0000
  H   H1168     1.0  0.71048  0.99260  0.58858  1.0000
  H   H1169     1.0  0.53125  0.93199  0.91037  1.0000
  N   N74       1.0  0.64581  0.99717  0.73192  1.0000
  H   H1170     1.0  0.73666  0.99306  0.98999  1.0000
  H   H1171     1.0  0.66521  0.98965  0.70152  1.0000
  C   C725      1.0  0.66328  0.99665  0.74890  1.0000
  H   H1172     1.0  0.52522  0.87060  0.92649  1.0000
  H   H1173     1.0  0.68652  0.00344  0.95821  1.0000
  H   H1174     1.0  0.68068  0.00586  0.00184  1.0000
  H   H1175     1.0  0.72804  0.96807  0.00641  1.0000
  C   C726      1.0  0.75907  0.91317  0.99771  1.0000
  H   H1176     1.0  0.51350  0.88479  0.95148  1.0000
  C   C727      1.0  0.86981  0.01409  0.11537  1.0000
  Fe  Fe145     1.0  0.86486  0.06097  0.43065  1.0000
  S   S291      1.0  0.87351  0.04224  0.39676  1.0000
  S   S292      1.0  0.83070  0.05834  0.44257  1.0000
  Fe  Fe146     1.0  0.90972  0.07567  0.43826  1.0000
  S   S293      1.0  0.92125  0.05861  0.40528  1.0000
  S   S294      1.0  0.93073  0.09184  0.46557  1.0000
  Fe  Fe147     1.0  0.89264  0.07290  0.38705  1.0000
  S   S295      1.0  0.89884  0.08844  0.34967  1.0000
  Fe  Fe148     1.0  0.90155  0.02905  0.41690  1.0000
  S   S296      1.0  0.88233  0.09279  0.41955  1.0000
  S   S297      1.0  0.89164  0.04501  0.45135  1.0000
  Fe  Fe149     1.0  0.91327  0.10068  0.17449  1.0000
  S   S298      1.0  0.90814  0.06274  0.18221  1.0000
  S   S299      1.0  0.94370  0.12092  0.17790  1.0000
  Fe  Fe150     1.0  0.86554  0.11095  0.17232  1.0000
  S   S300      1.0  0.85760  0.07410  0.17953  1.0000
  S   S301      1.0  0.84291  0.14161  0.16751  1.0000
  Fe  Fe151     1.0  0.88274  0.07449  0.20757  1.0000
  S   S302      1.0  0.87396  0.05915  0.24433  1.0000
  Fe  Fe152     1.0  0.88328  0.06512  0.15362  1.0000
  S   S303      1.0  0.87806  0.04267  0.12071  1.0000
  S   S304      1.0  0.88916  0.11183  0.20167  1.0000
  S   S305      1.0  0.88993  0.10253  0.14465  1.0000
  H   H1177     1.0  0.93674  0.02089  0.37052  1.0000
  C   C728      1.0  0.99156  0.11922  0.12874  1.0000
  C   C729      1.0  0.97276  0.11434  0.14088  1.0000
  C   C730      1.0  0.96660  0.12706  0.16074  1.0000
  C   C731      1.0  0.97945  0.14496  0.16791  1.0000
  C   C732      1.0  0.99805  0.15012  0.15549  1.0000
  H   H1178     1.0  0.91752  0.04288  0.31205  1.0000
  H   H1179     1.0  0.96314  0.10055  0.13504  1.0000
  H   H1180     1.0  0.97476  0.15516  0.18300  1.0000
  C   C733      1.0  0.77219  0.15014  0.17904  1.0000
  C   C734      1.0  0.88108  0.06768  0.27340  1.0000
  C   C735      1.0  0.87066  0.05818  0.29336  1.0000
  C   C736      1.0  0.87555  0.06461  0.31678  1.0000
  C   C737      1.0  0.89117  0.08047  0.32056  1.0000
  C   C738      1.0  0.90146  0.09012  0.30057  1.0000
  C   C739      1.0  0.89652  0.08374  0.27714  1.0000
  H   H1181     1.0  0.85858  0.04587  0.29066  1.0000
  H   H1182     1.0  0.86712  0.05742  0.33187  1.0000
  H   H1183     1.0  0.91353  0.10245  0.30324  1.0000
  H   H1184     1.0  0.90472  0.09117  0.26198  1.0000
  H   H1185     1.0  0.77347  0.11088  0.43620  1.0000
  C   C740      1.0  0.93635  0.02726  0.35160  1.0000
  H   H1186     1.0  0.77082  0.14793  0.10694  1.0000
  H   H1187     1.0  0.81780  0.11503  0.27723  1.0000
  C   C741      1.0  0.80915  0.10046  0.49556  1.0000
  C   C742      1.0  0.00036  0.10703  0.45686  1.0000
  C   C743      1.0  0.98987  0.11147  0.47827  1.0000
  C   C744      1.0  0.96852  0.10700  0.48049  1.0000
  C   C745      1.0  0.95743  0.09793  0.46143  1.0000
  C   C746      1.0  0.96796  0.09326  0.44009  1.0000
  C   C747      1.0  0.98929  0.09787  0.43782  1.0000
  H   H1188     1.0  0.99814  0.11857  0.49305  1.0000
  H   H1189     1.0  0.96054  0.11065  0.49708  1.0000
  H   H1190     1.0  0.95965  0.08633  0.42527  1.0000
  H   H1191     1.0  0.99725  0.09439  0.42118  1.0000
  H   H1192     1.0  0.95219  0.02496  0.34397  1.0000
  C   C748      1.0  0.78145  0.07529  0.48533  1.0000
  C   C749      1.0  0.79460  0.06487  0.46829  1.0000
  C   C750      1.0  0.81513  0.07208  0.46473  1.0000
  C   C751      1.0  0.82236  0.08993  0.47858  1.0000
  H   H1193     1.0  0.77428  0.12603  0.46366  1.0000
  H   H1194     1.0  0.92681  0.04482  0.48982  1.0000
  C   C752      1.0  0.93304  0.02689  0.49210  1.0000
  H   H1195     1.0  0.83811  0.09570  0.47612  1.0000
  C   C753      1.0  0.92071  0.02402  0.31278  1.0000
  H   H1196     1.0  0.89911  0.01070  0.36675  1.0000
  C   C754      1.0  0.78409  0.16852  0.17070  1.0000
  C   C755      1.0  0.80564  0.16547  0.16702  1.0000
  C   C756      1.0  0.81553  0.14402  0.17130  1.0000
  C   C757      1.0  0.80356  0.12553  0.17925  1.0000
  C   C758      1.0  0.78207  0.12865  0.18328  1.0000
  H   H1197     1.0  0.93277  0.04609  0.35187  1.0000
  H   H1198     1.0  0.81475  0.17990  0.16087  1.0000
  H   H1199     1.0  0.81088  0.10885  0.18224  1.0000
  N   N75       1.0  0.83809  0.12487  0.24833  1.0000
  C   C759      1.0  0.85705  0.12245  0.26294  1.0000
  C   C760      1.0  0.82001  0.12939  0.26401  1.0000
  C   C761      1.0  0.83491  0.10340  0.23539  1.0000
  C   C762      1.0  0.84037  0.14420  0.23097  1.0000
  H   H1200     1.0  0.87088  0.11841  0.25164  1.0000
  H   H1201     1.0  0.80547  0.13135  0.25344  1.0000
  H   H1202     1.0  0.82192  0.14543  0.27413  1.0000
  H   H1203     1.0  0.82062  0.10441  0.22439  1.0000
  H   H1204     1.0  0.83373  0.08829  0.24786  1.0000
  H   H1205     1.0  0.84811  0.09969  0.22312  1.0000
  H   H1206     1.0  0.82630  0.14661  0.21972  1.0000
  H   H1207     1.0  0.85366  0.14122  0.21854  1.0000
  H   H1208     1.0  0.84307  0.16067  0.24000  1.0000
  H   H1209     1.0  0.81496  0.11432  0.50603  1.0000
  H   H1210     1.0  0.96253  0.05816  0.49036  1.0000
  H   H1211     1.0  0.77298  0.11425  0.18951  1.0000
  H   H1212     1.0  0.86029  0.13845  0.27260  1.0000
  H   H1213     1.0  0.85571  0.10826  0.27651  1.0000
  H   H1214     1.0  0.98380  0.03934  0.48292  1.0000
  N   N76       1.0  0.95365  0.02426  0.48066  1.0000
  H   H1215     1.0  0.78886  0.05102  0.45775  1.0000
  H   H1216     1.0  0.86253  0.02199  0.07854  1.0000
  C   C763      1.0  0.95197  0.02996  0.45487  1.0000
  H   H1217     1.0  0.99618  0.10904  0.11362  1.0000
  H   H1218     1.0  0.94636  0.04796  0.45182  1.0000
  H   H1219     1.0  0.77109  0.14174  0.43590  1.0000
  C   C764      1.0  0.76665  0.12580  0.44585  1.0000
  H   H1220     1.0  0.94085  0.01861  0.44599  1.0000
  H   H1221     1.0  0.00724  0.16443  0.16074  1.0000
  C   C765      1.0  0.96829  0.04002  0.49176  1.0000
  C   C766      1.0  0.78857  0.09336  0.49898  1.0000
  H   H1222     1.0  0.77676  0.18514  0.16731  1.0000
  C   C767      1.0  0.00447  0.13701  0.13604  1.0000
  H   H1223     1.0  0.93370  0.02286  0.51161  1.0000
  H   H1224     1.0  0.76585  0.06924  0.48777  1.0000
  H   H1225     1.0  0.96718  0.02812  0.44556  1.0000
  H   H1226     1.0  0.93593  0.02099  0.30380  1.0000
  H   H1227     1.0  0.92160  0.01524  0.48421  1.0000
  H   H1228     1.0  0.97043  0.03583  0.51109  1.0000
  H   H1229     1.0  0.89647  0.03735  0.35043  1.0000
  C   C768      1.0  0.90005  0.01873  0.34855  1.0000
  H   H1230     1.0  0.90856  0.01589  0.30194  1.0000
  N   N77       1.0  0.92076  0.01503  0.33772  1.0000
  H   H1231     1.0  0.88758  0.01131  0.33766  1.0000
  H   H1232     1.0  0.76334  0.13315  0.13406  1.0000
  C   C769      1.0  0.86325  0.00859  0.09224  1.0000
  H   H1233     1.0  0.81115  0.32450  0.67673  1.0000
  H   H1234     1.0  0.77590  0.05700  0.59128  1.0000
  H   H1235     1.0  0.79968  0.03468  0.53506  1.0000
  C   C770      1.0  0.87036  0.33242  0.63890  1.0000
  H   H1236     1.0  0.77320  0.32030  0.67115  1.0000
  N   N78       1.0  0.77275  0.04169  0.55689  1.0000
  H   H1237     1.0  0.78213  0.01593  0.58295  1.0000
  C   C771      1.0  0.90756  0.33695  0.63924  1.0000
  H   H1238     1.0  0.89381  0.29392  0.63535  1.0000
  H   H1239     1.0  0.87074  0.32576  0.62044  1.0000
  H   H1240     1.0  0.00255  0.33407  0.66851  1.0000
  H   H1241     1.0  0.96728  0.33986  0.68591  1.0000
  C   C772      1.0  0.77177  0.01815  0.56721  1.0000
  S   S306      1.0  0.77254  0.10766  0.52043  1.0000
  H   H1242     1.0  0.90914  0.33060  0.62072  1.0000
  C   C773      1.0  0.76606  0.05836  0.57505  1.0000
  C   C774      1.0  0.79420  0.04664  0.54911  1.0000
  H   H1243     1.0  0.87942  0.29313  0.66298  1.0000
  N   N79       1.0  0.88971  0.32663  0.65195  1.0000
  C   C775      1.0  0.88827  0.33576  0.67632  1.0000
  C   C776      1.0  0.89264  0.30140  0.65344  1.0000
  H   H1244     1.0  0.79533  0.06442  0.54139  1.0000
  H   H1245     1.0  0.90708  0.29650  0.66327  1.0000
  C   C777      1.0  0.77979  0.33723  0.67139  1.0000
  H   H1246     1.0  0.85653  0.32524  0.64828  1.0000
  H   H1247     1.0  0.80524  0.04520  0.56429  1.0000
  H   H1248     1.0  0.90273  0.33221  0.68664  1.0000
  H   H1249     1.0  0.92241  0.33306  0.64872  1.0000
  H   H1250     1.0  0.87494  0.32847  0.68652  1.0000
  H   H1251     1.0  0.76708  0.07636  0.56794  1.0000
  C   C778      1.0  0.80135  0.33968  0.67452  1.0000
  H   H1252     1.0  0.76385  0.03222  0.52149  1.0000
  S   S307      1.0  0.86985  0.65590  0.12350  1.0000
  S   S308      1.0  0.86607  0.60453  0.47498  1.0000
  S   S309      1.0  0.96099  0.64926  0.36686  1.0000
  H   H1253     1.0  0.00942  0.64603  0.41460  1.0000
  H   H1254     1.0  0.98904  0.67079  0.12279  1.0000
  H   H1255     1.0  0.91075  0.63673  0.41164  1.0000
  C   C779      1.0  0.90555  0.66753  0.27113  1.0000
  C   C780      1.0  0.84408  0.65115  0.27952  1.0000
  S   S310      1.0  0.96006  0.62393  0.03117  1.0000
  H   H1256     1.0  0.93615  0.65583  0.10339  1.0000
  H   H1257     1.0  0.83562  0.61882  0.24758  1.0000
  C   C781      1.0  0.89364  0.64784  0.08373  1.0000
  C   C782      1.0  0.90707  0.65390  0.06479  1.0000
  H   H1258     1.0  0.88896  0.63018  0.08608  1.0000
  H   H1259     1.0  0.91267  0.64096  0.05263  1.0000
  H   H1260     1.0  0.96749  0.66247  0.06234  1.0000
  H   H1261     1.0  0.84350  0.63361  0.28780  1.0000
  H   H1262     1.0  0.98214  0.62537  0.07800  1.0000
  C   C783      1.0  0.88801  0.61990  0.46463  1.0000
  C   C784      1.0  0.89142  0.62240  0.43986  1.0000
  C   C785      1.0  0.90833  0.63494  0.43075  1.0000
  C   C786      1.0  0.92219  0.64486  0.44639  1.0000
  C   C787      1.0  0.91886  0.64224  0.47118  1.0000
  C   C788      1.0  0.90182  0.62991  0.48028  1.0000
  H   H1263     1.0  0.90787  0.64907  0.27146  1.0000
  H   H1264     1.0  0.96727  0.62373  0.41284  1.0000
  C   C789      1.0  0.98606  0.60850  0.45302  1.0000
  H   H1265     1.0  0.89957  0.62783  0.49937  1.0000
  C   C790      1.0  0.97335  0.66315  0.12257  1.0000
  H   H1266     1.0  0.86051  0.65431  0.27435  1.0000
  C   C791      1.0  0.98150  0.61285  0.41046  1.0000
  H   H1267     1.0  0.94689  0.62893  0.11426  1.0000
  H   H1268     1.0  0.97177  0.61912  0.45640  1.0000
  H   H1269     1.0  0.94464  0.63448  0.08271  1.0000
  H   H1270     1.0  0.85997  0.64753  0.49867  1.0000
  C   C792      1.0  0.83645  0.63678  0.24047  1.0000
  S   S311      1.0  0.92843  0.66593  0.31258  1.0000
  N   N80       1.0  0.96928  0.65239  0.09946  1.0000
  H   H1271     1.0  0.88085  0.61465  0.42759  1.0000
  H   H1272     1.0  0.88756  0.66795  0.23854  1.0000
  C   C793      1.0  0.86290  0.66588  0.50223  1.0000
  H   H1273     1.0  0.00091  0.64096  0.09404  1.0000
  H   H1274     1.0  0.79768  0.65096  0.25086  1.0000
  S   S312      1.0  0.82010  0.62398  0.51291  1.0000
  H   H1275     1.0  0.80316  0.66178  0.27987  1.0000
  N   N81       1.0  0.99615  0.61562  0.43031  1.0000
  H   H1276     1.0  0.82783  0.66040  0.47680  1.0000
  H   H1277     1.0  0.98474  0.62055  0.10959  1.0000
  Fe  Fe153     1.0  0.99215  0.66627  0.36471  1.0000
  C   C794      1.0  0.94836  0.64245  0.10001  1.0000
  C   C795      1.0  0.00205  0.63995  0.43158  1.0000
  H   H1278     1.0  0.77791  0.59477  0.47799  1.0000
  H   H1279     1.0  0.92959  0.64974  0.48342  1.0000
  N   N82       1.0  0.83015  0.65356  0.25870  1.0000
  H   H1280     1.0  0.80686  0.63168  0.27413  1.0000
  H   H1281     1.0  0.98866  0.61786  0.39300  1.0000
  H   H1282     1.0  0.86037  0.65679  0.45515  1.0000
  C   C796      1.0  0.98494  0.63403  0.09519  1.0000
  C   C797      1.0  0.88614  0.66449  0.09956  1.0000
  Fe  Fe154     1.0  0.95337  0.67154  0.39802  1.0000
  S   S313      1.0  0.94418  0.66013  0.43609  1.0000
  S   S314      1.0  0.84885  0.66802  0.18596  1.0000
  H   H1283     1.0  0.85265  0.63960  0.23417  1.0000
  Fe  Fe155     1.0  0.85025  0.60382  0.51158  1.0000
  C   C798      1.0  0.97043  0.66998  0.08004  1.0000
  H   H1284     1.0  0.83988  0.66369  0.29356  1.0000
  H   H1285     1.0  0.82621  0.63817  0.22450  1.0000
  H   H1286     1.0  0.98828  0.65128  0.43491  1.0000
  H   H1287     1.0  0.97649  0.59477  0.40911  1.0000
  H   H1288     1.0  0.77025  0.66603  0.15271  1.0000
  C   C799      1.0  0.76713  0.65039  0.18770  1.0000
  S   S315      1.0  0.79054  0.66124  0.19963  1.0000
  H   H1289     1.0  0.89303  0.42851  0.01771  1.0000
  H   H1290     1.0  0.97246  0.65039  0.13765  1.0000
  H   H1291     1.0  0.86307  0.40634  0.03347  1.0000
  C   C800      1.0  0.80853  0.64929  0.26629  1.0000
  Fe  Fe156     1.0  0.94857  0.65819  0.01748  1.0000
  H   H1292     1.0  0.87998  0.66765  0.50393  1.0000
  H   H1293     1.0  0.98133  0.59023  0.45273  1.0000
  H   H1294     1.0  0.89819  0.38766  0.03031  1.0000
  H   H1295     1.0  0.99656  0.61052  0.46848  1.0000
  H   H1296     1.0  0.01110  0.58282  0.42475  1.0000
  C   C801      1.0  0.76323  0.58626  0.48006  1.0000
  Fe  Fe157     1.0  0.99144  0.63406  0.01750  1.0000
  C   C802      1.0  0.86412  0.67472  0.45987  1.0000
  H   H1297     1.0  0.85234  0.38399  0.01595  1.0000
  Fe  Fe158     1.0  0.90615  0.47530  0.91366  1.0000
  S   S316      1.0  0.90038  0.45793  0.94914  1.0000
  S   S317      1.0  0.91841  0.51149  0.90861  1.0000
  Fe  Fe159     1.0  0.88913  0.43569  0.88538  1.0000
  S   S318      1.0  0.88190  0.41532  0.91918  1.0000
  S   S319      1.0  0.88135  0.41746  0.85084  1.0000
  Fe  Fe160     1.0  0.86947  0.44820  0.93425  1.0000
  S   S320      1.0  0.84175  0.45516  0.95915  1.0000
  Fe  Fe161     1.0  0.91319  0.42622  0.93191  1.0000
  S   S321      1.0  0.93188  0.39989  0.95389  1.0000
  S   S322      1.0  0.87428  0.46803  0.89963  1.0000
  S   S323      1.0  0.92142  0.44415  0.89717  1.0000
  Fe  Fe162     1.0  0.85875  0.39485  0.67865  1.0000
  S   S324      1.0  0.85357  0.43310  0.68266  1.0000
  S   S325      1.0  0.83770  0.36345  0.67867  1.0000
  Fe  Fe163     1.0  0.90685  0.39905  0.67495  1.0000
  S   S326      1.0  0.90496  0.43754  0.67798  1.0000
  S   S327      1.0  0.93477  0.37375  0.67834  1.0000
  Fe  Fe164     1.0  0.88135  0.43127  0.70735  1.0000
  S   S328      1.0  0.88649  0.45131  0.74140  1.0000
  Fe  Fe165     1.0  0.87748  0.43707  0.65319  1.0000
  S   S329      1.0  0.87353  0.45860  0.61851  1.0000
  S   S330      1.0  0.88458  0.39310  0.70559  1.0000
  S   S331      1.0  0.88118  0.39874  0.64790  1.0000
  C   C803      1.0  0.80607  0.51867  0.53491  1.0000
  H   H1298     1.0  0.90372  0.42217  0.98888  1.0000
  Fe  Fe166     1.0  0.83074  0.63425  0.54937  1.0000
  S   S332      1.0  0.86163  0.61581  0.54718  1.0000
  H   H1299     1.0  0.86603  0.67171  0.58133  1.0000
  C   C804      1.0  0.86010  0.40091  0.01489  1.0000
  Fe  Fe167     1.0  0.84492  0.58482  0.56275  1.0000
  S   S333      1.0  0.85359  0.56554  0.59759  1.0000
  H   H1300     1.0  0.86761  0.35134  0.63753  1.0000
  S   S334      1.0  0.81475  0.60438  0.56701  1.0000
  Fe  Fe168     1.0  0.97309  0.65434  0.97113  1.0000
  Fe  Fe169     1.0  0.95435  0.61143  0.99401  1.0000
  S   S335      1.0  0.93989  0.57606  0.99483  1.0000
  N   N83       1.0  0.87950  0.39966  0.00070  1.0000
  S   S336      1.0  0.94028  0.64534  0.98122  1.0000
  S   S337      1.0  0.98673  0.61925  0.98126  1.0000
  H   H1301     1.0  0.85074  0.66372  0.64271  1.0000
  H   H1302     1.0  0.88580  0.55600  0.95318  1.0000
  C   C805      1.0  0.87471  0.39248  0.97625  1.0000
  H   H1303     1.0  0.79896  0.55426  0.56442  1.0000
  C   C806      1.0  0.86803  0.48844  0.61329  1.0000
  C   C807      1.0  0.86452  0.50375  0.63187  1.0000
  C   C808      1.0  0.86017  0.52722  0.62672  1.0000
  C   C809      1.0  0.85916  0.53572  0.60298  1.0000
  C   C810      1.0  0.86263  0.52042  0.58439  1.0000
  C   C811      1.0  0.86704  0.49697  0.58955  1.0000
  H   H1304     1.0  0.86524  0.49751  0.65021  1.0000
  H   H1305     1.0  0.85761  0.53885  0.64129  1.0000
  H   H1306     1.0  0.86225  0.52667  0.56605  1.0000
  H   H1307     1.0  0.86991  0.48535  0.57504  1.0000
  C   C812      1.0  0.96002  0.37058  0.66509  1.0000
  C   C813      1.0  0.96760  0.38591  0.64764  1.0000
  C   C814      1.0  0.98769  0.38255  0.63779  1.0000
  C   C815      1.0  0.00056  0.36386  0.64515  1.0000
  H   H1308     1.0  0.86843  0.62669  0.65465  1.0000
  S   S338      1.0  0.76974  0.38996  0.99887  1.0000
  H   H1309     1.0  0.95803  0.40038  0.64172  1.0000
  H   H1310     1.0  0.99332  0.39461  0.62439  1.0000
  H   H1311     1.0  0.96382  0.38879  0.72897  1.0000
  H   H1312     1.0  0.77049  0.51625  0.57995  1.0000
  C   C816      1.0  0.95884  0.40318  0.95829  1.0000
  C   C817      1.0  0.96913  0.42261  0.94962  1.0000
  C   C818      1.0  0.99047  0.42498  0.95384  1.0000
  H   H1313     1.0  0.84389  0.63865  0.59558  1.0000
  C   C819      1.0  0.99156  0.38838  0.97515  1.0000
  C   C820      1.0  0.97016  0.38605  0.97100  1.0000
  H   H1314     1.0  0.96060  0.43594  0.93985  1.0000
  C   C821      1.0  0.00176  0.40797  0.96671  1.0000
  H   H1315     1.0  0.85733  0.59989  0.64658  1.0000
  H   H1316     1.0  0.96234  0.37096  0.97776  1.0000
  C   C822      1.0  0.92654  0.52857  0.93250  1.0000
  C   C823      1.0  0.93183  0.55157  0.92784  1.0000
  C   C824      1.0  0.93656  0.56625  0.94665  1.0000
  C   C825      1.0  0.93587  0.55804  0.97032  1.0000
  C   C826      1.0  0.93086  0.53496  0.97492  1.0000
  C   C827      1.0  0.92647  0.52022  0.95612  1.0000
  H   H1317     1.0  0.93198  0.55817  0.90961  1.0000
  H   H1318     1.0  0.94036  0.58399  0.94288  1.0000
  H   H1319     1.0  0.93044  0.52845  0.99318  1.0000
  H   H1320     1.0  0.92283  0.50248  0.95996  1.0000
  C   C828      1.0  0.88282  0.42739  0.82058  1.0000
  C   C829      1.0  0.87729  0.41246  0.80234  1.0000
  C   C830      1.0  0.87808  0.41954  0.77807  1.0000
  C   C831      1.0  0.88445  0.44170  0.77173  1.0000
  C   C832      1.0  0.89007  0.45660  0.78995  1.0000
  C   C833      1.0  0.88930  0.44951  0.81423  1.0000
  H   H1321     1.0  0.87219  0.39535  0.80706  1.0000
  H   H1322     1.0  0.87357  0.40791  0.76433  1.0000
  H   H1323     1.0  0.89502  0.47379  0.78527  1.0000
  H   H1324     1.0  0.89359  0.46119  0.82803  1.0000
  H   H1325     1.0  0.87845  0.43565  0.99122  1.0000
  H   H1326     1.0  0.86677  0.37569  0.97631  1.0000
  C   C834      1.0  0.81035  0.36154  0.67467  1.0000
  H   H1327     1.0  0.82466  0.59978  0.62343  1.0000
  C   C835      1.0  0.78924  0.40867  0.98761  1.0000
  C   C836      1.0  0.80393  0.40018  0.97113  1.0000
  C   C837      1.0  0.81983  0.41422  0.96185  1.0000
  C   C838      1.0  0.82145  0.43690  0.96926  1.0000
  C   C839      1.0  0.80668  0.44543  0.98564  1.0000
  C   C840      1.0  0.79061  0.43148  0.99467  1.0000
  H   H1328     1.0  0.94298  0.41781  0.78341  1.0000
  H   H1329     1.0  0.83073  0.40748  0.94889  1.0000
  H   H1330     1.0  0.80772  0.46294  0.99150  1.0000
  H   H1331     1.0  0.80299  0.38259  0.96545  1.0000
  C   C841      1.0  0.85047  0.52318  0.92558  1.0000
  H   H1332     1.0  0.86125  0.51718  0.91125  1.0000
  H   H1333     1.0  0.84036  0.53697  0.91760  1.0000
  H   H1334     1.0  0.84053  0.50838  0.93074  1.0000
  C   C842      1.0  0.77627  0.51678  0.56118  1.0000
  H   H1335     1.0  0.88579  0.35465  0.67569  1.0000
  H   H1336     1.0  0.80323  0.48094  0.56350  1.0000
  H   H1337     1.0  0.91076  0.40813  0.74552  1.0000
  H   H1338     1.0  0.88908  0.39058  0.96526  1.0000
  Fe  Fe170     1.0  0.80673  0.59245  0.53032  1.0000
  H   H1339     1.0  0.99822  0.44021  0.94728  1.0000
  H   H1340     1.0  0.83743  0.55419  0.95759  1.0000
  H   H1341     1.0  0.86666  0.56557  0.93168  1.0000
  S   S339      1.0  0.83616  0.57128  0.52694  1.0000
  C   C843      1.0  0.80822  0.49693  0.57212  1.0000
  H   H1342     1.0  0.85744  0.61280  0.60466  1.0000
  H   H1343     1.0  0.82328  0.51941  0.53344  1.0000
  N   N84       1.0  0.86207  0.53146  0.94628  1.0000
  H   H1344     1.0  0.77044  0.50140  0.55209  1.0000
  H   H1345     1.0  0.88624  0.54490  0.92362  1.0000
  H   H1346     1.0  0.82736  0.65420  0.65716  1.0000
  C   C844      1.0  0.89415  0.38282  0.01182  1.0000
  C   C845      1.0  0.80609  0.53835  0.57240  1.0000
  C   C846      1.0  0.84739  0.53980  0.96467  1.0000
  C   C847      1.0  0.87572  0.55034  0.93840  1.0000
  H   H1347     1.0  0.88407  0.51790  0.97193  1.0000
  H   H1348     1.0  0.86501  0.49779  0.96274  1.0000
  C   C848      1.0  0.87477  0.51233  0.95649  1.0000
  C   C849      1.0  0.83635  0.65380  0.64013  1.0000
  H   H1349     1.0  0.97681  0.41100  0.74444  1.0000
  S   S340      1.0  0.82439  0.67142  0.56019  1.0000
  C   C850      1.0  0.82157  0.61767  0.62943  1.0000
  H   H1350     1.0  0.80406  0.39791  0.67187  1.0000
  H   H1351     1.0  0.90597  0.35602  0.63805  1.0000
  S   S341      1.0  0.98039  0.66945  0.00641  1.0000
  C   C851      1.0  0.77585  0.37854  0.66878  1.0000
  H   H1352     1.0  0.92846  0.43922  0.76683  1.0000
  H   H1353     1.0  0.88578  0.50552  0.94293  1.0000
  H   H1354     1.0  0.85579  0.54618  0.98046  1.0000
  H   H1355     1.0  0.80197  0.53782  0.59174  1.0000
  H   H1356     1.0  0.95622  0.44007  0.76682  1.0000
  H   H1357     1.0  0.94240  0.41795  0.70699  1.0000
  H   H1358     1.0  0.86443  0.40535  0.96700  1.0000
  C   C852      1.0  0.79743  0.38098  0.67179  1.0000
  H   H1359     1.0  0.84880  0.41351  0.00676  1.0000
  H   H1360     1.0  0.92810  0.43940  0.72328  1.0000
  C   C853      1.0  0.94246  0.42843  0.72341  1.0000
  H   H1361     1.0  0.86769  0.64006  0.61209  1.0000
  H   H1362     1.0  0.95585  0.44014  0.72203  1.0000
  C   C854      1.0  0.85307  0.63043  0.61032  1.0000
  H   H1363     1.0  0.76901  0.53219  0.55214  1.0000
  N   N85       1.0  0.94351  0.41370  0.74524  1.0000
  C   C855      1.0  0.96297  0.39986  0.74498  1.0000
  H   H1364     1.0  0.81172  0.62652  0.61562  1.0000
  C   C856      1.0  0.94285  0.42830  0.76652  1.0000
  H   H1365     1.0  0.96420  0.38840  0.76112  1.0000
  C   C857      1.0  0.85351  0.61793  0.65165  1.0000
  C   C858      1.0  0.92565  0.39819  0.74594  1.0000
  H   H1366     1.0  0.92552  0.38725  0.76251  1.0000
  H   H1367     1.0  0.92584  0.38664  0.73035  1.0000
  H   H1368     1.0  0.88755  0.36530  0.01270  1.0000
  N   N86       1.0  0.79916  0.51767  0.56016  1.0000
  H   H1369     1.0  0.84500  0.61719  0.66902  1.0000
  H   H1370     1.0  0.80363  0.49578  0.59132  1.0000
  H   H1371     1.0  0.90895  0.38170  0.00137  1.0000
  N   N87       1.0  0.84112  0.62997  0.63292  1.0000
  H   H1372     1.0  0.83700  0.52584  0.97108  1.0000
  H   H1373     1.0  0.82700  0.66331  0.62629  1.0000
  C   C859      1.0  0.88908  0.42252  0.99961  1.0000
  H   H1374     1.0  0.81229  0.61659  0.64623  1.0000
  H   H1375     1.0  0.82548  0.49703  0.57149  1.0000
  H   H1376     1.0  0.77947  0.43828  0.00734  1.0000
  H   H1377     1.0  0.76383  0.34635  0.72102  1.0000
  H   H1378     1.0  0.80099  0.50343  0.52504  1.0000
  S   S342      1.0  0.77496  0.57588  0.52709  1.0000
  H   H1379     1.0  0.00008  0.37518  0.98510  1.0000
  H   H1380     1.0  0.82319  0.54011  0.57107  1.0000
  C   C860      1.0  0.99295  0.34852  0.66260  1.0000
  C   C861      1.0  0.76688  0.35669  0.66849  1.0000
  H   H1381     1.0  0.79958  0.53420  0.52537  1.0000
  C   C862      1.0  0.97287  0.35188  0.67245  1.0000
  H   H1382     1.0  0.76606  0.39373  0.66656  1.0000
  S   S343      1.0  0.98219  0.67262  0.93628  1.0000
  H   H1383     1.0  0.85568  0.66983  0.51984  1.0000
  H   H1384     1.0  0.96219  0.99508  0.50309  1.0000
  C   C863      1.0  0.96125  0.00026  0.48385  1.0000
  S   S344      1.0  0.97535  0.87437  0.47335  1.0000
  Fe  Fe171     1.0  0.95305  0.89107  0.49926  1.0000
  S   S345      1.0  0.93128  0.92230  0.49609  1.0000
  Fe  Fe172     1.0  0.96404  0.84044  0.48841  1.0000
  S   S346      1.0  0.95741  0.80507  0.47340  1.0000
  H   H1385     1.0  0.92522  0.92544  0.06339  1.0000
  H   H1386     1.0  0.90477  0.98593  0.06636  1.0000
  Fe  Fe173     1.0  0.97095  0.71380  0.37253  1.0000
  S   S347      1.0  0.97769  0.75186  0.37709  1.0000
  S   S348      1.0  0.98027  0.69422  0.33930  1.0000
  C   C864      1.0  0.83151  0.67707  0.24838  1.0000
  H   H1387     1.0  0.80222  0.84642  0.06932  1.0000
  H   H1388     1.0  0.87135  0.81482  0.18364  1.0000
  S   S349      1.0  0.86584  0.71533  0.15982  1.0000
  C   C865      1.0  0.85744  0.98603  0.08671  1.0000
  C   C866      1.0  0.89215  0.68730  0.09632  1.0000
  S   S350      1.0  0.82504  0.71641  0.19503  1.0000
  H   H1389     1.0  0.77667  0.84824  0.08204  1.0000
  Fe  Fe174     1.0  0.83245  0.72701  0.15701  1.0000
  S   S351      1.0  0.82278  0.76449  0.14923  1.0000
  Fe  Fe175     1.0  0.85792  0.70316  0.19727  1.0000
  S   S352      1.0  0.87582  0.71646  0.22926  1.0000
  S   S353      1.0  0.82094  0.69350  0.14272  1.0000
  C   C867      1.0  0.83177  0.67826  0.48160  1.0000
  Fe  Fe176     1.0  0.83919  0.86755  0.05130  1.0000
  S   S354      1.0  0.86610  0.89121  0.05217  1.0000
  S   S355      1.0  0.84363  0.82898  0.05877  1.0000
  H   H1390     1.0  0.84673  0.80319  0.17607  1.0000
  C   C868      1.0  0.84511  0.77196  0.21196  1.0000
  H   H1391     1.0  0.87111  0.79804  0.23629  1.0000
  Fe  Fe177     1.0  0.84395  0.91880  0.06482  1.0000
  S   S356      1.0  0.85380  0.93899  0.09765  1.0000
  H   H1392     1.0  0.85209  0.71032  0.50547  1.0000
  S   S357      1.0  0.81745  0.89397  0.06676  1.0000
  S   S358      1.0  0.93107  0.68475  0.03914  1.0000
  C   C869      1.0  0.85866  0.96839  0.10411  1.0000
  H   H1393     1.0  0.88312  0.77048  0.23109  1.0000
  C   C870      1.0  0.86512  0.97390  0.12726  1.0000
  C   C871      1.0  0.85767  0.80569  0.19112  1.0000
  H   H1394     1.0  0.86614  0.96049  0.14093  1.0000
  C   C872      1.0  0.82975  0.78228  0.12437  1.0000
  C   C873      1.0  0.83913  0.77340  0.10389  1.0000
  C   C874      1.0  0.84351  0.78805  0.08415  1.0000
  C   C875      1.0  0.83888  0.81174  0.08477  1.0000
  C   C876      1.0  0.82997  0.82073  0.10550  1.0000
  C   C877      1.0  0.82522  0.80602  0.12507  1.0000
  H   H1395     1.0  0.84268  0.75519  0.10307  1.0000
  H   H1396     1.0  0.85047  0.78091  0.06825  1.0000
  H   H1397     1.0  0.82649  0.83895  0.10635  1.0000
  H   H1398     1.0  0.81792  0.81306  0.14082  1.0000
  H   H1399     1.0  0.89818  0.92318  0.07073  1.0000
  H   H1400     1.0  0.79892  0.80209  0.04486  1.0000
  H   H1401     1.0  0.82737  0.69030  0.26170  1.0000
  H   H1402     1.0  0.84978  0.81720  0.20407  1.0000
  N   N88       1.0  0.86379  0.78343  0.20249  1.0000
  H   H1403     1.0  0.96177  0.67712  0.12622  1.0000
  H   H1404     1.0  0.85210  0.98237  0.06898  1.0000
  C   C878      1.0  0.89084  0.70204  0.25187  1.0000
  C   C879      1.0  0.89967  0.71504  0.26997  1.0000
  C   C880      1.0  0.91142  0.70440  0.28849  1.0000
  S   S359      1.0  0.83623  0.93149  0.02755  1.0000
  S   S360      1.0  0.93969  0.85724  0.51163  1.0000
  C   C881      1.0  0.96293  0.79103  0.44614  1.0000
  C   C882      1.0  0.97062  0.80260  0.42584  1.0000
  C   C883      1.0  0.97512  0.79039  0.40485  1.0000
  C   C884      1.0  0.97180  0.76660  0.40383  1.0000
  C   C885      1.0  0.96403  0.75511  0.42411  1.0000
  C   C886      1.0  0.95965  0.76726  0.44509  1.0000
  H   H1405     1.0  0.97272  0.82095  0.42613  1.0000
  H   H1406     1.0  0.98092  0.79946  0.38917  1.0000
  H   H1407     1.0  0.96137  0.73683  0.42359  1.0000
  C   C887      1.0  0.77385  0.85323  0.03456  1.0000
  C   C888      1.0  0.92796  0.94204  0.47188  1.0000
  C   C889      1.0  0.91371  0.96042  0.47444  1.0000
  C   C890      1.0  0.91048  0.97664  0.45576  1.0000
  C   C891      1.0  0.92146  0.97460  0.43429  1.0000
  C   C892      1.0  0.93575  0.95627  0.43168  1.0000
  C   C893      1.0  0.93907  0.94007  0.45044  1.0000
  H   H1408     1.0  0.90497  0.96194  0.49092  1.0000
  S   S361      1.0  0.98505  0.68718  0.39725  1.0000
  H   H1409     1.0  0.94426  0.95452  0.41508  1.0000
  H   H1410     1.0  0.95004  0.92596  0.44828  1.0000
  N   N89       1.0  0.85448  0.68102  0.48293  1.0000
  H   H1411     1.0  0.82473  0.69000  0.46780  1.0000
  C   C894      1.0  0.87407  0.76882  0.18452  1.0000
  H   H1412     1.0  0.91425  0.98044  0.32796  1.0000
  Fe  Fe178     1.0  0.81626  0.68203  0.18107  1.0000
  C   C895      1.0  0.87050  0.99657  0.13293  1.0000
  H   H1413     1.0  0.86354  0.76557  0.16933  1.0000
  C   C896      1.0  0.78739  0.83714  0.07150  1.0000
  Fe  Fe179     1.0  0.81085  0.90508  0.02850  1.0000
  H   H1414     1.0  0.91035  0.71099  0.07513  1.0000
  H   H1415     1.0  0.83381  0.76878  0.19753  1.0000
  N   N90       1.0  0.77856  0.83166  0.04806  1.0000
  H   H1416     1.0  0.79085  0.82127  0.08237  1.0000
  H   H1417     1.0  0.80795  0.82760  0.03012  1.0000
  H   H1418     1.0  0.85291  0.71711  0.47396  1.0000
  H   H1419     1.0  0.76245  0.80218  0.06179  1.0000
  H   H1420     1.0  0.91808  0.71464  0.30228  1.0000
  H   H1421     1.0  0.78808  0.86344  0.03153  1.0000
  S   S362      1.0  0.77582  0.91090  0.02285  1.0000
  H   H1422     1.0  0.88820  0.77695  0.17694  1.0000
  C   C897      1.0  0.90570  0.69333  0.07748  1.0000
  H   H1423     1.0  0.87288  0.95056  0.05342  1.0000
  H   H1424     1.0  0.98599  0.67788  0.07900  1.0000
  C   C898      1.0  0.90929  0.92862  0.05641  1.0000
  H   H1425     1.0  0.94141  0.98663  0.33013  1.0000
  C   C899      1.0  0.91328  0.67665  0.06175  1.0000
  H   H1426     1.0  0.92449  0.96628  0.07756  1.0000
  H   H1427     1.0  0.89267  0.79566  0.21584  1.0000
  N   N91       1.0  0.90584  0.95302  0.04941  1.0000
  H   H1428     1.0  0.76263  0.86445  0.04432  1.0000
  S   S363      1.0  0.93869  0.69959  0.37500  1.0000
  H   H1429     1.0  0.89785  0.96212  0.08539  1.0000
  C   C900      1.0  0.88461  0.95619  0.04001  1.0000
  H   H1430     1.0  0.87890  0.75186  0.19245  1.0000
  H   H1431     1.0  0.89742  0.73350  0.26973  1.0000
  H   H1432     1.0  0.90708  0.91717  0.04097  1.0000
  H   H1433     1.0  0.89919  0.99045  0.45782  1.0000
  Fe  Fe180     1.0  0.99765  0.87338  0.50448  1.0000
  H   H1434     1.0  0.83698  0.78248  0.22559  1.0000
  H   H1435     1.0  0.95075  0.98801  0.47521  1.0000
  C   C901      1.0  0.90841  0.96749  0.07053  1.0000
  C   C902      1.0  0.85911  0.70515  0.48811  1.0000
  C   C903      1.0  0.87831  0.78714  0.22230  1.0000
  H   H1436     1.0  0.88230  0.94594  0.02372  1.0000
  S   S364      1.0  0.91777  0.99473  0.41048  1.0000
  Fe  Fe181     1.0  0.85409  0.68122  0.14825  1.0000
  H   H1437     1.0  0.84910  0.75502  0.22050  1.0000
  H   H1438     1.0  0.00623  0.78635  0.45640  1.0000
  C   C904      1.0  0.01111  0.83219  0.45509  1.0000
  H   H1439     1.0  0.87614  0.70778  0.48910  1.0000
  H   H1440     1.0  0.95366  0.75814  0.46064  1.0000
  H   H1441     1.0  0.88641  0.70025  0.10838  1.0000
  H   H1442     1.0  0.82405  0.68185  0.49906  1.0000
  Fe  Fe182     1.0  0.94863  0.67841  0.34331  1.0000
  H   H1443     1.0  0.91867  0.97800  0.02496  1.0000
  C   C905      1.0  0.79375  0.81770  0.03445  1.0000
  H   H1444     1.0  0.88136  0.67573  0.46043  1.0000
  C   C906      1.0  0.92093  0.95967  0.03063  1.0000
  H   H1445     1.0  0.84748  0.68068  0.24186  1.0000
  H   H1446     1.0  0.99580  0.82722  0.46263  1.0000
  H   H1447     1.0  0.82084  0.67959  0.23295  1.0000
  H   H1448     1.0  0.00910  0.83514  0.43553  1.0000
  H   H1449     1.0  0.93716  0.95739  0.03699  1.0000
  C   C907      1.0  0.89396  0.67819  0.25247  1.0000
  C   C908      1.0  0.92585  0.99016  0.33810  1.0000
  C   C909      1.0  0.91439  0.68053  0.28925  1.0000
  H   H1450     1.0  0.88108  0.97451  0.03528  1.0000
  H   H1451     1.0  0.85859  0.68618  0.44496  1.0000
  H   H1452     1.0  0.97691  0.99775  0.47576  1.0000
  H   H1453     1.0  0.87556  0.00040  0.15076  1.0000
  H   H1454     1.0  0.95859  0.68396  0.08242  1.0000
  H   H1455     1.0  0.92599  0.98298  0.35677  1.0000
  H   H1456     1.0  0.76718  0.84995  0.01671  1.0000
  H   H1457     1.0  0.78724  0.81212  0.01723  1.0000
  H   H1458     1.0  0.99777  0.80341  0.79916  1.0000
  S   S365      1.0  0.95843  0.84442  0.57789  1.0000
  H   H1459     1.0  0.90559  0.87624  0.78720  1.0000
  C   C910      1.0  0.91781  0.79143  0.57534  1.0000
  Fe  Fe183     1.0  0.81765  0.80238  0.66915  1.0000
  S   S366      1.0  0.83387  0.77246  0.68824  1.0000
  S   S367      1.0  0.78234  0.80710  0.66530  1.0000
  Fe  Fe184     1.0  0.85861  0.82031  0.64936  1.0000
  S   S368      1.0  0.87798  0.79249  0.66729  1.0000
  S   S369      1.0  0.86743  0.84738  0.62166  1.0000
  Fe  Fe185     1.0  0.85330  0.76846  0.65482  1.0000
  S   S370      1.0  0.86571  0.73558  0.63728  1.0000
  Fe  Fe186     1.0  0.85747  0.79840  0.69949  1.0000
  S   S371      1.0  0.86604  0.79882  0.73934  1.0000
  S   S372      1.0  0.83542  0.79608  0.63504  1.0000
  S   S373      1.0  0.83986  0.82839  0.68233  1.0000
  Fe  Fe187     1.0  0.96397  0.85747  0.53992  1.0000
  H   H1460     1.0  0.92085  0.85476  0.80306  1.0000
  S   S374      1.0  0.88620  0.90653  0.99172  1.0000
  Fe  Fe188     1.0  0.95586  0.81742  0.83636  1.0000
  S   S375      1.0  0.95594  0.85487  0.84443  1.0000
  S   S376      1.0  0.95061  0.81114  0.79667  1.0000
  Fe  Fe189     1.0  0.97058  0.80465  0.88739  1.0000
  S   S377      1.0  0.97236  0.84196  0.89758  1.0000
  S   S378      1.0  0.97508  0.78132  0.92032  1.0000
  Fe  Fe190     1.0  0.94131  0.84543  0.87978  1.0000
  S   S379      1.0  0.91006  0.85972  0.89279  1.0000
  Fe  Fe191     1.0  0.98727  0.84779  0.86123  1.0000
  S   S380      1.0  0.93907  0.80821  0.87055  1.0000
  S   S381      1.0  0.98759  0.81031  0.85231  1.0000
  C   C911      1.0  0.89266  0.89170  0.96515  1.0000
  C   C912      1.0  0.91355  0.89037  0.95769  1.0000
  C   C913      1.0  0.91923  0.88007  0.93595  1.0000
  C   C914      1.0  0.90399  0.87146  0.92112  1.0000
  C   C915      1.0  0.88313  0.87262  0.92864  1.0000
  C   C916      1.0  0.87751  0.88239  0.95067  1.0000
  H   H1461     1.0  0.92539  0.89765  0.96864  1.0000
  H   H1462     1.0  0.93532  0.87950  0.93034  1.0000
  H   H1463     1.0  0.87118  0.86609  0.91731  1.0000
  H   H1464     1.0  0.86137  0.88345  0.95605  1.0000
  C   C917      1.0  0.97849  0.70269  0.93164  1.0000
  C   C918      1.0  0.98111  0.71239  0.90858  1.0000
  C   C919      1.0  0.97948  0.73639  0.90455  1.0000
  C   C920      1.0  0.97571  0.75093  0.92372  1.0000
  C   C921      1.0  0.97311  0.74120  0.94676  1.0000
  C   C922      1.0  0.97421  0.71723  0.95067  1.0000
  H   H1465     1.0  0.78794  0.85216  0.68720  1.0000
  H   H1466     1.0  0.98163  0.74362  0.88675  1.0000
  H   H1467     1.0  0.97030  0.75228  0.96174  1.0000
  H   H1468     1.0  0.82530  0.83930  0.60207  1.0000
  C   C923      1.0  0.89004  0.80141  0.75458  1.0000
  C   C924      1.0  0.90835  0.80785  0.74287  1.0000
  C   C925      1.0  0.92676  0.81053  0.75598  1.0000
  C   C926      1.0  0.92713  0.80684  0.78093  1.0000
  C   C927      1.0  0.90895  0.80001  0.79259  1.0000
  C   C928      1.0  0.89050  0.79750  0.77952  1.0000
  H   H1469     1.0  0.90828  0.81088  0.72372  1.0000
  H   H1470     1.0  0.94076  0.81559  0.74668  1.0000
  H   H1471     1.0  0.90916  0.79638  0.81162  1.0000
  H   H1472     1.0  0.87651  0.79221  0.78871  1.0000
  C   C929      1.0  0.85395  0.71824  0.61561  1.0000
  C   C930      1.0  0.83363  0.72224  0.60776  1.0000
  H   H1473     1.0  0.00666  0.84151  0.74609  1.0000
  C   C931      1.0  0.86548  0.69981  0.60601  1.0000
  H   H1474     1.0  0.82455  0.73635  0.61492  1.0000
  H   H1475     1.0  0.80202  0.84208  0.58459  1.0000
  H   H1476     1.0  0.88129  0.69670  0.61178  1.0000
  C   C932      1.0  0.93336  0.84694  0.59049  1.0000
  C   C933      1.0  0.92965  0.83758  0.61344  1.0000
  C   C934      1.0  0.90954  0.83788  0.62332  1.0000
  C   C935      1.0  0.89305  0.84777  0.61039  1.0000
  C   C936      1.0  0.89683  0.85765  0.58771  1.0000
  C   C937      1.0  0.91690  0.85714  0.57772  1.0000
  H   H1477     1.0  0.94237  0.82985  0.62348  1.0000
  H   H1478     1.0  0.90684  0.83054  0.64098  1.0000
  H   H1479     1.0  0.88418  0.86550  0.57766  1.0000
  H   H1480     1.0  0.91963  0.86461  0.56014  1.0000
  C   C938      1.0  0.81101  0.86135  0.64030  1.0000
  H   H1481     1.0  0.80666  0.89908  0.61249  1.0000
  H   H1482     1.0  0.89681  0.76046  0.55069  1.0000
  H   H1483     1.0  0.89874  0.84665  0.78616  1.0000
  H   H1484     1.0  0.78301  0.91334  0.97077  1.0000
  N   N92       1.0  0.91948  0.80521  0.95370  1.0000
  C   C939      1.0  0.92141  0.78391  0.93989  1.0000
  C   C940      1.0  0.89927  0.81664  0.94862  1.0000
  C   C941      1.0  0.93637  0.82087  0.94675  1.0000
  C   C942      1.0  0.92091  0.79946  0.97951  1.0000
  H   H1485     1.0  0.93617  0.77444  0.94399  1.0000
  H   H1486     1.0  0.92144  0.78767  0.92029  1.0000
  H   H1487     1.0  0.90853  0.77199  0.94398  1.0000
  H   H1488     1.0  0.89739  0.83287  0.95865  1.0000
  H   H1489     1.0  0.89774  0.82119  0.92925  1.0000
  H   H1490     1.0  0.88611  0.80542  0.95372  1.0000
  H   H1491     1.0  0.93560  0.82571  0.92742  1.0000
  H   H1492     1.0  0.95191  0.81273  0.95000  1.0000
  H   H1493     1.0  0.93551  0.83705  0.95694  1.0000
  H   H1494     1.0  0.91936  0.81513  0.99048  1.0000
  H   H1495     1.0  0.93609  0.79098  0.98391  1.0000
  H   H1496     1.0  0.90849  0.78749  0.98533  1.0000
  H   H1497     1.0  0.77433  0.87982  0.62816  1.0000
  H   H1498     1.0  0.77268  0.84926  0.62649  1.0000
  H   H1499     1.0  0.80620  0.84540  0.64989  1.0000
  H   H1500     1.0  0.99066  0.80917  0.76880  1.0000
  C   C943      1.0  0.77204  0.85104  0.68143  1.0000
  H   H1501     1.0  0.80448  0.88453  0.58461  1.0000
  N   N93       1.0  0.89132  0.86286  0.81939  1.0000
  C   C944      1.0  0.89170  0.84138  0.83400  1.0000
  C   C945      1.0  0.89898  0.88186  0.83381  1.0000
  C   C946      1.0  0.86982  0.86813  0.81173  1.0000
  C   C947      1.0  0.90472  0.86005  0.79806  1.0000
  H   H1502     1.0  0.88494  0.82693  0.82420  1.0000
  H   H1503     1.0  0.88275  0.84332  0.85094  1.0000
  H   H1504     1.0  0.90783  0.83621  0.83904  1.0000
  H   H1505     1.0  0.91508  0.87829  0.84009  1.0000
  H   H1506     1.0  0.89901  0.89839  0.82344  1.0000
  H   H1507     1.0  0.88927  0.88437  0.85013  1.0000
  H   H1508     1.0  0.86893  0.88426  0.80068  1.0000
  H   H1509     1.0  0.85925  0.87021  0.82737  1.0000
  H   H1510     1.0  0.86363  0.85411  0.80071  1.0000
  H   H1511     1.0  0.92717  0.78346  0.56083  1.0000
  N   N94       1.0  0.80227  0.86269  0.61599  1.0000
  H   H1512     1.0  0.80183  0.82604  0.61240  1.0000
  H   H1513     1.0  0.88157  0.80366  0.59582  1.0000
  H   H1514     1.0  0.77651  0.00513  0.55388  1.0000
  H   H1515     1.0  0.77226  0.86651  0.59957  1.0000
  C   C948      1.0  0.77940  0.86474  0.61755  1.0000
  H   H1516     1.0  0.91097  0.80780  0.56795  1.0000
  H   H1517     1.0  0.89892  0.79250  0.61840  1.0000
  H   H1518     1.0  0.98863  0.84340  0.80911  1.0000
  H   H1519     1.0  0.80585  0.87617  0.65120  1.0000
  C   C949      1.0  0.88915  0.78767  0.60309  1.0000
  C   C950      1.0  0.76647  0.91411  0.97416  1.0000
  H   H1520     1.0  0.92881  0.79610  0.58960  1.0000
  H   H1521     1.0  0.82826  0.86111  0.63989  1.0000
  S   S382      1.0  0.97612  0.89222  0.52929  1.0000
  C   C951      1.0  0.76518  0.83075  0.67142  1.0000
  N   N95       1.0  0.90162  0.77588  0.58466  1.0000
  N   N96       1.0  0.01164  0.83347  0.78331  1.0000
  C   C952      1.0  0.88793  0.76942  0.56496  1.0000
  H   H1522     1.0  0.88024  0.78488  0.55659  1.0000
  H   H1523     1.0  0.92167  0.75929  0.61057  1.0000
  H   H1524     1.0  0.92119  0.74569  0.58207  1.0000
  C   C953      1.0  0.91149  0.75499  0.59537  1.0000
  H   H1525     1.0  0.89967  0.74289  0.60254  1.0000
  H   H1526     1.0  0.87550  0.75774  0.57151  1.0000
  H   H1527     1.0  0.87669  0.77650  0.61038  1.0000
  H   H1528     1.0  0.80910  0.71098  0.58496  1.0000
  C   C954      1.0  0.83629  0.68912  0.58148  1.0000
  H   H1529     1.0  0.98446  0.70129  0.89375  1.0000
  C   C955      1.0  0.82490  0.70778  0.59077  1.0000
  C   C956      1.0  0.80812  0.84162  0.60313  1.0000
  H   H1530     1.0  0.98136  0.84915  0.77877  1.0000
  C   C957      1.0  0.81067  0.88294  0.60309  1.0000
  H   H1531     1.0  0.82794  0.88170  0.60170  1.0000
  H   H1532     1.0  0.97208  0.71004  0.96849  1.0000
  C   C958      1.0  0.85678  0.68543  0.58894  1.0000
  C   C959      1.0  0.00378  0.80988  0.78161  1.0000
  H   H1533     1.0  0.00005  0.86691  0.79312  1.0000
  C   C960      1.0  0.99468  0.84897  0.79132  1.0000
  H   H1534     1.0  0.76385  0.88566  0.69151  1.0000
  S   S383      1.0  0.98763  0.83870  0.51776  1.0000
  H   H1535     1.0  0.01019  0.69294  0.97382  1.0000
  S   S384      1.0  0.83116  0.87696  0.01309  1.0000
  H   H1536     1.0  0.91921  0.94903  0.01446  1.0000
  Fe  Fe192     1.0  0.85708  0.90225  0.01491  1.0000
