data_image0
_chemical_formula_structural       FeS2FeS2FeSFeS3FeS2FeS2FeSFeS3FeS2FeS2FeSFeS3FeS2FeS2FeSFeS3FeS2FeS2FeSFeS3FeS2FeS2FeSFeS3FeS2FeS2FeSFeS3FeS2FeS2FeSFeS3FeS2FeS2FeSFeS3FeS2FeS2FeSFeS3FeS2FeS2FeSFeS3FeS2FeS2FeSFeS3FeS2FeS2FeSFeS3FeS2FeS2FeSFeS3FeS2FeS2FeSFeS3FeS2FeS2FeSFeS3FeS2FeS2FeSFeS3FeS2FeS2FeSFeS3FeS2FeS2FeSFeS3FeS2FeS2FeSFeS3FeS2FeS2FeSFeS3FeS2FeS2FeSFeS3FeS2FeS2FeSFeS3FeS2FeS2FeSFeS3C6H4C6H4C6H4C6H4C6H4C6H4C6H4C6H4C6H4C6H4C6H4C6H4C6H4C6H4C6H4C6H4C6H4C6H4C6H4C6H4C6H4C6H4C6H4C6H4C6H4C6H4C6H4C6H4C6H4C6H4C6H4C6H4C6H4C6H4C6H4C6H4C6H4C6H4C6H4C6H4C6H4C6H4C6H4C6H4C6H4C6H4C6H4C6H4NC4H12NC4H12NC4H12NC4H12NC4H12NC4H12NC4H12NC4H12NC4H12NC4H12NC4H12NC4H12NC4H12NC4H12NC4H12NC4H12NC4H12NC4H12NC4H12NC4H12NC4H12NC4H12NC4H12NC4H12NC4H12NC4H12NC4H12NC4H12NC4H12NC4H12NC4H12NC4H12NC4H12NC4H12NC4H12NC4H12NC4H12NC4H12NC4H12NC4H12NC4H12NC4H12NC4H12NC4H12NC4H12NC4H12NC4H12NC4H12
_chemical_formula_sum              "Fe96 S192 C480 H768 N48"
_cell_length_a       29.932973963557085
_cell_length_b       54.10327645280807
_cell_length_c       52.042634679050934
_cell_angle_alpha    90.08514651671886
_cell_angle_beta     95.77335071540664
_cell_angle_gamma    90.0336211520205

_space_group_name_H-M_alt    "P 1"
_space_group_IT_number       1

loop_
  _space_group_symop_operation_xyz
  'x, y, z'

loop_
  _atom_site_type_symbol
  _atom_site_label
  _atom_site_symmetry_multiplicity
  _atom_site_fract_x
  _atom_site_fract_y
  _atom_site_fract_z
  _atom_site_occupancy
  Fe  Fe1       1.0  0.24254595079647487  0.05493611641572138  0.03226325288024334  1.0000
  S   S1        1.0  0.2626836553181211  0.0499376396692944  0.07484690062083493  1.0000
  S   S2        1.0  0.1861100835364583  0.08229340891930617  0.022770793122094624  1.0000
  Fe  Fe2       1.0  0.30606714183018385  0.014585895176870478  0.01729719502529159  1.0000
  S   S3        1.0  0.33031485593851856  0.006593525684108759  0.05843785871568014  1.0000
  S   S4        1.0  0.33043325124164347  0.9897816629716393  0.9866381963321695  1.0000
  Fe  Fe3       1.0  0.25837778563522323  0.009382376802934411  0.06605230256026068  1.0000
  S   S5        1.0  0.22920384869788277  0.9781778793849688  0.08775525660027395  1.0000
  Fe  Fe4       1.0  0.3326983535178301  0.047679155779335375  0.0631702316738425  1.0000
  S   S6        1.0  0.3948647937662357  0.061954919436516376  0.08637666035637274  1.0000
  S   S7        1.0  0.2332603766394083  0.014351692322206455  0.024384794504291207  1.0000
  S   S8        1.0  0.3134810336419397  0.05589492219362957  0.02118836647362743  1.0000
  Fe  Fe5       1.0  0.8633405345775528  0.5622311342732892  0.5285798141194126  1.0000
  S   S9        1.0  0.8501686579424218  0.5664069930595391  0.5700921196009476  1.0000
  S   S10       1.0  0.9164172831182351  0.579592015318083  0.5065091852557433  1.0000
  Fe  Fe6       1.0  0.7988889650346526  0.5186406918283056  0.5191475056033901  1.0000
  S   S11       1.0  0.780451836035068  0.5183623960524713  0.5599180861696691  1.0000
  S   S12       1.0  0.7749164246758053  0.4948279026333994  0.4849559016503956  1.0000
  Fe  Fe7       1.0  0.7778458771521342  0.5597178175842138  0.5557491257245829  1.0000
  S   S13       1.0  0.7166320211139701  0.5782677719071748  0.568837062501955  1.0000
  Fe  Fe8       1.0  0.8538370071637529  0.5249912678368658  0.5713016347276433  1.0000
  S   S14       1.0  0.8977988089143272  0.5092367664013747  0.6047627023901869  1.0000
  S   S15       1.0  0.7903742412857244  0.5595054053131447  0.5138834574109915  1.0000
  S   S16       1.0  0.8726605524931595  0.5212110882495669  0.531068482285427  1.0000
  Fe  Fe9       1.0  0.7694960971203872  0.4989118934004208  0.934420069422392  1.0000
  S   S17       1.0  0.7230358111713941  0.47776381387559846  0.9062098723593156  1.0000
  S   S18       1.0  0.8420167912311245  0.4883653273033325  0.9454656974672015  1.0000
  Fe  Fe10      1.0  0.6986735816310919  0.5384870472631539  0.9418114100895355  1.0000
  S   S19       1.0  0.6462430063622795  0.5198825242167264  0.9141636289523185  1.0000
  S   S20       1.0  0.6815212834996214  0.5761706161887482  0.9569840053970762  1.0000
  Fe  Fe11      1.0  0.6714695784562079  0.4848794864235229  0.9339902298780234  1.0000
  S   S21       1.0  0.6346118406559619  0.4512714203340191  0.9467828950362609  1.0000
  Fe  Fe12      1.0  0.7025060564349661  0.5147102077061289  0.8891423927318071  1.0000
  S   S22       1.0  0.7043576750882526  0.5215928079655502  0.8463472043979695  1.0000
  S   S23       1.0  0.7196443146579447  0.5039323522269352  0.9635560150540888  1.0000
  S   S24       1.0  0.7532371119164821  0.5354235249806559  0.915435892892892  1.0000
  Fe  Fe13      1.0  0.3625168079863813  0.3909757635696141  0.029077504284413136  1.0000
  S   S25       1.0  0.42727269496839576  0.39100436402610855  0.010951936972958487  1.0000
  S   S26       1.0  0.3077994927692555  0.3664459319228326  0.009513445515370256  1.0000
  Fe  Fe14      1.0  0.40361411533786623  0.4204921738338745  0.07586171907361111  1.0000
  S   S27       1.0  0.47189158696159084  0.4223641215611748  0.06143324247679873  1.0000
  S   S28       1.0  0.39047630200702965  0.4337676262916934  0.11545612437424514  1.0000
  Fe  Fe15      1.0  0.4329232408154061  0.43066218573887066  0.023240295583960124  1.0000
  S   S29       1.0  0.4502519557918219  0.46110858489016293  0.9962766377864556  1.0000
  Fe  Fe16      1.0  0.4600447946146443  0.382459661453833  0.050635016424967594  1.0000
  S   S30       1.0  0.5101903412142904  0.351043624238885  0.05362959731083826  1.0000
  S   S31       1.0  0.36495176249584216  0.4315439739868429  0.03843231940730241  1.0000
  S   S32       1.0  0.3949202908663485  0.37989348727625916  0.06805650035290409  1.0000
  Fe  Fe17      1.0  0.010531833855525807  0.34354969748802516  0.6360782492107914  1.0000
  S   S33       1.0  0.9536688277405394  0.34181236411117516  0.6609542898462142  1.0000
  S   S34       1.0  0.021664274627798852  0.3143894855019611  0.6061046411121886  1.0000
  Fe  Fe18      1.0  0.04126082407589671  0.39455063821448755  0.6566612527328396  1.0000
  S   S35       1.0  0.9864656501906497  0.39633627345818145  0.6830971781661177  1.0000
  S   S36       1.0  0.08160499521382525  0.4298554579918582  0.6598546025418888  1.0000
  Fe  Fe19      1.0  0.003717383187753054  0.35686197375268225  0.692159274463767  1.0000
  S   S37       1.0  0.014359516185180832  0.340637966088494  0.7323152394707279  1.0000
  Fe  Fe20      1.0  0.9423200881602077  0.3814507614391098  0.64928548426466  1.0000
  S   S38       1.0  0.8750477534233438  0.39668520483642133  0.6336395903652312  1.0000
  S   S39       1.0  0.06202280799165151  0.35585568550559604  0.6681074980342461  1.0000
  S   S40       1.0  0.9957546386442426  0.38235669394741967  0.6222175966981784  1.0000
  Fe  Fe21      1.0  0.9892697783984643  0.3794178146549075  0.9105457833879886  1.0000
  S   S41       1.0  0.028145289624997627  0.41304692527446074  0.9016039117861231  1.0000
  S   S42       1.0  0.9183089329380697  0.3821102395334905  0.9219162453779174  1.0000
  Fe  Fe22      1.0  0.05779585952601174  0.3445300282333517  0.8901202801073841  1.0000
  S   S43       1.0  0.10178979154671865  0.3758567509755431  0.8792893899400864  1.0000
  S   S44       1.0  0.07822429489742078  0.3064614301151445  0.8773607003886738  1.0000
  Fe  Fe23      1.0  0.08925920156457225  0.3917776060990547  0.9177977353777631  1.0000
  S   S45       1.0  0.14205470755332497  0.4144043659493852  0.9417158648980758  1.0000
  Fe  Fe24      1.0  0.037460609146784396  0.39421210907453447  0.8642752262111276  1.0000
  S   S46       1.0  0.022314032808866457  0.4145468773031415  0.8266999919768263  1.0000
  S   S47       1.0  0.04944983841071093  0.3591069962318592  0.9299837056386557  1.0000
  S   S48       1.0  0.9944402298978918  0.3618448059378925  0.8718342396014127  1.0000
  Fe  Fe25      1.0  0.06740882645528036  0.1318917058862974  0.8970438203038711  1.0000
  S   S49       1.0  0.020154831777226434  0.10455120621606513  0.8763186490869054  1.0000
  S   S50       1.0  0.13979364971757752  0.1222393055616786  0.9088762543324016  1.0000
  Fe  Fe26      1.0  0.9970867441720721  0.17191556664342397  0.8969446251183011  1.0000
  S   S51       1.0  0.9430713950077617  0.14805682995878788  0.8766878186080606  1.0000
  S   S52       1.0  0.982448976080724  0.20966326682569808  0.9127601802861574  1.0000
  Fe  Fe27      1.0  0.971042681572479  0.11791242602218854  0.9029311537800034  1.0000
  S   S53       1.0  0.9286742219823554  0.08827382494948693  0.9186377127289054  1.0000
  Fe  Fe28      1.0  0.9958505342714685  0.13646279008151843  0.8513561414499451  1.0000
  S   S54       1.0  0.9736861738554624  0.13388953307406087  0.8086493666921071  1.0000
  S   S55       1.0  0.02025204556041138  0.14259176103437632  0.9258711376370193  1.0000
  S   S56       1.0  0.047898933532635815  0.16293671736228896  0.8694286218378177  1.0000
  Fe  Fe29      1.0  0.1994042424375625  0.0470185828986531  0.4619051421521422  1.0000
  S   S57       1.0  0.14506191855521428  0.037023220554168505  0.4307515456671963  1.0000
  S   S58       1.0  0.20466851001625191  0.033996777473084716  0.5032262507300086  1.0000
  Fe  Fe30      1.0  0.2352587275191395  0.08945223353278364  0.43045329485436773  1.0000
  S   S59       1.0  0.18340284043810812  0.08297619573092058  0.396706580386413  1.0000
  S   S60       1.0  0.28097723541741226  0.12260480376621911  0.43846854350392445  1.0000
  Fe  Fe31      1.0  0.13457840230441706  0.07797673307878354  0.4264647364540862  1.0000
  S   S61       1.0  0.06444063575906253  0.09393443389385564  0.4224640917636954  1.0000
  Fe  Fe32      1.0  0.19838818281942067  0.04260203217031773  0.4038250828360682  1.0000
  S   S62       1.0  0.21032054531403258  0.015733806818752694  0.3718206035991608  1.0000
  S   S63       1.0  0.18493635836241107  0.08747647881939785  0.45943387221157983  1.0000
  S   S64       1.0  0.2542936206606365  0.04948670114501533  0.43563886466371776  1.0000
  Fe  Fe33      1.0  0.8717549117710864  0.14457793470787803  0.5385709208251981  1.0000
  S   S65       1.0  0.9342617113499966  0.16389803087016935  0.5549594786239538  1.0000
  S   S66       1.0  0.8672745914330561  0.10441618616957697  0.5499409113735801  1.0000
  Fe  Fe34      1.0  0.8406581831640885  0.18850225339291626  0.5048276262185001  1.0000
  S   S67       1.0  0.9019749155457374  0.211016464146186  0.5185329288223167  1.0000
  S   S68       1.0  0.7914394862533272  0.20889517836219873  0.47621525288210564  1.0000
  Fe  Fe35      1.0  0.9403343860712212  0.17580141569383134  0.514306316901547  1.0000
  S   S69       1.0  0.010813124982073097  0.1741160950278399  0.5025000710811173  1.0000
  Fe  Fe36      1.0  0.8907934705947337  0.19721695694245567  0.557857780868878  1.0000
  S   S70       1.0  0.894992532793338  0.2199617262796384  0.5946026585295946  1.0000
  S   S71       1.0  0.8804597919503876  0.15432721604457872  0.4972648649265989  1.0000
  S   S72       1.0  0.8267795554954315  0.17689673502381872  0.54483893707072  1.0000
  Fe  Fe37      1.0  0.5180353097687818  0.23740812867933273  0.1437157503148691  1.0000
  S   S73       1.0  0.45996258179702504  0.2140018206686916  0.1525787577594153  1.0000
  S   S74       1.0  0.5031006207410941  0.2779350177674043  0.1483232876958322  1.0000
  Fe  Fe38      1.0  0.5766345223658671  0.19213505005115378  0.13762251267224748  1.0000
  S   S75       1.0  0.5229251862913118  0.1654710522322916  0.14654628417228402  1.0000
  S   S76       1.0  0.6452670715760117  0.18005721728224008  0.12810072800410877  1.0000
  Fe  Fe39      1.0  0.47778766809867784  0.18974708333742882  0.12042711995588408  1.0000
  S   S77       1.0  0.4219149832127213  0.17730185815956592  0.09106844124459076  1.0000
  Fe  Fe40      1.0  0.5103022046521203  0.19234433875732762  0.17789661270455367  1.0000
  S   S78       1.0  0.4867598642483866  0.18035540786948018  0.21571316328970783  1.0000
  S   S79       1.0  0.5321299505819557  0.2148289269745263  0.10918115275208078  1.0000
  S   S80       1.0  0.5678662231653107  0.21723509950541658  0.17132730799718354  1.0000
  Fe  Fe41      1.0  0.4636088164387597  0.19315367629231397  0.37356527800349937  1.0000
  S   S81       1.0  0.5334126042257208  0.18067200340615605  0.3680213730915394  1.0000
  S   S82       1.0  0.4085611657875142  0.16615272212817223  0.3595701209567107  1.0000
  Fe  Fe42      1.0  0.49704452373689223  0.24238545124506308  0.3965134529717716  1.0000
  S   S83       1.0  0.5696027973560792  0.23374794962174997  0.3929492721471211  1.0000
  S   S84       1.0  0.4739125873621094  0.27671555720906377  0.4160915957748678  1.0000
  Fe  Fe43      1.0  0.5437930786120186  0.21900049170059988  0.3537993165232544  1.0000
  S   S85       1.0  0.5832757508327461  0.22492774219586237  0.31959056570676403  1.0000
  Fe  Fe44      1.0  0.5533066530140672  0.1961201501483358  0.4075141027165735  1.0000
  S   S86       1.0  0.5962653305908424  0.17146514312065014  0.4351456879670591  1.0000
  S   S87       1.0  0.4723220448604191  0.23065589073909898  0.3560447693291104  1.0000
  S   S88       1.0  0.4824769645348353  0.20563230732954496  0.4142929464572283  1.0000
  Fe  Fe45      1.0  0.5375274138136458  0.45059302124441347  0.4405582847075801  1.0000
  S   S89       1.0  0.4898777701115595  0.48122062964693835  0.4281627688834568  1.0000
  S   S90       1.0  0.5802695101867825  0.44890228730821896  0.47871335076161736  1.0000
  Fe  Fe46      1.0  0.5059093954176943  0.41800854786003694  0.39514904269810863  1.0000
  S   S91       1.0  0.45430162614741915  0.44546775931664223  0.3786025747591836  1.0000
  S   S92       1.0  0.5265752752852733  0.3826426378114726  0.3763006025876285  1.0000
  Fe  Fe47      1.0  0.5079500779270366  0.4739956513867363  0.38804880665521946  1.0000
  S   S93       1.0  0.5175196458524669  0.5080024039351603  0.36393212830927557  1.0000
  Fe  Fe48      1.0  0.4392937774736484  0.4510127136361673  0.41970362372270137  1.0000
  S   S94       1.0  0.36883305459126237  0.45624636407726105  0.430651479121523  1.0000
  S   S95       1.0  0.5611166620372222  0.4462828084554073  0.4013153626897439  1.0000
  S   S96       1.0  0.4853004910445258  0.42080262130212404  0.43526141828498244  1.0000
  Fe  Fe49      1.0  0.2572244186672849  0.4942399536628701  0.5876797959929171  1.0000
  S   S97       1.0  0.24727896615032544  0.5054621809300631  0.5459695706388675  1.0000
  S   S98       1.0  0.24425606279878484  0.45379994991385786  0.5950200107118231  1.0000
  Fe  Fe50      1.0  0.29144527075123067  0.545596093870374  0.6053227313164892  1.0000
  S   S99       1.0  0.28365253135789464  0.5607063833740312  0.5651296920713299  1.0000
  S   S100      1.0  0.3146522721228915  0.5720796285553876  0.6375568890148896  1.0000
  Fe  Fe51      1.0  0.21827634194122067  0.5400837580302451  0.5611477766171175  1.0000
  S   S101      1.0  0.15250592723350648  0.5569295045424881  0.5457425973921233  1.0000
  Fe  Fe52      1.0  0.31352873233508965  0.5246795002688177  0.5540527736475038  1.0000
  S   S102      1.0  0.37286245023295983  0.5228522620341749  0.5308412631184747  1.0000
  S   S103      1.0  0.22329664438947547  0.5276959878751779  0.6023378911681685  1.0000
  S   S104      1.0  0.32617402158525854  0.5108407483962938  0.5947365799851981  1.0000
  Fe  Fe53      1.0  0.822814171002124  0.08322286551151445  0.04240935411368052  1.0000
  S   S105      1.0  0.8005841588829848  0.08657400212816256  0.0819569482444522  1.0000
  S   S106      1.0  0.8565445995394217  0.11529390373714948  0.02506465959113857  1.0000
  Fe  Fe54      1.0  0.790953683005909  0.03065253622281294  0.0362768025580682  1.0000
  S   S107      1.0  0.766329883379712  0.02886342944580611  0.07569028512907613  1.0000
  S   S108      1.0  0.7804425420600066  0.0038062111170766855  0.0032666908090079882  1.0000
  Fe  Fe55      1.0  0.7383484152098133  0.0666457283077925  0.066222778569101  1.0000
  S   S109      1.0  0.6686272568261558  0.07525197481355235  0.07686593299815382  1.0000
  Fe  Fe56      1.0  0.830539715220436  0.04891699474203448  0.08882560337919478  1.0000
  S   S110      1.0  0.8696569495745506  0.047490446473240876  0.12824574207906006  1.0000
  S   S111      1.0  0.7575222168501803  0.06686800649705679  0.025791704511281655  1.0000
  S   S112      1.0  0.8581183527279371  0.047148567855862786  0.0502347590452309  1.0000
  Fe  Fe57      1.0  0.8533313503640382  0.04105703518125853  0.6802760831833965  1.0000
  S   S113      1.0  0.9258447566619211  0.029475506884025334  0.6828698565880063  1.0000
  S   S114      1.0  0.8227390908018415  0.076091189372734  0.6627088214397763  1.0000
  Fe  Fe58      1.0  0.8249742181546917  0.9972667751074842  0.711894376929611  1.0000
  S   S115      1.0  0.894698897322923  0.9819447758299059  0.7171579673453473  1.0000
  S   S116      1.0  0.7670712780945397  0.9834600469213085  0.7327746857757528  1.0000
  Fe  Fe59      1.0  0.9173408397373523  0.02109455554349582  0.7244024046943182  1.0000
  S   S117      1.0  0.9703917367460901  0.027397384396989462  0.7577408484889054  1.0000
  Fe  Fe60      1.0  0.8975825349920988  0.9913274424142801  0.6753757703231474  1.0000
  S   S118      1.0  0.9233066434965281  0.9621621988756478  0.6496766022459705  1.0000
  S   S119      1.0  0.8474398760484579  0.035862856611569294  0.7226030080329304  1.0000
  S   S120      1.0  0.8254148466483084  0.00354694817317025  0.6693301887687325  1.0000
  Fe  Fe61      1.0  0.185359088362711  0.9124974786248109  0.5724128012404711  1.0000
  S   S121      1.0  0.12685625523877306  0.9033882068955863  0.5942903855239573  1.0000
  S   S122      1.0  0.1778171174212562  0.9212062379569218  0.529680821690485  1.0000
  Fe  Fe62      1.0  0.25439540839026326  0.9017400270427651  0.6186749725897704  1.0000
  S   S123      1.0  0.20133771361145242  0.8917202287087636  0.6446107997926754  1.0000
  S   S124      1.0  0.3301221385802772  0.9053385198804293  0.6265881067068492  1.0000
  Fe  Fe63      1.0  0.16890074525658771  0.8712457356575524  0.6097598149214255  1.0000
  S   S125      1.0  0.1331420138159323  0.8344990810465911  0.6104453015039009  1.0000
  Fe  Fe64      1.0  0.16350366861275942  0.9245327498068082  0.6269939731718609  1.0000
  S   S126      1.0  0.13381989960635457  0.9553350782624598  0.6491392718071486  1.0000
  S   S127      1.0  0.2247513084244191  0.8787407220265623  0.5851673738995806  1.0000
  S   S128      1.0  0.21906341259320924  0.9361823171335897  0.6038587340588387  1.0000
  Fe  Fe65      1.0  0.5683037614983336  0.8531526667923456  0.021396756567384045  1.0000
  S   S129      1.0  0.6181445267494325  0.8495887214112164  0.9924064275241208  1.0000
  S   S130      1.0  0.5588817200657932  0.8237954242248237  0.051462146295575106  1.0000
  Fe  Fe66      1.0  0.547395004320357  0.9073480072849474  0.006258257802585598  1.0000
  S   S131      1.0  0.5958060799317153  0.9076728580946158  0.9757993728326305  1.0000
  S   S132      1.0  0.5200968082151644  0.942580983905978  0.022156172444024458  1.0000
  Fe  Fe67      1.0  0.5670413806862102  0.8698755775628454  0.9655928907997737  1.0000
  S   S133      1.0  0.5496329260159497  0.8513246252656204  0.9268101524652076  1.0000
  Fe  Fe68      1.0  0.6419445666001704  0.8873001592274538  0.005194289151783105  1.0000
  S   S134      1.0  0.7136987529122252  0.8950096037350425  0.020286061751338735  1.0000
  S   S135      1.0  0.5148565403625621  0.8710700160059464  0.9941279796036842  1.0000
  S   S136      1.0  0.5958475337906352  0.8894425231787317  0.03615004418335355  1.0000
  Fe  Fe69      1.0  0.5070238263684637  0.8593709459997053  0.7370799448976688  1.0000
  S   S137      1.0  0.5597256292977455  0.8410940768001643  0.7156852348984007  1.0000
  S   S138      1.0  0.4313473229718313  0.8592357452935676  0.7287279423102719  1.0000
  Fe  Fe70      1.0  0.5729083638197185  0.8753159216039914  0.7818269307336839  1.0000
  S   S139      1.0  0.6318610996477421  0.8587573211655819  0.7648131034177404  1.0000
  S   S140      1.0  0.5759715118927159  0.8987763888860165  0.8179887134129668  1.0000
  Fe  Fe71      1.0  0.6021643495891926  0.87454616362454  0.7272010645903823  1.0000
  S   S141      1.0  0.6495806706074593  0.8887898824231905  0.6992606896028246  1.0000
  Fe  Fe72      1.0  0.5870626781746486  0.8261264796791261  0.7542487742012872  1.0000
  S   S142      1.0  0.6214134898533904  0.7887989660258985  0.7595191120276978  1.0000
  S   S143      1.0  0.5467372134866031  0.8942729375577114  0.744852383424619  1.0000
  S   S144      1.0  0.5307077906689368  0.8412737708613671  0.7750149099348519  1.0000
  Fe  Fe73      1.0  0.6601102574585541  0.619158568515706  0.7000008991600609  1.0000
  S   S145      1.0  0.6027576209147636  0.6325180919186756  0.6727506826387373  1.0000
  S   S146      1.0  0.7280068349448224  0.6139229744854934  0.6854023545655435  1.0000
  Fe  Fe74      1.0  0.6022959180424893  0.6141236212355922  0.7444531331346538  1.0000
  S   S147      1.0  0.5397500738306628  0.6260679127864576  0.7199290045703051  1.0000
  S   S148      1.0  0.5946674503364695  0.6083373798321504  0.7869686992596899  1.0000
  Fe  Fe75      1.0  0.5640698469218354  0.6019265254372288  0.6892437021363272  1.0000
  S   S149      1.0  0.5265898176837734  0.5775353831043231  0.6591463586495179  1.0000
  Fe  Fe76      1.0  0.58364346258413  0.655640668944716  0.7055880626029215  1.0000
  S   S150      1.0  0.5506689783660813  0.6929529530635075  0.6976840434193513  1.0000
  S   S151      1.0  0.6228009551224015  0.5870946106620477  0.7149013119234982  1.0000
  S   S152      1.0  0.6449640893773084  0.6452790569012793  0.7318300523276103  1.0000
  Fe  Fe77      1.0  0.43116814736886805  0.5945083504860056  0.21257306836195883  1.0000
  S   S153      1.0  0.37320337405416937  0.6016100226085747  0.18265915635828936  1.0000
  S   S154      1.0  0.4952680962394826  0.6168132560933325  0.21776875024304404  1.0000
  Fe  Fe78      1.0  0.3919334709121684  0.5475316263887123  0.2318000640788816  1.0000
  S   S155      1.0  0.33124288786836564  0.5500160852176534  0.20316350005242026  1.0000
  S   S156      1.0  0.39807897277184306  0.5133180882887559  0.25660699495517797  1.0000
  Fe  Fe79      1.0  0.3779542882814352  0.5610633623851904  0.17441678450020867  1.0000
  S   S157      1.0  0.3693521212912018  0.5489559795264348  0.13282919504265261  1.0000
  Fe  Fe80      1.0  0.3297745056325808  0.5903346664663114  0.21341011988971043  1.0000
  S   S158      1.0  0.25718229575701845  0.6022709667353093  0.213263483226947  1.0000
  S   S159      1.0  0.4392075930170675  0.5547341177057388  0.20182848276456616  1.0000
  S   S160      1.0  0.38741709468789853  0.5869562692503671  0.24472597504367175  1.0000
  Fe  Fe81      1.0  0.6371415129700282  0.6633135978610083  0.10996936485132594  1.0000
  S   S161      1.0  0.7008084359813049  0.6455771111022929  0.12699557413829793  1.0000
  S   S162      1.0  0.5672189449853352  0.6482604053290412  0.11201982017120639  1.0000
  Fe  Fe82      1.0  0.6864522190456996  0.6989691751935087  0.07703105237635358  1.0000
  S   S163      1.0  0.7545016982299905  0.6835084584717901  0.09088394200496105  1.0000
  S   S164      1.0  0.6758935492924587  0.7268968914864647  0.044719657753006674  1.0000
  Fe  Fe83      1.0  0.7209248490411838  0.646225693170742  0.08650939941509399  1.0000
  S   S165      1.0  0.747355277051264  0.6104320552762701  0.07124611273561686  1.0000
  Fe  Fe84      1.0  0.7286533957102038  0.6842396646898163  0.1299994292862174  1.0000
  S   S166      1.0  0.7662829535109844  0.6993412396140056  0.16666479955899777  1.0000
  S   S167      1.0  0.655615462804884  0.6616657999663084  0.06938114260155194  1.0000
  S   S168      1.0  0.6623064620839857  0.7021850831986522  0.11626117972276664  1.0000
  Fe  Fe85      1.0  0.06823691863251138  0.6929657055992304  0.5129952912801621  1.0000
  S   S169      1.0  0.0744676292683296  0.6797386379379555  0.47261004632290093  1.0000
  S   S170      1.0  0.012745832879817343  0.6811835045929809  0.5366719116616457  1.0000
  Fe  Fe86      1.0  0.14868044773641484  0.7274036838168031  0.5136616360281658  1.0000
  S   S171      1.0  0.16161782035830233  0.7171299435025129  0.47325163347272775  1.0000
  S   S172      1.0  0.19826559414454623  0.7538439228539783  0.5344393831842801  1.0000
  Fe  Fe87      1.0  0.08709481776566004  0.719591491802327  0.46395255534547514  1.0000
  S   S173      1.0  0.05499492496050077  0.7400204301545298  0.4290934223602366  1.0000
  Fe  Fe88      1.0  0.14816794566722533  0.6784127813353871  0.48543482464776616  1.0000
  S   S174      1.0  0.19244884163074866  0.647075069527416  0.4757317445155618  1.0000
  S   S175      1.0  0.07490720284794497  0.733252263264534  0.5034357582488065  1.0000
  S   S176      1.0  0.14124583686849024  0.6882225711814478  0.5267227502398901  1.0000
  Fe  Fe89      1.0  0.015750287425491116  0.7008983158515888  0.22670502864743936  1.0000
  S   S177      1.0  0.0643802252951842  0.7311102554581373  0.21914828444308027  1.0000
  S   S178      1.0  0.9765783341122847  0.6836860993453184  0.19164925504175256  1.0000
  Fe  Fe90      1.0  0.04126398924332131  0.7033577153322221  0.28516253703551475  1.0000
  S   S179      1.0  0.08936985264873494  0.7347094191087367  0.2819275567052024  1.0000
  S   S180      1.0  0.037987143434321975  0.682508253019277  0.322463251590156  1.0000
  Fe  Fe91      1.0  0.03676877350713248  0.7501503992223241  0.2524826811443046  1.0000
  S   S181      1.0  0.0073426525299831145  0.788667181315921  0.2488059370203023  1.0000
  Fe  Fe92      1.0  0.11223787329742606  0.7124003366174549  0.2490461235022213  1.0000
  S   S182      1.0  0.18719762825141112  0.7065245466947337  0.24877605253690505  1.0000
  S   S183      1.0  0.9859514666319658  0.7206034929888663  0.25880401457140473  1.0000
  S   S184      1.0  0.06629609820469586  0.6804470836132736  0.25356646709056185  1.0000
  Fe  Fe93      1.0  0.02217803197232327  0.9513263030705904  0.20067335421023103  1.0000
  S   S185      1.0  0.04902859709847771  0.9860966782932845  0.21988212303250726  1.0000
  S   S186      1.0  0.9643437260018121  0.9486816840570337  0.16941069095600692  1.0000
  Fe  Fe94      1.0  0.09684759859296996  0.9197547818473006  0.2273869779266289  1.0000
  S   S187      1.0  0.13121492322023923  0.9522510514546285  0.2479596619923935  1.0000
  S   S188      1.0  0.12952044182663788  0.8824055296240148  0.23420779486221013  1.0000
  Fe  Fe95      1.0  0.06192960226064288  0.9631992375914452  0.2558418105925598  1.0000
  S   S189      1.0  0.04719440377525194  0.9775101628862582  0.2949294304792321  1.0000
  Fe  Fe96      1.0  0.11607714229355444  0.9723283602400141  0.2104838013265662  1.0000
  S   S190      1.0  0.16085148336479158  0.0017137443464243507  0.1961848919034392  1.0000
  S   S191      1.0  0.02794502166119406  0.9295053704692209  0.2375750289916859  1.0000
  S   S192      1.0  0.08870198236198544  0.93883193271657  0.18893445922901228  1.0000
  C   C1        1.0  0.04195046395681823  0.814253292847111  0.24404928015423755  1.0000
  C   C2        1.0  0.022001649641852916  0.8374888462093182  0.23939069102956503  1.0000
  C   C3        1.0  0.0484721295515286  0.8583772625594687  0.23568213156681828  1.0000
  C   C4        1.0  0.09517036435554403  0.8562226874574282  0.23691966084065344  1.0000
  C   C5        1.0  0.11515669873126318  0.8329734976081168  0.24157739625818195  1.0000
  C   C6        1.0  0.08861578491353662  0.8119907683999448  0.2450327065239281  1.0000
  H   H1        1.0  0.9858973289879177  0.8393314404318953  0.23857317025693153  1.0000
  H   H2        1.0  0.03265584926594012  0.876088950733389  0.2318308234207967  1.0000
  H   H3        1.0  0.15129042196420892  0.8311604552572321  0.24252925904239  1.0000
  H   H4        1.0  0.1042629457324  0.7941194490828225  0.24857760836030204  1.0000
  C   C7        1.0  0.05329576799572574  0.7242801913932759  0.3993378739824429  1.0000
  C   C8        1.0  0.06173924401113839  0.6988901837144035  0.3984720470649394  1.0000
  C   C9        1.0  0.05682387148217817  0.6862870541469545  0.3747587813858738  1.0000
  C   C10       1.0  0.0449111966305884  0.6991093193035892  0.35168738307752423  1.0000
  C   C11       1.0  0.03788134430789248  0.7246360859717679  0.35240873220444235  1.0000
  C   C12       1.0  0.04144583031596283  0.7371285347555074  0.3762544870741498  1.0000
  H   H5        1.0  0.07132240907530402  0.6888485234299287  0.4160850751141332  1.0000
  H   H6        1.0  0.06215243268493407  0.6665257665162402  0.374324798252249  1.0000
  H   H7        1.0  0.028540959889823195  0.7346262356117815  0.3346820056180916  1.0000
  H   H8        1.0  0.03487674447209055  0.7567720925678458  0.37681001447418583  1.0000
  C   C13       1.0  0.8242146513531378  0.6933955305180061  0.17384110922826443  1.0000
  C   C14       1.0  0.8453235272959451  0.6999461022962712  0.19823211535501375  1.0000
  C   C15       1.0  0.8919263032048363  0.6968218169934005  0.2040738461975725  1.0000
  C   C16       1.0  0.9177238556766258  0.6869914188225774  0.1855583669543884  1.0000
  C   C17       1.0  0.8964882945464685  0.6800954467054551  0.16131343092815958  1.0000
  C   C18       1.0  0.8499183086759539  0.6832943875051349  0.15544003005105012  1.0000
  H   H9        1.0  0.825544679975722  0.7075626561391714  0.2126331367550174  1.0000
  H   H10       1.0  0.907756838910651  0.7018500051777596  0.2229311919420873  1.0000
  H   H11       1.0  0.9161881869111612  0.6723337434134865  0.14694665324589096  1.0000
  H   H12       1.0  0.834009525656367  0.6780818304484519  0.13662976312619254  1.0000
  C   C19       1.0  0.5165052978847673  0.6247628628987665  0.18844419358468387  1.0000
  C   C20       1.0  0.492990210645985  0.6183529269838578  0.16479877758399375  1.0000
  C   C21       1.0  0.5092100963190203  0.625529769845123  0.14155387665955405  1.0000
  C   C22       1.0  0.5494661369106547  0.6387914102287504  0.14173303371035784  1.0000
  C   C23       1.0  0.5738397934529095  0.6446327445986707  0.16532126360887595  1.0000
  C   C24       1.0  0.5572013109683183  0.6377360269451195  0.1886592176313103  1.0000
  H   H13       1.0  0.46194073968741617  0.6081090901190017  0.164357716433517  1.0000
  H   H14       1.0  0.49023950625681334  0.6208634629953678  0.12339138661631362  1.0000
  H   H15       1.0  0.6049646152199881  0.6548710991397647  0.165635341851921  1.0000
  H   H16       1.0  0.5756174884850644  0.6427281743339748  0.20688664016314912  1.0000
  C   C25       1.0  0.23915274150777957  0.6318280463537946  0.22229819180975127  1.0000
  C   C26       1.0  0.2692825649492794  0.6500194371530184  0.2323147347467784  1.0000
  C   C27       1.0  0.2530675305432412  0.6731082801664084  0.23983331574433808  1.0000
  C   C28       1.0  0.2067641693841354  0.6781368710774579  0.23732853690817018  1.0000
  C   C29       1.0  0.1768198667419136  0.6600292091724382  0.22698567075124762  1.0000
  C   C30       1.0  0.19295521730615536  0.6369562457528597  0.2196336155349752  1.0000
  H   H17       1.0  0.30496015204368515  0.6462697988657505  0.23438396255370272  1.0000
  H   H18       1.0  0.27645069131407496  0.6870605821298421  0.24777198476508475  1.0000
  H   H19       1.0  0.14117313663801204  0.6637373869764182  0.22469491995601404  1.0000
  H   H20       1.0  0.16943555956937278  0.6230133357157117  0.21183148895822065  1.0000
  C   C31       1.0  0.6022026318528028  0.7627775238721461  0.7411545025575392  1.0000
  C   C32       1.0  0.6277918053179021  0.7409958401291933  0.7431001702212923  1.0000
  C   C33       1.0  0.6130935655363482  0.7196971299011161  0.7292054892356808  1.0000
  C   C34       1.0  0.5723161866384133  0.7199393132384005  0.7135478121016853  1.0000
  C   C35       1.0  0.5470378994902637  0.7418322695718371  0.7113074064688076  1.0000
  C   C36       1.0  0.5619581286606836  0.7632264537090699  0.7250149718006491  1.0000
  H   H21       1.0  0.6591188917723692  0.7405928733651793  0.7554424699261224  1.0000
  H   H22       1.0  0.6332371059799328  0.7030773701487838  0.7307215192465373  1.0000
  H   H23       1.0  0.515483700906048  0.7421980869959846  0.6991745959055478  1.0000
  H   H24       1.0  0.5419971439777465  0.7799337734120642  0.7233731612607555  1.0000
  C   C37       1.0  0.5898979208003897  0.7963415965072904  0.049391736125381946  1.0000
  C   C38       1.0  0.6038622755235673  0.7885741951976744  0.02587117788601212  1.0000
  C   C39       1.0  0.6296481399613951  0.7670169090669928  0.024689783548191846  1.0000
  C   C40       1.0  0.6416864188546061  0.7530746805449184  0.04699187404266981  1.0000
  C   C41       1.0  0.627874966417922  0.7608392290303706  0.07059592329702058  1.0000
  C   C42       1.0  0.6018587559831944  0.7823945430354988  0.07175989258077387  1.0000
  H   H25       1.0  0.5943706278770997  0.7990287635229218  0.008480152329354285  1.0000
  H   H26       1.0  0.6403758758029966  0.7611442635330784  0.0063851052825609775  1.0000
  H   H27       1.0  0.638162223222514  0.7505894565303315  0.08799520179698717  1.0000
  H   H28       1.0  0.5916056815316766  0.7885304054102873  0.09008019770339004  1.0000
  C   C43       1.0  0.5608315053505618  0.8646495399668621  0.897200232936577  1.0000
  C   C44       1.0  0.5692810320295218  0.8899327785245145  0.8949289646832738  1.0000
  C   C45       1.0  0.5749827646434037  0.9001053118096942  0.8705904305010048  1.0000
  C   C46       1.0  0.5729839828818989  0.8850278926815734  0.8485076209831931  1.0000
  C   C47       1.0  0.5657803926257368  0.8596466911835802  0.8509183901116548  1.0000
  C   C48       1.0  0.5591654952504135  0.8495719982363491  0.8751304443090767  1.0000
  H   H29       1.0  0.5704733978574248  0.9016993060214585  0.9118035819678584  1.0000
  H   H30       1.0  0.5805789197980448  0.9197626924826212  0.8688413501709684  1.0000
  H   H31       1.0  0.5645212394848452  0.8478382868184021  0.8340840421681217  1.0000
  H   H32       1.0  0.552763778491442  0.8299866195098343  0.8768124399805634  1.0000
  C   C49       1.0  0.15247429630676632  0.8107537209699861  0.5912192998866481  1.0000
  C   C50       1.0  0.12315536280472487  0.791720520598211  0.5820658182794741  1.0000
  C   C51       1.0  0.13704574580274553  0.7736843978644465  0.5650507538343911  1.0000
  C   C52       1.0  0.18046506715594346  0.7745998324480602  0.5573327647756593  1.0000
  C   C53       1.0  0.21015076422781853  0.7931374010530906  0.5671868002087727  1.0000
  C   C54       1.0  0.1961874846383424  0.8111865099824312  0.5840345561529289  1.0000
  H   H33       1.0  0.08937192995281829  0.7912054685095951  0.5877507735163671  1.0000
  H   H34       1.0  0.11405673879065434  0.7593168040928264  0.5576772397120765  1.0000
  H   H35       1.0  0.24394846818360724  0.7937077498088068  0.5615255731283136  1.0000
  H   H36       1.0  0.2193875285070011  0.8253367944099433  0.5915904618902564  1.0000
  C   C55       1.0  0.35793824228195453  0.8923193452904786  0.654983848139907  1.0000
  C   C56       1.0  0.3341062131648365  0.8803947730243035  0.6731377680738839  1.0000
  C   C57       1.0  0.3571087214354373  0.8703256058414087  0.6956150186643062  1.0000
  C   C58       1.0  0.4040689828498706  0.8720026477783472  0.7000875478652994  1.0000
  C   C59       1.0  0.4279809583747027  0.8839169659516914  0.6819440260050726  1.0000
  C   C60       1.0  0.40493223768717274  0.894065715342562  0.6594772233051007  1.0000
  H   H37       1.0  0.29796162002933646  0.8788883874899419  0.6698687081337427  1.0000
  H   H38       1.0  0.3383974960273571  0.8610798822614978  0.7095207516082639  1.0000
  H   H39       1.0  0.46415911965511075  0.8853149590809495  0.6852206205049425  1.0000
  H   H40       1.0  0.42361165182012106  0.9032414654983616  0.6455225638626918  1.0000
  C   C61       1.0  0.9812813685745982  0.9613918896953777  0.6466021507853398  1.0000
  C   C62       1.0  0.0008022301956109901  0.9394254596938938  0.6387641975640014  1.0000
  C   C63       1.0  0.0475961216809725  0.9376234809545937  0.6384727163471188  1.0000
  C   C64       1.0  0.07496917608118334  0.9578946982037266  0.645810671869253  1.0000
  C   C65       1.0  0.05526843348646866  0.9801883564070416  0.6525015412374487  1.0000
  C   C66       1.0  0.008531841904675598  0.9819271006261409  0.6530307916497359  1.0000
  H   H41       1.0  0.9798218533018812  0.9235115569327187  0.6336642487499238  1.0000
  H   H42       1.0  0.06251711496495345  0.9203195789256777  0.6333860321856785  1.0000
  H   H43       1.0  0.07635382536140492  0.996026885259906  0.6577144221239594  1.0000
  H   H44       1.0  0.9936675834397188  0.9990620662543412  0.658581998624032  1.0000
  C   C67       1.0  0.7365738930793938  0.9563143141395212  0.7237161384799721  1.0000
  C   C68       1.0  0.7022186182774554  0.948821035135604  0.7384622505840172  1.0000
  C   C69       1.0  0.6758242871708314  0.9279440215582511  0.7313250270219824  1.0000
  C   C70       1.0  0.6832028827884958  0.9145956249632532  0.7091318822929692  1.0000
  C   C71       1.0  0.7175969442005486  0.9220533523705947  0.6943462192550184  1.0000
  C   C72       1.0  0.7444804091995111  0.942746832270617  0.7017133936326555  1.0000
  H   H45       1.0  0.695977503642522  0.9591734807191019  0.7555471797571714  1.0000
  H   H46       1.0  0.6494971615953805  0.9223241860258815  0.7428927374312115  1.0000
  H   H47       1.0  0.7235309313441755  0.9117692565241128  0.6771758336819623  1.0000
  H   H48       1.0  0.7710558633489188  0.9482661518473282  0.6902883385522584  1.0000
  C   C73       1.0  0.7607212674853295  0.9740125282976573  0.008959939854553456  1.0000
  C   C74       1.0  0.7344913132288231  0.9617844719354347  0.9890404300383813  1.0000
  C   C75       1.0  0.7185132237055656  0.9378355287482566  0.9927903094926768  1.0000
  C   C76       1.0  0.7303193783352997  0.9256809050334759  0.016139882059827082  1.0000
  C   C77       1.0  0.7566876251085005  0.9378592426998626  0.03609542982078273  1.0000
  C   C78       1.0  0.7711238128133742  0.9622487559789002  0.03270422182214561  1.0000
  H   H49       1.0  0.726647531869658  0.9708277911074915  0.9706018633444932  1.0000
  H   H50       1.0  0.6985627787057499  0.9284091481334065  0.977257307944859  1.0000
  H   H51       1.0  0.7658965009329518  0.9284477423830011  0.05417653659372679  1.0000
  H   H52       1.0  0.7915465368843748  0.9716104947695577  0.04808027030502826  1.0000
  C   C79       1.0  0.9365426599277717  0.9759742849099755  0.15866066428596648  1.0000
  C   C80       1.0  0.9430671053504942  0.9980343313238695  0.17252488543072636  1.0000
  C   C81       1.0  0.9220180274138496  0.01980293939653488  0.16303010327897813  1.0000
  C   C82       1.0  0.8945176805805005  0.01966860535645165  0.1395768447975058  1.0000
  C   C83       1.0  0.8877840335854876  0.9976225361631751  0.1256818713886618  1.0000
  C   C84       1.0  0.9086214515572015  0.9757721160393455  0.13531022590348793  1.0000
  H   H53       1.0  0.9638895244461526  0.9982940076039906  0.1907044972386198  1.0000
  H   H54       1.0  0.9271443647427486  0.03681453598770368  0.1738869559857245  1.0000
  H   H55       1.0  0.866466750173685  0.9973839631535321  0.10760632876871257  1.0000
  H   H56       1.0  0.9033432975513592  0.9587057616164096  0.12455254124688442  1.0000
  C   C85       1.0  0.1606175701894786  0.5800264376369169  0.5231676963633437  1.0000
  C   C86       1.0  0.12975672244291683  0.5994502572035324  0.5196060047595326  1.0000
  C   C87       1.0  0.13906935212888216  0.6198373088114446  0.5044961392059284  1.0000
  C   C88       1.0  0.1786206477180694  0.6205263865168416  0.4923400419851334  1.0000
  C   C89       1.0  0.2084573843911453  0.6005636259637187  0.4948678905046427  1.0000
  C   C90       1.0  0.19959838045525258  0.5803506583784898  0.510434552227582  1.0000
  H   H57       1.0  0.09961442228436643  0.5993890492648495  0.5294172821522896  1.0000
  H   H58       1.0  0.11595136654402198  0.6352013521802039  0.5025563093636511  1.0000
  H   H59       1.0  0.23908749787258354  0.601097504071446  0.48546375950016574  1.0000
  H   H60       1.0  0.22338146142961263  0.5652863723016135  0.512979861725767  1.0000
  C   C91       1.0  0.3735074491392588  0.5732194576527722  0.6441839456827414  1.0000
  C   C92       1.0  0.4010564000864246  0.5618261085030699  0.6275563551026042  1.0000
  C   C93       1.0  0.4478831601255395  0.5628461267565694  0.6328334408356103  1.0000
  C   C94       1.0  0.4676188864908126  0.5754154057997516  0.65465232811874  1.0000
  C   C95       1.0  0.44019306724101365  0.5869241799968647  0.6713438831894593  1.0000
  C   C96       1.0  0.39315143527475976  0.5859159221884919  0.6660288440032089  1.0000
  H   H61       1.0  0.38635666573428357  0.5522926763124076  0.6104994655274342  1.0000
  H   H62       1.0  0.4689145615913898  0.5539794008588202  0.619801364612936  1.0000
  H   H63       1.0  0.4551757854056753  0.5964211426270694  0.6883758628992542  1.0000
  H   H64       1.0  0.3719312825370458  0.5946476231629839  0.6790280916207097  1.0000
  C   C97       1.0  0.3689450031522284  0.4739342615218269  0.4590443791613598  1.0000
  C   C98       1.0  0.32872764101008856  0.4835012610002448  0.4666456447317358  1.0000
  C   C99       1.0  0.32924395522903566  0.49836283426068884  0.4889124260337732  1.0000
  C   C100      1.0  0.3700543668863508  0.5038089033553927  0.5033881843173372  1.0000
  C   C101      1.0  0.4099593280930342  0.4938919556695744  0.49597028496038653  1.0000
  C   C102      1.0  0.4093230452362732  0.4787182388416876  0.47412039237924336  1.0000
  H   H65       1.0  0.29731032690265985  0.4797210240273018  0.45515037123090013  1.0000
  H   H66       1.0  0.2983384386655011  0.5061246186851088  0.49449328619666894  1.0000
  H   H67       1.0  0.44151262644034706  0.4977903672700632  0.5073044210480468  1.0000
  H   H68       1.0  0.44017991598869094  0.47053488868123616  0.46918390116349096  1.0000
  C   C103      1.0  0.4844091976288932  0.5095573203801732  0.33406917926072804  1.0000
  C   C104      1.0  0.47534767168725744  0.5325698428007205  0.32224003134511636  1.0000
  C   C105      1.0  0.44830732612352414  0.5340890853046668  0.29855325123784626  1.0000
  C   C106      1.0  0.4310096803063295  0.5125332923189754  0.28647495550142216  1.0000
  C   C107      1.0  0.4398032407966484  0.4896207272630952  0.2984355200068463  1.0000
  C   C108      1.0  0.4663845130948219  0.4881232803440727  0.32215758327862204  1.0000
  H   H69       1.0  0.4887999844226919  0.5492342529227519  0.33159518415190703  1.0000
  H   H70       1.0  0.4406126467292032  0.5518432433964091  0.28967859790214295  1.0000
  H   H71       1.0  0.4264795868663756  0.472893408929627  0.2891166524616174  1.0000
  H   H72       1.0  0.4737847877963222  0.47028695218238553  0.33088224000076083  1.0000
  C   C109      1.0  0.5101524097591549  0.35336629213377474  0.3869703579698197  1.0000
  C   C110      1.0  0.48194254799742114  0.35094196339705047  0.4066650279438703  1.0000
  C   C111      1.0  0.4711116326323252  0.32732323147509873  0.4154410235069466  1.0000
  C   C112      1.0  0.487997591791413  0.3060015053719629  0.4044314258784143  1.0000
  C   C113      1.0  0.5160093470103796  0.3084177307699555  0.3846354617733223  1.0000
  C   C114      1.0  0.5270962792495906  0.33204732870429127  0.37598216689617037  1.0000
  H   H73       1.0  0.468260403000362  0.3672100371147962  0.41505743008444085  1.0000
  H   H74       1.0  0.4492324613462376  0.3255243457478443  0.4306663889378973  1.0000
  H   H75       1.0  0.5290834815118132  0.2920820121980635  0.37601204334382016  1.0000
  H   H76       1.0  0.54885532671656  0.3338088757688116  0.36069640429837535  1.0000
  C   C115      1.0  0.6524738825320522  0.1503264800774584  0.11541167635359402  1.0000
  C   C116      1.0  0.6208342368693607  0.13158785249742305  0.11752145997609778  1.0000
  C   C117      1.0  0.626335213506474  0.10845972958910154  0.10592115557009348  1.0000
  C   C118      1.0  0.6632842546041623  0.10403162380683244  0.09202462101490859  1.0000
  C   C119      1.0  0.6952942532070052  0.12261297083446149  0.09030699035730168  1.0000
  C   C120      1.0  0.6900409028348354  0.14562933661490565  0.10211857550285754  1.0000
  H   H77       1.0  0.5921387155288902  0.1348892398493648  0.1280459798317216  1.0000
  H   H78       1.0  0.6017156162586004  0.09402821621036779  0.10754909508935313  1.0000
  H   H79       1.0  0.7235220551412433  0.11955111747282247  0.07928100404768014  1.0000
  H   H80       1.0  0.714535884327753  0.16010039483728222  0.100303934138192  1.0000
  C   C121      1.0  0.5148419101548124  0.19228302587065735  0.24446825700325509  1.0000
  C   C122      1.0  0.4951488106978667  0.1896494549075327  0.2676373139420445  1.0000
  C   C123      1.0  0.5160696167959516  0.19955679140160953  0.29075451711907524  1.0000
  C   C124      1.0  0.5570093287018564  0.21203942688871405  0.29085942633372036  1.0000
  C   C125      1.0  0.5769483297579797  0.21452804471393114  0.2677352320286925  1.0000
  C   C126      1.0  0.5558899197296829  0.20468783477341324  0.24457243701357237  1.0000
  H   H81       1.0  0.4634472118270657  0.18004247266166704  0.26774525811938554  1.0000
  H   H82       1.0  0.5004129857104405  0.19751334481432786  0.3084911804341777  1.0000
  H   H83       1.0  0.608733678555724  0.22405934323564905  0.26773640049590247  1.0000
  H   H84       1.0  0.5716804563602363  0.20648801188052296  0.22690558354403245  1.0000
  C   C127      1.0  0.854050185481397  0.0966683849981099  0.5811361805548964  1.0000
  C   C128      1.0  0.8704798109375655  0.07450350222114109  0.5924205861711508  1.0000
  C   C129      1.0  0.8609495184566127  0.06794675493068532  0.6174213853329888  1.0000
  C   C130      1.0  0.8341335123921966  0.08332465949015759  0.6310498730633433  1.0000
  C   C131      1.0  0.8167641730683031  0.10519119910367765  0.6195363243658766  1.0000
  C   C132      1.0  0.8271135458359284  0.11202033475545603  0.5947392648369533  1.0000
  H   H85       1.0  0.890984830843411  0.06244954106379661  0.5818644680431552  1.0000
  H   H86       1.0  0.874261351393474  0.050966920692188014  0.6260793550374217  1.0000
  H   H87       1.0  0.7954484637887496  0.11694462251831168  0.6298875768101978  1.0000
  H   H88       1.0  0.8136528707418798  0.12890303529183414  0.5859400609150216  1.0000
  C   C133      1.0  0.7363021601603996  0.19843073281102983  0.46707120594073953  1.0000
  C   C134      1.0  0.7235650535057531  0.17388446017936202  0.47057046959778254  1.0000
  C   C135      1.0  0.6802050747280654  0.1658646351365608  0.46113085772262463  1.0000
  C   C136      1.0  0.6493673257998676  0.1823502474128311  0.44829560283525083  1.0000
  C   C137      1.0  0.6617533977706814  0.2070190429300523  0.4454309064902747  1.0000
  C   C138      1.0  0.7051460727190183  0.2149761434944854  0.4546246497677942  1.0000
  H   H89       1.0  0.7474056723408754  0.16100442420684094  0.48011093735145083  1.0000
  H   H90       1.0  0.6708190004333602  0.14676136348136282  0.4635382510782461  1.0000
  H   H91       1.0  0.6378824994121781  0.22000073716553323  0.43622160068984267  1.0000
  H   H92       1.0  0.7147129110928957  0.23403762105409895  0.45209320669232606  1.0000
  C   C139      1.0  0.09200384509361116  0.9864414230642325  0.31771195101034155  1.0000
  C   C140      1.0  0.08458629659156784  0.004034184831776866  0.3366635444983073  1.0000
  C   C141      1.0  0.1203624975352749  0.01259256243317286  0.35402688167794555  1.0000
  C   C142      1.0  0.16371364039319225  0.003389605871955359  0.35264697799139577  1.0000
  C   C143      1.0  0.170810450497902  0.9851600931434713  0.33427600291940446  1.0000
  C   C144      1.0  0.13509178133368255  0.9767128834206138  0.3168663798228317  1.0000
  H   H93       1.0  0.051235173298277537  0.0114963372192316  0.3375770357258353  1.0000
  H   H94       1.0  0.11453980385953315  0.026662901107836534  0.36811332340678715  1.0000
  H   H95       1.0  0.20426745527252138  0.9779011704730787  0.3332377602970056  1.0000
  H   H96       1.0  0.14100700739423772  0.9627644692109064  0.3027651008416795  1.0000
  C   C145      1.0  0.0485160070474332  0.11475995562400741  0.4460006753463723  1.0000
  C   C146      1.0  0.004218338743834593  0.12347030982745795  0.4445609703434273  1.0000
  C   C147      1.0  0.9915748891590138  0.14097234133078632  0.4625077454949405  1.0000
  C   C148      1.0  0.02349580241340332  0.1501358834777206  0.48164128294386044  1.0000
  C   C149      1.0  0.06745673363253579  0.14103601810585376  0.4833774821521813  1.0000
  C   C150      1.0  0.07968153996473681  0.1231676705935967  0.4658633661659842  1.0000
  H   H97       1.0  0.9797296555597008  0.11694382980094087  0.42933977891203107  1.0000
  H   H98       1.0  0.9575870633505806  0.1480111103421573  0.4609750632924962  1.0000
  H   H99       1.0  0.09209126506428067  0.1479536646251386  0.4983106705135786  1.0000
  H   H100      1.0  0.11340555317770118  0.1162548234514581  0.4675437998397179  1.0000
  C   C151      1.0  0.3149775254418898  0.1347414903282729  0.4158362577615123  1.0000
  C   C152      1.0  0.31753186213730356  0.12361185111731349  0.3917860909888849  1.0000
  C   C153      1.0  0.34592424224202517  0.13363439211203923  0.3745056573808635  1.0000
  C   C154      1.0  0.37194192095364204  0.1547112547415977  0.38122730940302185  1.0000
  C   C155      1.0  0.3690044245676201  0.16594584907644716  0.4051924580683475  1.0000
  C   C156      1.0  0.34056643564134487  0.15599057686547746  0.4224296243028629  1.0000
  H   H101      1.0  0.2979083383812414  0.10722731818404006  0.38656659752677386  1.0000
  H   H102      1.0  0.3480494895060947  0.1249102015864525  0.35594379352229605  1.0000
  H   H103      1.0  0.3883247096267018  0.1824356634534745  0.4103295197572959  1.0000
  H   H104      1.0  0.3385283679972173  0.1647499830914145  0.44098303869457767  1.0000
  C   C157      1.0  0.19562355351330535  0.0026750487875233375  0.5097896474259591  1.0000
  C   C158      1.0  0.192955722793323  0.9954870217872983  0.5354353580925008  1.0000
  C   C159      1.0  0.1864341333333869  0.9706039865566779  0.5415354405554176  1.0000
  C   C160      1.0  0.18316908232913293  0.9526900752868056  0.5220680669328515  1.0000
  C   C161      1.0  0.1855223770084827  0.9598789617852586  0.4963460387410721  1.0000
  C   C162      1.0  0.1915732511270581  0.9848861546439918  0.4901707666233191  1.0000
  H   H105      1.0  0.19571159743781705  0.009227586372976715  0.5506519478387298  1.0000
  H   H106      1.0  0.18348080995009383  0.9653780292325946  0.5612923278971815  1.0000
  H   H107      1.0  0.18292755350014522  0.946099378792709  0.48118275902422497  1.0000
  H   H108      1.0  0.1935981396395137  0.9903419034921797  0.4703185793544253  1.0000
  C   C163      1.0  0.9058624199164806  0.09656285060352056  0.9472159836862097  1.0000
  C   C164      1.0  0.8828081310286583  0.07879965333847137  0.9603273917732134  1.0000
  C   C165      1.0  0.8672736416483233  0.08452201583561399  0.9841785086987908  1.0000
  C   C166      1.0  0.8746175245618885  0.10807453293728396  0.9949108119694982  1.0000
  C   C167      1.0  0.8972222217056972  0.1259240321693842  0.9816352092768997  1.0000
  C   C168      1.0  0.9127518246013949  0.12020594378660335  0.9577692501182136  1.0000
  H   H109      1.0  0.8772152117907859  0.0605071748282904  0.9521959377560608  1.0000
  H   H110      1.0  0.8495279618166067  0.07071447676428141  0.9942365962399309  1.0000
  H   H111      1.0  0.9026572942222828  0.14420607450417217  0.9898341429360276  1.0000
  H   H112      1.0  0.9301241679805454  0.13409509300329983  0.9476368089041892  1.0000
  C   C169      1.0  0.9749196215973277  0.10460679931967948  0.7938942771549682  1.0000
  C   C170      1.0  0.9473726779840388  0.10003451315807933  0.7709469762239605  1.0000
  C   C171      1.0  0.946127752126088  0.07645631326422818  0.7594975268861591  1.0000
  C   C172      1.0  0.972771453326066  0.05740694304228689  0.7708749710375565  1.0000
  C   C173      1.0  0.0009802563295928657  0.062110018483987284  0.7935227402181224  1.0000
  C   C174      1.0  0.00199907732264748  0.08563904874079181  0.8050329741005542  1.0000
  H   H113      1.0  0.9265216849463631  0.11468905421968367  0.7621729404347539  1.0000
  H   H114      1.0  0.9245026690658191  0.07303738315515935  0.7419213892678979  1.0000
  H   H115      1.0  0.021993703909263917  0.047506568511134474  0.8022543905970831  1.0000
  H   H116      1.0  0.024131014198083722  0.0891597482831328  0.8223539100373541  1.0000
  C   C175      1.0  0.05088636415127179  0.27985461141593615  0.8872406858947989  1.0000
  C   C176      1.0  0.05980801474000108  0.2570156987371901  0.8759925322773454  1.0000
  C   C177      1.0  0.03773884666547778  0.23547929796134517  0.8829432420515236  1.0000
  C   C178      1.0  0.007434478121680632  0.23657800397692158  0.9016619649966482  1.0000
  C   C179      1.0  0.9984054039030884  0.25943823332068516  0.9128279556666092  1.0000
  C   C180      1.0  0.01983938377650607  0.28107766648982174  0.905525033527707  1.0000
  H   H117      1.0  0.08370330338408705  0.25600540371743835  0.8617426370156682  1.0000
  H   H118      1.0  0.04443930892235737  0.21803326186472793  0.8739705489261747  1.0000
  H   H119      1.0  0.9749318081424855  0.2603981186341256  0.9273272410518639  1.0000
  H   H120      1.0  0.012651329573448278  0.29863617867374087  0.9142264075319256  1.0000
  C   C181      1.0  0.12560525670672024  0.4359668132853561  0.6408204479101122  1.0000
  C   C182      1.0  0.14375022304751064  0.45986536149571855  0.641320956530328  1.0000
  C   C183      1.0  0.17973857977702556  0.4655001520846787  0.6270571599857093  1.0000
  C   C184      1.0  0.19821736545926227  0.447175538981983  0.6124433430215023  1.0000
  C   C185      1.0  0.1803017547069398  0.4231614111783544  0.6120565639135949  1.0000
  C   C186      1.0  0.14376413119629694  0.41757692353922893  0.6260902820763639  1.0000
  H   H121      1.0  0.12993388287429486  0.47411341360073017  0.6527948270481922  1.0000
  H   H122      1.0  0.19371367031649755  0.4839063502043106  0.627816867674341  1.0000
  H   H123      1.0  0.19458051143995095  0.40888113437716644  0.6008412979217153  1.0000
  H   H124      1.0  0.13002609950557195  0.3990640003283766  0.6257270262744754  1.0000
  C   C187      1.0  0.9881451886400024  0.28741714223579756  0.6037911248646208  1.0000
  C   C188      1.0  0.9874229928240714  0.2725274194141525  0.5816336276198665  1.0000
  C   C189      1.0  0.9591645401372568  0.25170116511332036  0.5786008681240923  1.0000
  C   C190      1.0  0.9315436455426499  0.24561213692535713  0.5977913800004744  1.0000
  C   C191      1.0  0.9327011111170255  0.2603005693215377  0.6200846360131951  1.0000
  C   C192      1.0  0.9609503062389229  0.28108237929506685  0.6231142103323117  1.0000
  H   H125      1.0  0.00857028771887225  0.2771993389674794  0.5666624391019772  1.0000
  H   H126      1.0  0.9588227752850953  0.24038334657594945  0.5614313909016545  1.0000
  H   H127      1.0  0.9116281801689242  0.2556136231982267  0.6350793062421969  1.0000
  H   H128      1.0  0.9618046031146623  0.2920980871536146  0.6404713143164737  1.0000
  C   C193      1.0  0.016182453535000585  0.3615223640360163  0.7582326626441743  1.0000
  C   C194      1.0  0.04017815377045908  0.35512747349483836  0.781769117717612  1.0000
  C   C195      1.0  0.041373418540549656  0.3711595293620517  0.8030178206593921  1.0000
  C   C196      1.0  0.019483270644927497  0.3939708767438333  0.8005674180622124  1.0000
  C   C197      1.0  0.9959169102259281  0.40055891381525727  0.7769529280717772  1.0000
  C   C198      1.0  0.9939098391488553  0.38423216732496146  0.7558564766166884  1.0000
  H   H129      1.0  0.05833029847854827  0.3378507974506014  0.7834716177864729  1.0000
  H   H130      1.0  0.06004768394255872  0.36608981582215777  0.8211363504474012  1.0000
  H   H131      1.0  0.9787737880686046  0.41815944514213615  0.7750377658510565  1.0000
  H   H132      1.0  0.9746993145114045  0.38909984238491874  0.7378820491890303  1.0000
  C   C199      1.0  0.38535958971191026  0.46587679694430034  0.11993618948930075  1.0000
  C   C200      1.0  0.3830394810131592  0.4752020694022037  0.14493555119526305  1.0000
  C   C201      1.0  0.3787030903964707  0.5007168638749445  0.14907376832759225  1.0000
  C   C202      1.0  0.3761014943237246  0.5170008422373003  0.12814353627138825  1.0000
  C   C203      1.0  0.3780880340161004  0.5077060739328253  0.1031108936414508  1.0000
  C   C204      1.0  0.3830576539681163  0.48219954666009723  0.09901591941160486  1.0000
  H   H133      1.0  0.38483840343158027  0.46263874959993007  0.1611650679146602  1.0000
  H   H134      1.0  0.3771990251188137  0.5077120305116181  0.1684488522564788  1.0000
  H   H135      1.0  0.3761163382341529  0.5202406645756573  0.08686531710005661  1.0000
  H   H136      1.0  0.38487881760461967  0.47515213840618825  0.07969330827538378  1.0000
  C   C205      1.0  0.5079233885948667  0.3307642211535548  0.07995831345087911  1.0000
  C   C206      1.0  0.5267449252001152  0.3070688706312535  0.07898483550162008  1.0000
  C   C207      1.0  0.5247272255298306  0.29048120811959965  0.09963356533215019  1.0000
  C   C208      1.0  0.5045166734707596  0.29771502652313214  0.121539879246972  1.0000
  C   C209      1.0  0.48540178954347213  0.3213331875078586  0.1224083049649433  1.0000
  C   C210      1.0  0.48671605173341903  0.33773369074410026  0.10158874718518653  1.0000
  H   H137      1.0  0.5431784789911182  0.3016011601691222  0.06228022971965544  1.0000
  H   H138      1.0  0.5398330118670679  0.27238077014850665  0.09887300496764113  1.0000
  H   H139      1.0  0.4698758284043806  0.32710015965742756  0.13932884414636174  1.0000
  H   H140      1.0  0.47243896514974065  0.3560369941434066  0.10260609818026212  1.0000
  C   C211      1.0  0.2612387499880984  0.37992342634405035  0.9912641754374257  1.0000
  C   C212      1.0  0.23132136047015256  0.3647679597654596  0.975826833000065  1.0000
  C   C213      1.0  0.19445528556038527  0.37505866002988963  0.9606087428791029  1.0000
  C   C214      1.0  0.187353408720061  0.4005983863197518  0.9607759853635333  1.0000
  C   C215      1.0  0.21733077690989008  0.4157351753470009  0.9762180745101458  1.0000
  C   C216      1.0  0.2540720956463311  0.4054436771776453  0.9914981995710367  1.0000
  H   H141      1.0  0.23665296556095247  0.3450067983684655  0.975575901313613  1.0000
  H   H142      1.0  0.17151769707987982  0.36327674115356734  0.948762071789566  1.0000
  H   H143      1.0  0.21173110089502778  0.4354851833498339  0.9765735663657272  1.0000
  H   H144      1.0  0.2765601765660766  0.41722448450233013  0.0035992882259299197  1.0000
  C   C217      1.0  0.6718025399390999  0.5448387551301347  0.829683525583699  1.0000
  C   C218      1.0  0.6819087218049213  0.5518906606647499  0.8049720495547671  1.0000
  C   C219      1.0  0.657958238052939  0.5710371708093144  0.791527004593216  1.0000
  C   C220      1.0  0.6236690849098545  0.5833006131772102  0.8027328878403953  1.0000
  C   C221      1.0  0.6131528029910565  0.5760691132927086  0.8273331062352605  1.0000
  C   C222      1.0  0.6369952895119221  0.5568058450985756  0.8407391080683152  1.0000
  H   H145      1.0  0.7086267154831171  0.542613687245895  0.7962439931065212  1.0000
  H   H146      1.0  0.6663496223938778  0.5764376365575157  0.77259186335087  1.0000
  H   H147      1.0  0.5861908090985565  0.5852312156987979  0.835931707864175  1.0000
  H   H148      1.0  0.628357949265546  0.5511142786077026  0.8595305377293911  1.0000
  C   C223      1.0  0.5841686998344863  0.45476927181332544  0.961218827834798  1.0000
  C   C224      1.0  0.5671820763285363  0.4345223423937761  0.9739939939913622  1.0000
  C   C225      1.0  0.5266566118947205  0.43649205585072487  0.9853358851986994  1.0000
  C   C226      1.0  0.5024647883946457  0.4586233124278744  0.9835468661880108  1.0000
  C   C227      1.0  0.5193442850169756  0.4788615883372694  0.9706985549359821  1.0000
  C   C228      1.0  0.5603649052564242  0.4770405000193504  0.9597799725414905  1.0000
  H   H149      1.0  0.5853899008573547  0.41723125522221227  0.9751299194407604  1.0000
  H   H150      1.0  0.5139545478842242  0.42080557835596616  0.9952288310332912  1.0000
  H   H151      1.0  0.500728348514293  0.49602114918854273  0.9692541110578077  1.0000
  H   H152      1.0  0.5731547545996641  0.49271338820581717  0.9499042133048463  1.0000
  C   C229      1.0  0.862508473898822  0.458763415235761  0.938672847257579  1.0000
  C   C230      1.0  0.8337352074594365  0.4397841043396611  0.9290856134033947  1.0000
  C   C231      1.0  0.8510823874448291  0.41619593184302817  0.924490636322442  1.0000
  C   C232      1.0  0.8974211964710844  0.4116448303886184  0.9287372057376335  1.0000
  C   C233      1.0  0.9262623083972874  0.43078116953157325  0.9377614508933139  1.0000
  C   C234      1.0  0.9087817382937005  0.4541721400821456  0.9429711978443741  1.0000
  H   H153      1.0  0.7982105301384848  0.4433030079997653  0.9251915807582558  1.0000
  H   H154      1.0  0.8286749138628071  0.40152061149565316  0.917213023339158  1.0000
  H   H155      1.0  0.9619855785208968  0.4274198483006073  0.9412929977584379  1.0000
  H   H156      1.0  0.9312559042777645  0.46877002780094884  0.9504076744165488  1.0000
  C   C235      1.0  0.7010349252935045  0.5854134297045335  0.988637724991658  1.0000
  C   C236      1.0  0.7267775287750962  0.5697138259402086  0.00553758611410049  1.0000
  C   C237      1.0  0.7414680596065462  0.5777431081216913  0.030711366051267452  1.0000
  C   C238      1.0  0.7305137121322461  0.6014564138444408  0.039102421933179476  1.0000
  C   C239      1.0  0.7051170580796523  0.6171951186640788  0.022086323637886984  1.0000
  C   C240      1.0  0.6903252787878756  0.6091589680065808  0.9969812548012987  1.0000
  H   H157      1.0  0.7354290088450709  0.5514361194608938  0.9992293813142243  1.0000
  H   H158      1.0  0.7613539763285964  0.5655327555961863  0.04373767276848728  1.0000
  H   H159      1.0  0.6970991429627427  0.6356219081305714  0.028177525024482453  1.0000
  H   H160      1.0  0.6706088748891016  0.6214378299333695  0.9839618961681628  1.0000
  C   C241      1.0  0.7204164841406269  0.5885821214481931  0.6010761280495195  1.0000
  C   C242      1.0  0.761111109703564  0.5969027569888334  0.6137378065642375  1.0000
  C   C243      1.0  0.7631697687440941  0.6049203576736656  0.6395526832142473  1.0000
  C   C244      1.0  0.724632490709136  0.6045302926775036  0.6528277521470385  1.0000
  C   C245      1.0  0.6841439447779459  0.5959070174299707  0.6401975726080927  1.0000
  C   C246      1.0  0.681946496499171  0.5882236306519961  0.614328433124243  1.0000
  H   H161      1.0  0.7908080241861407  0.597571349977174  0.6035229803534247  1.0000
  H   H162      1.0  0.7945663782158463  0.6116185522945669  0.6492052704184181  1.0000
  H   H163      1.0  0.6545451676165336  0.5948127892673424  0.6504264082875629  1.0000
  H   H164      1.0  0.6504183400277521  0.5816641710413865  0.6047189367160929  1.0000
  C   C247      1.0  0.8908353723498926  0.47780100313438006  0.6117315704932873  1.0000
  C   C248      1.0  0.9253106702733805  0.465524120224732  0.6267384773691569  1.0000
  C   C249      1.0  0.9206346543352071  0.44057917824096204  0.6331226003625687  1.0000
  C   C250      1.0  0.8809377176976148  0.42789963042970613  0.625140834649189  1.0000
  C   C251      1.0  0.8460867085491011  0.44023549596109235  0.6103205353384145  1.0000
  C   C252      1.0  0.8511951488692084  0.4651374392797838  0.6033787822799707  1.0000
  H   H165      1.0  0.9560537040574146  0.4752106567916449  0.633226104836807  1.0000
  H   H166      1.0  0.9478318456340159  0.4312546944860002  0.6443696719820189  1.0000
  H   H167      1.0  0.8153728554248885  0.4304685950344426  0.604034691028043  1.0000
  H   H168      1.0  0.824425562736896  0.4745180655485772  0.591782758754804  1.0000
  C   C253      1.0  0.9431705709151628  0.607541523316273  0.5160087119735959  1.0000
  C   C254      1.0  0.980780628169315  0.6147787335972921  0.5038270207401593  1.0000
  C   C255      1.0  0.003151393204072761  0.6369455511609297  0.5107051127393072  1.0000
  C   C256      1.0  0.9872901929333511  0.6523885715708794  0.5292855158782915  1.0000
  C   C257      1.0  0.9498181342583674  0.6451172926790738  0.5416265507298171  1.0000
  C   C258      1.0  0.9279172916337974  0.6226099095220746  0.5351371074040965  1.0000
  H   H169      1.0  0.9928627704414548  0.6031115171172943  0.48909047261392274  1.0000
  H   H170      1.0  0.03246839650140787  0.6421118984287786  0.5014758965508651  1.0000
  H   H171      1.0  0.9375717892431457  0.6569764979860669  0.5561440359085231  1.0000
  H   H172      1.0  0.8989519159951409  0.6171253343957729  0.5446394638214959  1.0000
  C   C259      1.0  0.7217071708234347  0.4810338330568511  0.48340295515501575  1.0000
  C   C260      1.0  0.7042752513595872  0.47241530641616014  0.5056505513400548  1.0000
  C   C261      1.0  0.6610032232971048  0.4621444764863456  0.5039179471607133  1.0000
  C   C262      1.0  0.6350249320372452  0.4606537848204407  0.48000649829422465  1.0000
  C   C263      1.0  0.652743530135539  0.4688810956120833  0.4577098205932936  1.0000
  C   C264      1.0  0.6962673175935714  0.47878732774732646  0.45938943756070155  1.0000
  H   H173      1.0  0.7241640769533113  0.4737006703392799  0.5241559054805112  1.0000
  H   H174      1.0  0.6474300408815772  0.4556189485412192  0.521184152915193  1.0000
  H   H175      1.0  0.6328914171933943  0.4678593888575117  0.4392094380901675  1.0000
  H   H176      1.0  0.7098939412509053  0.4852770002416271  0.44211595304464785  1.0000
  C   C265      1.0  0.21304183071462093  0.9848719128162008  0.11852923434756706  1.0000
  C   C266      1.0  0.2132840128122512  0.009098904695787224  0.12793873787621807  1.0000
  C   C267      1.0  0.19805849295603542  0.014068475586535012  0.15207502349745217  1.0000
  C   C268      1.0  0.18234385640185757  0.9948542386799899  0.16679234865373066  1.0000
  C   C269      1.0  0.18262829534997685  0.9705943996783661  0.15753221993880787  1.0000
  C   C270      1.0  0.19796140103628368  0.9656205624664633  0.13345057989186593  1.0000
  H   H177      1.0  0.2248083267385651  0.02403030954645713  0.11655018434908762  1.0000
  H   H178      1.0  0.19795641565677108  0.0328690739738462  0.15916572839224677  1.0000
  H   H179      1.0  0.17142455733407236  0.9555968481727172  0.16898117101245672  1.0000
  H   H180      1.0  0.19789612208486332  0.9468208955975805  0.12631201576896436  1.0000
  C   C271      1.0  0.40349267180948584  0.09385096529883434  0.0848476685572336  1.0000
  C   C272      1.0  0.36972593569752615  0.10962314852096955  0.07403204678060311  1.0000
  C   C273      1.0  0.3760794447640835  0.13533073923475675  0.07530293088223143  1.0000
  C   C274      1.0  0.41596941640310997  0.14519988031921932  0.08754295055299859  1.0000
  C   C275      1.0  0.45010372938786075  0.1293664807256079  0.09765880037286306  1.0000
  C   C276      1.0  0.4439907585411267  0.10373319380136568  0.09619969063117141  1.0000
  H   H181      1.0  0.33839548886525844  0.10202224254609012  0.06518684056445936  1.0000
  H   H182      1.0  0.3496091381765848  0.1475369557530091  0.06732358539364007  1.0000
  H   H183      1.0  0.48109077342497425  0.1367942606768656  0.10677769131190243  1.0000
  H   H184      1.0  0.4701983459993884  0.09149660451573086  0.10446542889394077  1.0000
  C   C277      1.0  0.3844577347226549  0.9775476053324323  0.9949702221458903  1.0000
  C   C278      1.0  0.39874665738350273  0.9565293917948422  0.9821962824073834  1.0000
  C   C279      1.0  0.4406767388527221  0.9456526659808021  0.990011383951169  1.0000
  C   C280      1.0  0.4683705070068039  0.9558972555517369  0.010565338649429101  1.0000
  C   C281      1.0  0.4543485969329265  0.9771606055425417  0.022922282150814155  1.0000
  C   C282      1.0  0.4126739603463859  0.9879935399542096  0.015103537201084372  1.0000
  H   H185      1.0  0.3771300438441246  0.9484759272808478  0.9664665263665013  1.0000
  H   H186      1.0  0.4513801866232642  0.929304350968682  0.9803094322803527  1.0000
  H   H187      1.0  0.4754568732931777  0.9851603225790897  0.038880717721333946  1.0000
  H   H188      1.0  0.4024123650830861  0.004471685210357013  0.024702496516018302  1.0000
  C   C283      1.0  0.17562636762527475  0.09389200054716809  0.9911943692167917  1.0000
  C   C284      1.0  0.1413436394937121  0.11136849478537161  0.9860418993393862  1.0000
  C   C285      1.0  0.12976526548396616  0.11984547143371894  0.9607773950864513  1.0000
  C   C286      1.0  0.15328257615333157  0.1114248764832549  0.9406026952336096  1.0000
  C   C287      1.0  0.18857669047391065  0.09454557110695153  0.9458834076095628  1.0000
  C   C288      1.0  0.19941584229079357  0.08554107199251636  0.9710958004039122  1.0000
  H   H189      1.0  0.12342198031118767  0.11815791981522293  0.0016616292239446384  1.0000
  H   H190      1.0  0.1030556968365351  0.13310009805621448  0.9569958299482516  1.0000
  H   H191      1.0  0.20715599407306395  0.08811344672306964  0.9303716625580971  1.0000
  H   H192      1.0  0.2260641556808961  0.07212961251913509  0.9749435894531313  1.0000
  N   N1        1.0  0.16972724972994624  0.1689387889836955  0.4345230464580915  1.0000
  C   C289      1.0  0.18635109953798756  0.16230148278264087  0.46134216113367865  1.0000
  C   C290      1.0  0.1607295622533913  0.14624479123912207  0.4190042070631013  1.0000
  C   C291      1.0  0.2042147532168226  0.18380576655019262  0.4231399601300931  1.0000
  C   C292      1.0  0.1277822285564696  0.18336778419811833  0.434590677246778  1.0000
  H   H193      1.0  0.19405994400671545  0.17902724440905277  0.47345233609957227  1.0000
  H   H194      1.0  0.21756628355418184  0.15105232755216244  0.46204561887670414  1.0000
  H   H195      1.0  0.16123198182092824  0.15130243982109234  0.47070492089656996  1.0000
  H   H196      1.0  0.14816448589565456  0.1505678805127252  0.3986649541666258  1.0000
  H   H197      1.0  0.19162355937165976  0.13492238962554517  0.4185541872275591  1.0000
  H   H198      1.0  0.1349852279964674  0.13443696368454652  0.4268979046318416  1.0000
  H   H199      1.0  0.1931149813359263  0.18904988337227763  0.40283007517687636  1.0000
  H   H200      1.0  0.2362549810691319  0.17328334459753242  0.4229536275494207  1.0000
  H   H201      1.0  0.21198613766265773  0.20111739820197644  0.43428465250334614  1.0000
  H   H202      1.0  0.11436525562105104  0.1888407358311377  0.41469571170332326  1.0000
  H   H203      1.0  0.13307733942367594  0.20051647745296258  0.4463566686705358  1.0000
  H   H204      1.0  0.10101414879834048  0.17247725734016542  0.4428715361086086  1.0000
  N   N2        1.0  0.7282003581973137  0.8262789299009995  0.05115949163067368  1.0000
  C   C293      1.0  0.7699572532326981  0.8405476459595154  0.05761446618176058  1.0000
  C   C294      1.0  0.7328278805249963  0.8015647911181226  0.06318964317406772  1.0000
  C   C295      1.0  0.7198319461060697  0.8235055816382347  0.022816767109977487  1.0000
  C   C296      1.0  0.690125197249692  0.8394602023032459  0.06099785080680675  1.0000
  H   H205      1.0  0.767585931788923  0.8592458962457725  0.048632106036649025  1.0000
  H   H206      1.0  0.7993725176190889  0.831129431828072  0.050498660273461615  1.0000
  H   H207      1.0  0.7770101087402368  0.8432553803099355  0.07882512345225301  1.0000
  H   H208      1.0  0.7017644217989422  0.7904946018759753  0.058743388248403194  1.0000
  H   H209      1.0  0.760761767555019  0.7908582104447005  0.05596750547245066  1.0000
  H   H210      1.0  0.7391343072008876  0.8028283555864596  0.08458196324758727  1.0000
  H   H211      1.0  0.716310370308042  0.8418241704922472  0.01307769273424686  1.0000
  H   H212      1.0  0.6883880529827938  0.8129490662667124  0.01725466084418925  1.0000
  H   H213      1.0  0.7477147728758423  0.8135344213477869  0.014700096906075988  1.0000
  H   H214      1.0  0.6578968597210685  0.8296490184061075  0.05579461140709885  1.0000
  H   H215      1.0  0.6860211435329001  0.8583376765645232  0.05271693168767366  1.0000
  H   H216      1.0  0.6945703669362  0.8413867426943354  0.0823704634951099  1.0000
  N   N3        1.0  0.936421825559788  0.6908027709724353  0.4547388211761164  1.0000
  C   C297      1.0  0.9608114107425912  0.7001254383247651  0.43338368576233577  1.0000
  C   C298      1.0  0.8878781607262712  0.6955799612265922  0.4488697386610235  1.0000
  C   C299      1.0  0.9529327959847719  0.7035935041344182  0.4789808176538406  1.0000
  C   C300      1.0  0.9440411839094007  0.6639153783995784  0.45775174748473263  1.0000
  H   H217      1.0  0.9974603773729509  0.6966012138825353  0.4371092117290759  1.0000
  H   H218      1.0  0.956803769374468  0.7204706041336475  0.4308187312196476  1.0000
  H   H219      1.0  0.949200263875086  0.6911006749127879  0.414661307922418  1.0000
  H   H220      1.0  0.8810128811387004  0.7157137480070612  0.44646754251251  1.0000
  H   H221      1.0  0.8743063673759436  0.6861849133248188  0.43068448371554924  1.0000
  H   H222      1.0  0.8685831160301033  0.6887463850249865  0.46465419565186417  1.0000
  H   H223      1.0  0.9359122974997438  0.696766311966989  0.49569072005042825  1.0000
  H   H224      1.0  0.947809179793947  0.723928819805759  0.4775111548488335  1.0000
  H   H225      1.0  0.9894544274579528  0.7005176384008521  0.48394523612043355  1.0000
  H   H226      1.0  0.9804190660868348  0.6596415631556479  0.46177014395349814  1.0000
  H   H227      1.0  0.9314251141363097  0.653574576756783  0.4399869119634407  1.0000
  H   H228      1.0  0.9269934739991967  0.6563059429591883  0.47411131192700817  1.0000
  N   N4        1.0  0.11399100487078935  0.41751352795088564  0.7360038610348357  1.0000
  C   C301      1.0  0.15217317098876004  0.43098163904044945  0.726635880987728  1.0000
  C   C302      1.0  0.072913583733969  0.4327164562802572  0.7315464762743045  1.0000
  C   C303      1.0  0.12343983252340153  0.41245530080559545  0.7639278515897436  1.0000
  C   C304      1.0  0.10738227336582959  0.39387107813343053  0.7218644878463345  1.0000
  H   H229      1.0  0.14580961953476396  0.4351222883652268  0.7055845245029562  1.0000
  H   H230      1.0  0.18367026724365232  0.4199708184331473  0.7293937040318597  1.0000
  H   H231      1.0  0.15824743864286292  0.44892928400454013  0.7368533743793021  1.0000
  H   H232      1.0  0.04326586802131094  0.4229836359082907  0.7378813985023882  1.0000
  H   H233      1.0  0.0765377669730225  0.450589006245938  0.7421300548311022  1.0000
  H   H234      1.0  0.06486258103357051  0.4370549283271737  0.7107142327919215  1.0000
  H   H235      1.0  0.09543421139621701  0.40200125184752045  0.771377322825033  1.0000
  H   H236      1.0  0.1278450281925542  0.4298518104803151  0.7753464376292153  1.0000
  H   H237      1.0  0.1544173399607851  0.4011963421833945  0.7680751310730117  1.0000
  H   H238      1.0  0.137172169952511  0.38160072777007187  0.7253120154030518  1.0000
  H   H239      1.0  0.10150664375110148  0.3969663793699713  0.7007027483352462  1.0000
  H   H240      1.0  0.07788926173438344  0.38354360274640625  0.7276651828203486  1.0000
  N   N5        1.0  0.6957831362089472  0.20183642870351373  0.3702586101916519  1.0000
  C   C305      1.0  0.6853297174722378  0.22770179219312117  0.37662052682248987  1.0000
  C   C306      1.0  0.6558682529443859  0.18620672878971684  0.37247987080435363  1.0000
  C   C307      1.0  0.7335257342700515  0.19283155604794797  0.38835557391296216  1.0000
  C   C308      1.0  0.7081330670454604  0.20062971551641898  0.34348765533408626  1.0000
  H   H241      1.0  0.7145518516175932  0.2401002826941463  0.374956618575487  1.0000
  H   H242      1.0  0.6760537856092612  0.22935817852950566  0.39671811549715447  1.0000
  H   H243      1.0  0.6566072996091495  0.23493529793706117  0.3634559911177395  1.0000
  H   H244      1.0  0.6627316934100137  0.16642849533290127  0.36856226847346063  1.0000
  H   H245      1.0  0.6445949171846781  0.1873088461950944  0.39216552273166766  1.0000
  H   H246      1.0  0.6272094836166983  0.19208412477785305  0.3585596929302498  1.0000
  H   H247      1.0  0.7429682427255712  0.17354601462418304  0.3837934407446915  1.0000
  H   H248      1.0  0.724705846954355  0.19280498522567147  0.4086329016466861  1.0000
  H   H249      1.0  0.7638986836307431  0.20464134520914407  0.38790115762908145  1.0000
  H   H250      1.0  0.7156676026083472  0.18133939393272475  0.33786846341183385  1.0000
  H   H251      1.0  0.7382207099961416  0.2121571656180764  0.3410694987166602  1.0000
  H   H252      1.0  0.6802157289016498  0.20746044906791367  0.3294557905045962  1.0000
  N   N6        1.0  0.3540393579796847  0.5030887419223912  0.36677613601367715  1.0000
  C   C309      1.0  0.3530221664776472  0.47720072757742416  0.35759983101081166  1.0000
  C   C310      1.0  0.31557258620012646  0.5075056493238743  0.38191176149203915  1.0000
  C   C311      1.0  0.3514294932835893  0.5199097764753745  0.3443067985152188  1.0000
  C   C312      1.0  0.39629738671473486  0.5076725670707267  0.3833302345696402  1.0000
  H   H253      1.0  0.38138741693247513  0.47330653486991425  0.3458783122412964  1.0000
  H   H254      1.0  0.3213777038250838  0.47298907626098696  0.3452777626276961  1.0000
  H   H255      1.0  0.355583458646616  0.4639617615612422  0.3740725853559937  1.0000
  H   H256      1.0  0.315621504542211  0.5267751990958413  0.38943467707546786  1.0000
  H   H257      1.0  0.2830183286976584  0.5043096696447712  0.37006963327526426  1.0000
  H   H258      1.0  0.31670987293447206  0.49489340123395875  0.39891684231898394  1.0000
  H   H259      1.0  0.35216539325302454  0.5396347748698955  0.3504134320150596  1.0000
  H   H260      1.0  0.3201962272575756  0.5168292138903201  0.33118522764027913  1.0000
  H   H261      1.0  0.3802307651927418  0.5170047665274147  0.3326593740936018  1.0000
  H   H262      1.0  0.39920047464365765  0.527251387064879  0.3898323232591584  1.0000
  H   H263      1.0  0.42603651278812776  0.5034845625444488  0.37295333336071945  1.0000
  H   H264      1.0  0.3987038743127158  0.4959260364538642  0.4009239793511366  1.0000
  N   N7        1.0  0.5470639005737742  0.1485708412298487  0.0460574165297606  1.0000
  C   C313      1.0  0.5428322054419875  0.12494793687482614  0.05984626371268457  1.0000
  C   C314      1.0  0.5480831863363633  0.14357209266783333  0.01819857367010491  1.0000
  C   C315      1.0  0.5890144721857824  0.16118593581773555  0.05623863440043853  1.0000
  C   C316      1.0  0.5083123740195131  0.1645650579894228  0.050005853594928346  1.0000
  H   H265      1.0  0.5712516450151256  0.11224031164607047  0.05705165088961929  1.0000
  H   H266      1.0  0.5110542610045248  0.11514903388612266  0.05305876383982293  1.0000
  H   H267      1.0  0.5427214406873502  0.12800660920405924  0.0809592642186938  1.0000
  H   H268      1.0  0.5510145502853495  0.16098758499920315  0.0071205218548133775  1.0000
  H   H269      1.0  0.577196476916803  0.13164941610915348  0.014646787584283727  1.0000
  H   H270      1.0  0.5169794081764537  0.13392325613529493  0.009974886157341658  1.0000
  H   H271      1.0  0.5944101737228547  0.17854804832180768  0.045532534158156945  1.0000
  H   H272      1.0  0.6189498156773988  0.14917535406669932  0.05496078931159928  1.0000
  H   H273      1.0  0.5883088026366223  0.1664104943480483  0.07689510357856483  1.0000
  H   H274      1.0  0.5099899722004333  0.18249284947272068  0.03970125238505994  1.0000
  H   H275      1.0  0.5071144139835808  0.1689205149524957  0.07083500057951575  1.0000
  H   H276      1.0  0.47581974602010246  0.1555291712605795  0.04313433235440023  1.0000
  N   N8        1.0  0.7933029909950811  0.5279795872110904  0.6541787432469098  1.0000
  C   C317      1.0  0.7715447925775175  0.5461164377577173  0.6701843816284191  1.0000
  C   C318      1.0  0.8393065010718044  0.5227486760653319  0.666024079669694  1.0000
  C   C319      1.0  0.7955142902207623  0.5381822839955582  0.628036529598171  1.0000
  C   C320      1.0  0.7669225959981454  0.5048250316462828  0.6522943666275739  1.0000
  H   H277      1.0  0.7370324705140535  0.5508305357123859  0.6615252875917362  1.0000
  H   H278      1.0  0.790787620774036  0.5637629990334881  0.6721983145526245  1.0000
  H   H279      1.0  0.7686557356624066  0.5390030051048018  0.6899942358551716  1.0000
  H   H280      1.0  0.8564985833321415  0.508995644466539  0.6544326726937952  1.0000
  H   H281      1.0  0.8604034973620538  0.5397519465956819  0.6672405225453101  1.0000
  H   H282      1.0  0.8391122938227301  0.5151958360846938  0.6858788552615783  1.0000
  H   H283      1.0  0.8112243099525164  0.5248231570251927  0.6154522320290946  1.0000
  H   H284      1.0  0.815966705623191  0.5553970444448496  0.6285848928719762  1.0000
  H   H285      1.0  0.7614962130915832  0.5426424214175402  0.6185118896268871  1.0000
  H   H286      1.0  0.7826062703386618  0.49076440794949766  0.6403325655570203  1.0000
  H   H287      1.0  0.7321046756705907  0.5081229117758247  0.6432599534980277  1.0000
  H   H288      1.0  0.7644653680062342  0.4965648066037273  0.6716765247741214  1.0000
  N   N9        1.0  0.3532465140389186  0.4291384009942935  0.9436030349109837  1.0000
  C   C321      1.0  0.4024888447524895  0.4279740665817206  0.9429148815191923  1.0000
  C   C322      1.0  0.3428094203102485  0.44454817650406053  0.9656818018573472  1.0000
  C   C323      1.0  0.33531019111463606  0.4039279742029169  0.9465094298383632  1.0000
  C   C324      1.0  0.33229396849320675  0.44017758280599845  0.919374640445674  1.0000
  H   H289      1.0  0.4118713220731289  0.41676216221367823  0.9263654272975782  1.0000
  H   H290      1.0  0.4193199702896569  0.4196543764345962  0.9609062891073198  1.0000
  H   H291      1.0  0.4172998362906679  0.44676063005811456  0.9413627965329354  1.0000
  H   H292      1.0  0.3059791019613454  0.44584935521040275  0.9669622484956757  1.0000
  H   H293      1.0  0.3583164277754283  0.4367592731787196  0.9841831313545589  1.0000
  H   H294      1.0  0.35635511727738334  0.46364577376115385  0.9644004639890229  1.0000
  H   H295      1.0  0.29802181955573326  0.4040438714371018  0.9460531695497264  1.0000
  H   H296      1.0  0.3487171841668814  0.3954875851695698  0.9652394401843576  1.0000
  H   H297      1.0  0.3441068286514273  0.3914458192123342  0.930794558287371  1.0000
  H   H298      1.0  0.295119496911521  0.44143937843410164  0.9194100673499681  1.0000
  H   H299      1.0  0.3392844945721315  0.4289729521716189  0.90228393373901  1.0000
  H   H300      1.0  0.3451932826399001  0.45921195137568654  0.9166469954063344  1.0000
  N   N10       1.0  0.21134196134722738  0.6311469486156541  0.5833156151692439  1.0000
  C   C325      1.0  0.23309971592328038  0.6148488229399715  0.6036900692576096  1.0000
  C   C326      1.0  0.21684079481925123  0.6572767982502321  0.5913655162829056  1.0000
  C   C327      1.0  0.1629820439780416  0.6251330206665116  0.5789767305454568  1.0000
  C   C328      1.0  0.23234960943498573  0.6272880164460166  0.5591161815705176  1.0000
  H   H301      1.0  0.2186801194779846  0.6174400302165243  0.6223951202916135  1.0000
  H   H302      1.0  0.2698936525097446  0.6183097878605902  0.6071321424645446  1.0000
  H   H303      1.0  0.22882625205798446  0.5949597018648195  0.5983592734073454  1.0000
  H   H304      1.0  0.25292372348479164  0.6624612606535615  0.5948240020285257  1.0000
  H   H305      1.0  0.20089151052598186  0.6699745435007913  0.5762676456871789  1.0000
  H   H306      1.0  0.20109166428409453  0.6609632846342144  0.6094741542539805  1.0000
  H   H307      1.0  0.1457052275557036  0.6365061754235861  0.563117424013691  1.0000
  H   H308      1.0  0.1457153121332886  0.62843973656232  0.5966213783391298  1.0000
  H   H309      1.0  0.15769152129761355  0.6053583710413811  0.573528838259631  1.0000
  H   H310      1.0  0.21616782431954107  0.6388464516555505  0.5430666360751627  1.0000
  H   H311      1.0  0.22941912113780694  0.6076969715266527  0.5527740555409101  1.0000
  H   H312      1.0  0.2687289553913743  0.6319229718524624  0.5614658441298523  1.0000
  N   N11       1.0  0.5203200266082504  0.7131514947139493  0.07768850869779939  1.0000
  C   C329      1.0  0.5534473813881294  0.7013534675622715  0.06235777974399221  1.0000
  C   C330      1.0  0.48228976572865595  0.6960568495175318  0.07977390204183724  1.0000
  C   C331      1.0  0.5037543762151442  0.7361985983333393  0.06480052541933792  1.0000
  C   C332      1.0  0.5418103779985887  0.7189267557402159  0.10384477118098144  1.0000
  H   H313      1.0  0.5834706780326968  0.7132842430474117  0.06116214448079199  1.0000
  H   H314      1.0  0.5389505925693331  0.6974122361210107  0.04224748314622384  1.0000
  H   H315      1.0  0.5655123065446718  0.6835382874851562  0.0710889480613078  1.0000
  H   H316      1.0  0.4564928890765149  0.7043999847942491  0.09110430783128547  1.0000
  H   H317      1.0  0.46565359895247455  0.6909294954119864  0.060416528811458356  1.0000
  H   H318      1.0  0.49367589841071713  0.6785889043673364  0.0897179233235722  1.0000
  H   H319      1.0  0.47958414988945813  0.746005723851837  0.07614326208559918  1.0000
  H   H320      1.0  0.4865968274734415  0.7324661969425532  0.04520195124503856  1.0000
  H   H321      1.0  0.5317754549953352  0.7492163913695059  0.062306252398888366  1.0000
  H   H322      1.0  0.5550510643757985  0.701919381450289  0.11400110368716838  1.0000
  H   H323      1.0  0.5177048465772043  0.7275961048197986  0.11607904719818529  1.0000
  H   H324      1.0  0.570492731129144  0.7318900713191935  0.1030925162813966  1.0000
  N   N12       1.0  0.3267821008085092  0.9511606656445967  0.5618034434881406  1.0000
  C   C333      1.0  0.32251356795474856  0.966678467136939  0.5383105150601678  1.0000
  C   C334      1.0  0.3738790703262436  0.9431523017871295  0.5677972889227862  1.0000
  C   C335      1.0  0.29779957722030415  0.9291455911873385  0.5574089143893867  1.0000
  C   C336      1.0  0.3127304373335372  0.9655813272153575  0.5837624140746067  1.0000
  H   H325      1.0  0.2870678105063563  0.9727011369685127  0.5332524990555548  1.0000
  H   H326      1.0  0.332932108812766  0.9564423810860131  0.5213366306815598  1.0000
  H   H327      1.0  0.3434601725352934  0.98366252910803  0.5409494413003075  1.0000
  H   H328      1.0  0.377752234837437  0.9314693557961868  0.5855644313908942  1.0000
  H   H329      1.0  0.38549434172799635  0.9319458856104195  0.5518059431385042  1.0000
  H   H330      1.0  0.3968850439212714  0.9592310465662132  0.5712398519325926  1.0000
  H   H331      1.0  0.30647371973606474  0.9181399300329167  0.5405479357600538  1.0000
  H   H332      1.0  0.2619698591079874  0.9344701318479597  0.5536783944212837  1.0000
  H   H333      1.0  0.3007828586402601  0.9166908638410748  0.5744858602819111  1.0000
  H   H334      1.0  0.31477478354732746  0.9542664437202136  0.6017469981037821  1.0000
  H   H335      1.0  0.27744890252944526  0.9721580034821848  0.5798151922286953  1.0000
  H   H336      1.0  0.33432653418653424  0.982126707920972  0.5879036126556504  1.0000
  N   N13       1.0  0.03045717130498793  0.06698834238075957  0.9796066491966594  1.0000
  C   C337      1.0  0.05630366789283214  0.061708973450286475  0.004718483359097192  1.0000
  C   C338      1.0  0.058458922563868976  0.06159372924992934  0.9584221118972976  1.0000
  C   C339      1.0  0.017203078610861233  0.09330718209753286  0.9786375763991776  1.0000
  C   C340      1.0  0.989700378274219  0.051371144203290475  0.9765922575383293  1.0000
  H   H337      1.0  0.08739304387874935  0.07314299964008542  0.007580721344732755  1.0000
  H   H338      1.0  0.0670956528188662  0.04203882195402553  0.006107956016830229  1.0000
  H   H339      1.0  0.03618478332753816  0.06571467759388949  0.021095385551563872  1.0000
  H   H340      1.0  0.08998061041937877  0.07262408512458918  0.9603390354825697  1.0000
  H   H341      1.0  0.06837102498303738  0.04178466408103243  0.9582441775892301  1.0000
  H   H342      1.0  0.04034483131046951  0.06601283345623843  0.9392079383783327  1.0000
  H   H343      1.0  6.677162270274373e-05  0.09821640528429865  0.9594031714623615  1.0000
  H   H344      1.0  0.04674100768282452  0.10569515310871447  0.9821746250901551  1.0000
  H   H345      1.0  0.9936399651613822  0.09775994869058202  0.9932615780314425  1.0000
  H   H346      1.0  0.9702431287760701  0.05440838373813528  0.9574808677741113  1.0000
  H   H347      1.0  0.9667547125389242  0.05564126103338474  0.9916016286651622  1.0000
  H   H348      1.0  0.9981551758855992  0.031372170337245375  0.9779846361494533  1.0000
  N   N14       1.0  0.09777534410335342  0.8884288865093002  0.3136957319078193  1.0000
  C   C341      1.0  0.11776745230844478  0.8657690345517896  0.3037762952858007  1.0000
  C   C342      1.0  0.1336743800492055  0.9044160211363319  0.32626648478220555  1.0000
  C   C343      1.0  0.06610318061566037  0.8816391383234066  0.3325481437916661  1.0000
  C   C344      1.0  0.0734165365511827  0.9019886319656838  0.2920331150081608  1.0000
  H   H349      1.0  0.14185904376472966  0.8702222338957927  0.2894476864346425  1.0000
  H   H350      1.0  0.09159826213056797  0.8534618212365761  0.29378807299388976  1.0000
  H   H351      1.0  0.13624960300484842  0.8548862235660678  0.31954859615809866  1.0000
  H   H352      1.0  0.15286473817334942  0.8948766568222758  0.34279001695618533  1.0000
  H   H353      1.0  0.15800184364983608  0.909837853353945  0.31241011235467114  1.0000
  H   H354      1.0  0.11966675610250077  0.9218073527274476  0.33372336093077676  1.0000
  H   H355      1.0  0.05016472580441771  0.8983368042630512  0.3402360403869572  1.0000
  H   H356      1.0  0.08332622349980297  0.8713834187856151  0.34922798138113614  1.0000
  H   H357      1.0  0.038645034789079435  0.8695765826137043  0.3235261023803903  1.0000
  H   H358      1.0  0.09641114246321814  0.9073079425568713  0.27746984338856867  1.0000
  H   H359      1.0  0.057877710000473356  0.9192963549915162  0.29866072187571785  1.0000
  H   H360      1.0  0.0462293748380123  0.8904927313582478  0.2818795346254916  1.0000
  N   N15       1.0  0.06754413802468595  0.058571980949458924  0.5090686832858604  1.0000
  C   C345      1.0  0.07840754190549615  0.0510543329724944  0.4831071606241907  1.0000
  C   C346      1.0  0.06386575108839332  0.03629562627026428  0.525153956253732  1.0000
  C   C347      1.0  0.024484880342672932  0.07220428313244431  0.5068022113037797  1.0000
  C   C348      1.0  0.10366382513665284  0.07468064502882488  0.5211770490530627  1.0000
  H   H361      1.0  0.05145786581441625  0.03936839944446158  0.47304121896323165  1.0000
  H   H362      1.0  0.11022001180626706  0.04027826006194579  0.48417726666573696  1.0000
  H   H363      1.0  0.08263659543540958  0.06737053065996079  0.47062592581721563  1.0000
  H   H364      1.0  0.03713678628336137  0.0236096522750624  0.5165101719840618  1.0000
  H   H365      1.0  0.09599072969689137  0.025683986078445464  0.5272236498953328  1.0000
  H   H366      1.0  0.05562696749858742  0.04119319196076221  0.5449216367164202  1.0000
  H   H367      1.0  0.015188123433267142  0.07827402852877663  0.5260173907418605  1.0000
  H   H368      1.0  0.9964363664463115  0.06063678015674179  0.4976986564067473  1.0000
  H   H369      1.0  0.026133150177093167  0.08908124352631752  0.4946873011018605  1.0000
  H   H370      1.0  0.1366771028628626  0.06499157462093752  0.5230344403654248  1.0000
  H   H371      1.0  0.09668309841880429  0.08066854867017836  0.5408419051405557  1.0000
  H   H372      1.0  0.10749908907440364  0.09162317479091286  0.5095248874687125  1.0000
  N   N16       1.0  0.48252432121819006  0.12736492753781345  0.438125399003579  1.0000
  C   C349      1.0  0.5217021662130938  0.11396252739450909  0.4508461855994072  1.0000
  C   C350      1.0  0.47581534564765043  0.15045764537855372  0.4524662593402084  1.0000
  C   C351      1.0  0.4419110851327448  0.111742957097457  0.43780850579757935  1.0000
  C   C352      1.0  0.49077699490420884  0.13338540456041492  0.41132356525024893  1.0000
  H   H373      1.0  0.5282486170141156  0.09661996108377903  0.44033885546765134  1.0000
  H   H374      1.0  0.5166267493013934  0.10901829110381762  0.47109450278968357  1.0000
  H   H375      1.0  0.5527612446734959  0.12546894153278432  0.45152305344459875  1.0000
  H   H376      1.0  0.4465127050466239  0.16106752029591284  0.44342591677604065  1.0000
  H   H377      1.0  0.4697244330142915  0.14667958181050156  0.47282506330849494  1.0000
  H   H378      1.0  0.5058097297294749  0.16274444022607823  0.45289994199751354  1.0000
  H   H379      1.0  0.4120807120528009  0.12114659625619897  0.4277146131754421  1.0000
  H   H380      1.0  0.43376437892067643  0.10736357491530357  0.4576989452662162  1.0000
  H   H381      1.0  0.44604174073986275  0.0939782361136068  0.4275099654080699  1.0000
  H   H382      1.0  0.46275444301619345  0.14436062574657454  0.40146267398665597  1.0000
  H   H383      1.0  0.49444058478973896  0.11645889174915604  0.3995723481552278  1.0000
  H   H384      1.0  0.5218906891500555  0.1445097388091293  0.4107799076381198  1.0000
  N   N17       1.0  0.8878185786168142  0.0652833315972465  0.8436105920336445  1.0000
  C   C353      1.0  0.9315841620611157  0.0543907176268715  0.8532654760110282  1.0000
  C   C354      1.0  0.8907532526787083  0.0925220799059092  0.845214289509928  1.0000
  C   C355      1.0  0.8529158732701796  0.056480032764510454  0.8595950912867659  1.0000
  C   C356      1.0  0.8761421291948778  0.05779522154340072  0.8164261240836876  1.0000
  H   H385      1.0  0.9414041580046518  0.05961286013234922  0.8737438805382197  1.0000
  H   H386      1.0  0.9587846178799245  0.060886701530864756  0.8418754548677053  1.0000
  H   H387      1.0  0.9307552378280205  0.033860488350722306  0.8521258756029683  1.0000
  H   H388      1.0  0.8587827960501899  0.1014743140540867  0.8374518056858105  1.0000
  H   H389      1.0  0.8984243168805864  0.09883379655312392  0.8655249855634167  1.0000
  H   H390      1.0  0.9176747411106451  0.09980929238428694  0.8340546271519039  1.0000
  H   H391      1.0  0.819488948294721  0.06448871000780503  0.852996812718696  1.0000
  H   H392      1.0  0.86100071444362  0.061853007848793655  0.8802552717633189  1.0000
  H   H393      1.0  0.8496861154298693  0.03598897377295285  0.8588525086309574  1.0000
  H   H394      1.0  0.9016889423163342  0.0644468491876055  0.8039323919352389  1.0000
  H   H395      1.0  0.8432164462690978  0.06555890219785006  0.8084716248374781  1.0000
  H   H396      1.0  0.8742873637124112  0.0373267519710827  0.814320340486837  1.0000
  N   N18       1.0  0.9236112079685763  0.7692024614518377  0.18105916768739738  1.0000
  C   C357      1.0  0.8800987079798646  0.7560578896612223  0.1779055736387968  1.0000
  C   C358      1.0  0.958605884258118  0.7525105375856439  0.1931344260456408  1.0000
  C   C359      1.0  0.9201209026770086  0.7911033483906185  0.19776999066313292  1.0000
  C   C360      1.0  0.9359441801821319  0.77703716729705  0.15551957531822871  1.0000
  H   H397      1.0  0.8528450625225931  0.7678196525902227  0.16839770084617517  1.0000
  H   H398      1.0  0.8696237048266552  0.7502163872132888  0.19691337607035883  1.0000
  H   H399      1.0  0.8819934277030438  0.7390169543500682  0.16598616394164317  1.0000
  H   H400      1.0  0.9915392669800791  0.7621260684382528  0.1966225487182651  1.0000
  H   H401      1.0  0.9498410571747398  0.7456486361283187  0.2121146032402826  1.0000
  H   H402      1.0  0.9632898506750001  0.7360200404084675  0.18085517683784214  1.0000
  H   H403      1.0  0.9523013269224576  0.801633159542628  0.20020022481735222  1.0000
  H   H404      1.0  0.9126584247901294  0.7856402887799032  0.2175451754576324  1.0000
  H   H405      1.0  0.8932623386932914  0.8039134238928703  0.18973652318117984  1.0000
  H   H406      1.0  0.9689885358425038  0.7867132710054803  0.15730288200280795  1.0000
  H   H407      1.0  0.9104884325834812  0.7898321359706127  0.14586880242627231  1.0000
  H   H408      1.0  0.9387506401469684  0.7608186181767903  0.14254541249874497  1.0000
  N   N19       1.0  0.049657141144424426  0.9932482644584777  0.12006181917167447  1.0000
  C   C361      1.0  0.061928162615254745  0.9945943731007311  0.14824014152962994  1.0000
  C   C362      1.0  0.014207782315641019  0.011604767437498163  0.11251470511431405  1.0000
  C   C363      1.0  0.032883624412205714  0.9681534262771122  0.11312332322763097  1.0000
  C   C364      1.0  0.08966813801804717  0.9985535649564294  0.10648595502265046  1.0000
  H   H409      1.0  0.08894112150183368  0.9812096969278279  0.15448293292067672  1.0000
  H   H410      1.0  0.03278835085338105  0.9901669391295567  0.1591121126612336  1.0000
  H   H411      1.0  0.07447275799569517  0.01326686720502823  0.1544029842502881  1.0000
  H   H412      1.0  0.025777306674628322  0.03075340041147889  0.11738642359346407  1.0000
  H   H413      1.0  0.0034295128695312088  0.010867644843006506  0.09143562185861476  1.0000
  H   H414      1.0  0.9838348168397291  0.008229357236615886  0.12269695763346089  1.0000
  H   H415      1.0  0.05838022281430414  0.9537825280397572  0.11926439277671097  1.0000
  H   H416      1.0  0.02398932479607228  0.9662255649963204  0.09194653698414568  1.0000
  H   H417      1.0  0.0022794851405514415  0.9636716542028374  0.12271810951734685  1.0000
  H   H418      1.0  0.08148885442286018  0.9985458090216727  0.0851582280070331  1.0000
  H   H419      1.0  0.11627560575071308  0.984432206189497  0.11102607940134268  1.0000
  H   H420      1.0  0.10466958520112943  0.016834342320003026  0.11221241001779036  1.0000
  N   N20       1.0  0.331694614976091  0.928907176047041  0.05055264270129061  1.0000
  C   C365      1.0  0.3049897930594239  0.9411754383462376  0.028757476693356043  1.0000
  C   C366      1.0  0.32997483260302407  0.9018510785161467  0.04663329325405159  1.0000
  C   C367      1.0  0.31303665243281437  0.9352422006902692  0.07497025218953444  1.0000
  C   C368      1.0  0.37883220877108115  0.9373536645329565  0.05180965260112475  1.0000
  H   H421      1.0  0.2692846472971187  0.9351409835174352  0.027032270977549677  1.0000
  H   H422      1.0  0.31869834429902555  0.9373619592640209  0.010024941523123054  1.0000
  H   H423      1.0  0.30500516504347264  0.9615823468979864  0.03118851735938022  1.0000
  H   H424      1.0  0.3501277896055615  0.8919957427211613  0.06260498769390678  1.0000
  H   H425      1.0  0.29488924655044196  0.8948239920820867  0.045745956147768344  1.0000
  H   H426      1.0  0.34367329645370465  0.8965640848808827  0.028261350826784604  1.0000
  H   H427      1.0  0.33156687655798506  0.9258706482247281  0.09181395176537693  1.0000
  H   H428      1.0  0.2769622420251681  0.9300014292914114  0.07444441003786048  1.0000
  H   H429      1.0  0.3149449202474158  0.9554890330579136  0.07879847199695036  1.0000
  H   H430      1.0  0.3941147907432802  0.9326697159395329  0.0337971581571721  1.0000
  H   H431      1.0  0.40000730466929835  0.9287111963088237  0.06816280843971734  1.0000
  H   H432      1.0  0.3813657454843793  0.9577536847274933  0.05434424275549369  1.0000
  N   N21       1.0  0.6370962796703948  0.5421493410007846  0.5082271670699022  1.0000
  C   C369      1.0  0.6001847767663256  0.5499775697852617  0.5232553117977087  1.0000
  C   C370      1.0  0.6603951698687833  0.5641846583889999  0.4993513521664363  1.0000
  C   C371      1.0  0.6187627630845282  0.5274087265861879  0.485629456776407  1.0000
  C   C372      1.0  0.6693097265426856  0.5269707432307751  0.52475457238237  1.0000
  H   H433      1.0  0.5822365709496118  0.533736935442714  0.5304365795298402  1.0000
  H   H434      1.0  0.5750147129534966  0.5613837693057594  0.5113817018468427  1.0000
  H   H435      1.0  0.6131419958268116  0.5612143540541641  0.5404094387994488  1.0000
  H   H436      1.0  0.675142855971983  0.5755416342811319  0.5159769839872728  1.0000
  H   H437      1.0  0.6884821260795942  0.5588664980092536  0.4879420496177788  1.0000
  H   H438      1.0  0.6371184654979315  0.5762178305574309  0.486954670113856  1.0000
  H   H439      1.0  0.6459420683483449  0.5211930428528918  0.4739943239878556  1.0000
  H   H440      1.0  0.5942477428949635  0.5382019743487487  0.472648469265484  1.0000
  H   H441      1.0  0.6011926183087539  0.5104970219872674  0.4915939862296524  1.0000
  H   H442      1.0  0.6992214722448098  0.5222522096509086  0.5146444678818138  1.0000
  H   H443      1.0  0.6537289682580713  0.5094409482728632  0.5305754487911578  1.0000
  H   H444      1.0  0.6817078713324749  0.5368759848314049  0.5427691661904696  1.0000
  N   N22       1.0  0.6187303010262162  0.3774677130850409  0.4457814472721431  1.0000
  C   C373      1.0  0.6289917296262842  0.39852938786672587  0.4293044088220804  1.0000
  C   C374      1.0  0.6492675003848278  0.37804859589560363  0.46992443961631053  1.0000
  C   C375      1.0  0.6244953526539355  0.35407521808023606  0.431759123921503  1.0000
  C   C376      1.0  0.5718462814892561  0.37935972320607536  0.452078508775531  1.0000
  H   H445      1.0  0.6070349342917031  0.39837655730901184  0.41069138294891544  1.0000
  H   H446      1.0  0.6643746565216456  0.3980589166319603  0.42453577456371705  1.0000
  H   H447      1.0  0.6238062671630905  0.4165060311184827  0.4390497234134569  1.0000
  H   H448      1.0  0.6421822596868069  0.36253646934695083  0.48294304350816186  1.0000
  H   H449      1.0  0.685017734756978  0.37669070868795246  0.46593948738482444  1.0000
  H   H450      1.0  0.6454643786941806  0.3956570655073606  0.48071277353472514  1.0000
  H   H451      1.0  0.6018190621722528  0.353362514362352  0.41338921135319406  1.0000
  H   H452      1.0  0.6162869715454066  0.3377460809505688  0.44341140011307406  1.0000
  H   H453      1.0  0.6594910557406933  0.3519263553624548  0.4266687255001414  1.0000
  H   H454      1.0  0.5622490659492787  0.36339206825198606  0.46380715172491477  1.0000
  H   H455      1.0  0.5481630965491311  0.3797253328958352  0.43421502920027455  1.0000
  H   H456      1.0  0.5663848303642358  0.39654693747473574  0.4631514861042289  1.0000
  N   N23       1.0  0.371116186538752  0.30593373973774834  0.05077510142700852  1.0000
  C   C377      1.0  0.3387618546000531  0.2941385649659993  0.03119273813653889  1.0000
  C   C378      1.0  0.40177620207141307  0.32190022117749556  0.03767592436426059  1.0000
  C   C379      1.0  0.39757794901739507  0.28683138907277933  0.06583670171524893  1.0000
  C   C380      1.0  0.34648237830227296  0.3210566358257614  0.06838008561362037  1.0000
  H   H457      1.0  0.315150017177879  0.28181421021491454  0.04031470554945127  1.0000
  H   H458      1.0  0.3562741800679707  0.2829070506724579  0.017349113221649226  1.0000
  H   H459      1.0  0.31827562549548805  0.3083371445512655  0.01977721945260535  1.0000
  H   H460      1.0  0.4250322194170249  0.33192321616484366  0.05194435539024899  1.0000
  H   H461      1.0  0.42274852868363894  0.31113522688920503  0.025187550107552692  1.0000
  H   H462      1.0  0.3832035982455429  0.3361017083421789  0.025420465814215643  1.0000
  H   H463      1.0  0.4224528497442511  0.29538009971601054  0.08063129727500472  1.0000
  H   H464      1.0  0.41691913785408385  0.27516118572616305  0.05324751847908763  1.0000
  H   H465      1.0  0.37573189299814047  0.2744449305907509  0.07617604953150908  1.0000
  H   H466      1.0  0.32735915913426433  0.33623411788843116  0.057771445263930944  1.0000
  H   H467      1.0  0.36986608680477145  0.32979306998994146  0.08379165280772986  1.0000
  H   H468      1.0  0.32208010166604  0.30976875350689953  0.07808365285676853  1.0000
  N   N24       1.0  0.9239898839350709  0.15600003851116093  0.6361264376065398  1.0000
  C   C381      1.0  0.925064697356423  0.15291551246947327  0.6644045147353767  1.0000
  C   C382      1.0  0.8789656840685909  0.16462052944722  0.6256402137268796  1.0000
  C   C383      1.0  0.9338213159528883  0.1320259944037035  0.6242183571168428  1.0000
  C   C384      1.0  0.9579924176617991  0.1744607954969479  0.6302996166058014  1.0000
  H   H469      1.0  0.958560359253811  0.1464255468244947  0.672998211383073  1.0000
  H   H470      1.0  0.8997694789050215  0.1390395590466763  0.669419010995666  1.0000
  H   H471      1.0  0.9175846436249829  0.170635338654452  0.6739953021054766  1.0000
  H   H472      1.0  0.8522138015765447  0.15182742089560872  0.6306945100662876  1.0000
  H   H473      1.0  0.8713253892811056  0.18323745699173796  0.633229996894152  1.0000
  H   H474      1.0  0.8762546179813197  0.1661454585748588  0.6041916427479703  1.0000
  H   H475      1.0  0.9307223953394562  0.13320481845448784  0.6027441534496794  1.0000
  H   H476      1.0  0.9101507905231774  0.11739817262433519  0.6293406215167042  1.0000
  H   H477      1.0  0.9683436230520495  0.12552014690124333  0.6307091016926418  1.0000
  H   H478      1.0  0.9579138239481899  0.17728907532795082  0.6091222441871501  1.0000
  H   H479      1.0  0.9924491486762269  0.16875273191423779  0.6379647914545787  1.0000
  H   H480      1.0  0.9511694522413477  0.19288614011877395  0.6386715958476799  1.0000
  N   N25       1.0  0.47671100715531856  0.6488032809298746  0.6276149436377892  1.0000
  C   C385      1.0  0.44619247725840316  0.6698124420363488  0.6210101763390495  1.0000
  C   C386      1.0  0.47850410408677174  0.6439082546711491  0.6556147723610535  1.0000
  C   C387      1.0  0.5222384897140746  0.6549295365692785  0.6208656270118119  1.0000
  C   C388      1.0  0.4600265811798841  0.626561083986415  0.6131081124312286  1.0000
  H   H481      1.0  0.4440040447377474  0.6741383453535713  0.600017208043304  1.0000
  H   H482      1.0  0.45799521231571655  0.6868200129414684  0.6317703213988813  1.0000
  H   H483      1.0  0.4115990637644425  0.66573855713188  0.6259403255318683  1.0000
  H   H484      1.0  0.5014164816330254  0.6282706811394729  0.6612835074856391  1.0000
  H   H485      1.0  0.49097213619125013  0.6602531264028558  0.6672053088653624  1.0000
  H   H486      1.0  0.44485540821390496  0.6390206614483346  0.6614459040017585  1.0000
  H   H487      1.0  0.545522661019658  0.6389783905294121  0.6245651558811969  1.0000
  H   H488      1.0  0.5369247546842718  0.6708180448456784  0.6325196249533411  1.0000
  H   H489      1.0  0.5219827469755445  0.6597747967908049  0.6000876763025295  1.0000
  H   H490      1.0  0.48345312934684986  0.6106848214854282  0.6169388635259885  1.0000
  H   H491      1.0  0.4565547066272331  0.6298019549315858  0.5919049205948402  1.0000
  H   H492      1.0  0.42675588721241037  0.6205082933056824  0.6187116308990043  1.0000
  N   N26       1.0  0.7501596298386857  0.42704017607777733  0.9885928105607428  1.0000
  C   C389      1.0  0.7606421117223205  0.403683956592803  0.0026046186507200364  1.0000
  C   C390      1.0  0.7364531144658369  0.4215443953972354  0.9610995135682249  1.0000
  C   C391      1.0  0.7904031605638938  0.44308184221879987  0.9906805841591565  1.0000
  C   C392      1.0  0.7130870578104098  0.43979335323532737  0.9999361308245076  1.0000
  H   H493      1.0  0.7711126576138683  0.40712634268567266  0.02343616640850521  1.0000
  H   H494      1.0  0.7884836156666348  0.3935790505515035  0.9945004839617437  1.0000
  H   H495      1.0  0.7309227973873964  0.39117355988030855  0.0013279035712663312  1.0000
  H   H496      1.0  0.7629052403314435  0.411142821833155  0.9520980393311373  1.0000
  H   H497      1.0  0.7049765511306338  0.4104169241776478  0.9586487479126242  1.0000
  H   H498      1.0  0.7296305945223737  0.43883001284641865  0.9498118882485226  1.0000
  H   H499      1.0  0.7840106867929423  0.46065713284410476  0.9797999209436772  1.0000
  H   H500      1.0  0.8192778837926117  0.4338994868753067  0.9826578854920102  1.0000
  H   H501      1.0  0.8012715671891771  0.4480921890141844  0.011090505144206286  1.0000
  H   H502      1.0  0.721845143219935  0.4440142709718177  0.020752274878026222  1.0000
  H   H503      1.0  0.6817761639404688  0.42848749225092125  0.9980787468576019  1.0000
  H   H504      1.0  0.7044949776608826  0.4575566005104157  0.9899183815336768  1.0000
  N   N27       1.0  0.3273272751505306  0.43609274511213375  0.5395375503789918  1.0000
  C   C393      1.0  0.3574668681381357  0.43066850314594557  0.5194223396650173  1.0000
  C   C394      1.0  0.28316963446275806  0.444202737448291  0.5271441124862098  1.0000
  C   C395      1.0  0.3471912465100078  0.45592134449622096  0.5566137732234644  1.0000
  C   C396      1.0  0.3214198150937333  0.413648318873316  0.5550080482835641  1.0000
  H   H505      1.0  0.39114747455714743  0.4245011280616123  0.5280238475338959  1.0000
  H   H506      1.0  0.36270626360315505  0.4473513727039509  0.5076287897576393  1.0000
  H   H507      1.0  0.3434115469081158  0.41599770082593324  0.5059285426994368  1.0000
  H   H508      1.0  0.2862704874777852  0.4612781035597961  0.5155784738809676  1.0000
  H   H509      1.0  0.2672878545822764  0.42977748198432764  0.5139822853666662  1.0000
  H   H510      1.0  0.2595002296774831  0.44834733538653804  0.5417796289055344  1.0000
  H   H511      1.0  0.3810889051216192  0.4508198899195688  0.5657799476635883  1.0000
  H   H512      1.0  0.3259207596195322  0.4600293929167705  0.5724149156400541  1.0000
  H   H513      1.0  0.3507720635174128  0.4734098259491154  0.5458217359037363  1.0000
  H   H514      1.0  0.3539901058974578  0.4071504822776979  0.5648728558799951  1.0000
  H   H515      1.0  0.30647756488828387  0.3982716564780773  0.5427814022334263  1.0000
  H   H516      1.0  0.29861789332666544  0.4172471037127132  0.5702922945801757  1.0000
  N   N28       1.0  0.6185121938656132  0.5798022579275458  0.08375926776381859  1.0000
  C   C397      1.0  0.6439950674907896  0.5890676230093799  0.10764121747124282  1.0000
  C   C398      1.0  0.5737435709144911  0.5712628001890062  0.08966757180253426  1.0000
  C   C399      1.0  0.6433488826337277  0.5591358815012174  0.07319608595652434  1.0000
  C   C400      1.0  0.6131274863529149  0.5998925803380178  0.0645103664404203  1.0000
  H   H517      1.0  0.6781129984274934  0.5954878066821173  0.103888403687243  1.0000
  H   H518      1.0  0.6484616289484861  0.5744857140836128  0.1227099194060785  1.0000
  H   H519      1.0  0.6266104835814121  0.6049455345581657  0.11595401374496779  1.0000
  H   H520      1.0  0.5534117932513168  0.5643050507813315  0.07204256699038378  1.0000
  H   H521      1.0  0.5764302289669893  0.5560297402868799  0.10409169745003127  1.0000
  H   H522      1.0  0.554489995040371  0.5865567014844201  0.09782619107878668  1.0000
  H   H523      1.0  0.6255042012456916  0.5518864526996854  0.05492130783958704  1.0000
  H   H524      1.0  0.6479665372141198  0.5435430452604351  0.08711679334689323  1.0000
  H   H525      1.0  0.6774016370318364  0.5651654076082703  0.06877944959483807  1.0000
  H   H526      1.0  0.5951891520962008  0.5934447669736772  0.04594420433136092  1.0000
  H   H527      1.0  0.6463030551129825  0.6071507727505153  0.060187627634306656  1.0000
  H   H528      1.0  0.593902769422366  0.6156622964973633  0.07161066120320315  1.0000
  N   N29       1.0  0.01654927511466897  0.5358279297445707  0.5477126868051363  1.0000
  C   C401      1.0  0.0528904573365756  0.521535640462962  0.562196938044377  1.0000
  C   C402      1.0  0.03585749559212981  0.5577720830986395  0.5360982442032144  1.0000
  C   C403      1.0  0.9837174149117965  0.5438257811307796  0.5654408953896161  1.0000
  C   C404      1.0  0.9937102357896144  0.5202743932068433  0.5270133034640713  1.0000
  H   H529      1.0  0.07109302862371991  0.5328663649534243  0.577790233018521  1.0000
  H   H530      1.0  0.07843253334103473  0.5153962664290209  0.5493792121293214  1.0000
  H   H531      1.0  0.039594616633076285  0.5048159743515673  0.5713101973239069  1.0000
  H   H532      1.0  0.009446952987786306  0.5689874863910133  0.5250883528251357  1.0000
  H   H533      1.0  0.05356626443825685  0.5699097790161788  0.5511095890594131  1.0000
  H   H534      1.0  0.060541837892623906  0.5524571953450351  0.522432969801951  1.0000
  H   H535      1.0  0.9560418437878738  0.5548127979986348  0.5550931916019424  1.0000
  H   H536      1.0  0.9997482973761703  0.5555742210820861  0.5813392837045328  1.0000
  H   H537      1.0  0.968153978571797  0.5277051161835544  0.5744226411172445  1.0000
  H   H538      1.0  0.977708757423526  0.5038140555981427  0.5350848772325092  1.0000
  H   H539      1.0  0.017643118890307452  0.5136159445044655  0.513502519405263  1.0000
  H   H540      1.0  0.9668333762722562  0.5308184807636261  0.5153556141516726  1.0000
  N   N30       1.0  0.887440700817583  0.3353568271821125  0.5715869001031217  1.0000
  C   C405      1.0  0.8713399567932151  0.30978182776778873  0.5665784753016142  1.0000
  C   C406      1.0  0.8522769387630568  0.35314068185316555  0.5618770684310267  1.0000
  C   C407      1.0  0.9283599670585596  0.33959795838574  0.5584702101154683  1.0000
  C   C408      1.0  0.8979943665363491  0.3390149669412245  0.5996382713018065  1.0000
  H   H541      1.0  0.8633911677364547  0.306194993410581  0.5455583105011361  1.0000
  H   H542      1.0  0.840655313488412  0.3058577217795068  0.5763083134387671  1.0000
  H   H543      1.0  0.8971705406776328  0.29600963903731564  0.5739568097491398  1.0000
  H   H544      1.0  0.8434343169381008  0.3511066744622513  0.5407048826268004  1.0000
  H   H545      1.0  0.8211063462562723  0.35051713600776435  0.571573200466757  1.0000
  H   H546      1.0  0.8635478368457121  0.37257571064377126  0.5657461248418503  1.0000
  H   H547      1.0  0.9425984017449325  0.3583540442334618  0.5627930801614962  1.0000
  H   H548      1.0  0.9215340450855384  0.33770512422044596  0.5371597829629813  1.0000
  H   H549      1.0  0.9551546522051434  0.3260533445519683  0.564918325668463  1.0000
  H   H550      1.0  0.9100855871826149  0.358117229143967  0.6040789270767155  1.0000
  H   H551      1.0  0.9248111758245461  0.3262167010375839  0.6075976236859628  1.0000
  H   H552      1.0  0.8681517539900213  0.33595615122225725  0.6103837865008721  1.0000
  N   N31       1.0  0.7660419021645486  0.08724703383419619  0.15756371451343926  1.0000
  C   C409      1.0  0.7274720808430947  0.1010250600306477  0.16606484308256084  1.0000
  C   C410      1.0  0.7961937642534584  0.1046365198382655  0.1458041230712166  1.0000
  C   C411      1.0  0.7494760909234186  0.06836827603934559  0.13836973847891973  1.0000
  C   C412      1.0  0.7910647126925214  0.074927093358919  0.1799098330996574  1.0000
  H   H553      1.0  0.7079883128002552  0.1104100741759666  0.14947494266591055  1.0000
  H   H554      1.0  0.7386257076704611  0.11558178832611943  0.18043588357417262  1.0000
  H   H555      1.0  0.7038821005309955  0.08853585373102879  0.1750073506070345  1.0000
  H   H556      1.0  0.7783898109327606  0.1143561061102969  0.1289057973535032  1.0000
  H   H557      1.0  0.8095667535869882  0.11903465109198175  0.1598022471933258  1.0000
  H   H558      1.0  0.8255385328430781  0.094842239947873  0.13893890384270746  1.0000
  H   H559      1.0  0.7774794846555096  0.057210602467844485  0.1318992884291131  1.0000
  H   H560      1.0  0.7317581917996944  0.07700897192656209  0.12090967002059333  1.0000
  H   H561      1.0  0.7256184685820167  0.055322966984798994  0.146277001923313  1.0000
  H   H562      1.0  0.8041614290639982  0.08854304027709725  0.19485243105525735  1.0000
  H   H563      1.0  0.8204259524611799  0.06445473116173095  0.17388331290644027  1.0000
  H   H564      1.0  0.7695058218803822  0.061488062447464076  0.18913633180071798  1.0000
  N   N32       1.0  0.13424788859900794  0.8486056661568295  0.5164650587307134  1.0000
  C   C413      1.0  0.11374886849322048  0.8592127157489562  0.5386932912341754  1.0000
  C   C414      1.0  0.11943940068385565  0.8226860611132211  0.5125258094251919  1.0000
  C   C415      1.0  0.18369866776690003  0.8493878539772493  0.5216506440251913  1.0000
  C   C416      1.0  0.120180480185941  0.8631768422789222  0.4930518749334687  1.0000
  H   H565      1.0  0.12350361663941484  0.878901689363745  0.5419000027743548  1.0000
  H   H566      1.0  0.12455202769051954  0.8491057684643898  0.5568474724469934  1.0000
  H   H567      1.0  0.07645403235296169  0.8583835586009495  0.5358682164939282  1.0000
  H   H568      1.0  0.134977264296013  0.8137894779365964  0.4962892659082477  1.0000
  H   H569      1.0  0.12911179868861933  0.8114261685782252  0.5300181991552706  1.0000
  H   H570      1.0  0.0823296181209422  0.8212839447234054  0.5084071195964533  1.0000
  H   H571      1.0  0.1953641732528425  0.8388820611314328  0.5394066270715833  1.0000
  H   H572      1.0  0.1960800391606784  0.8686912162719467  0.5245583222397776  1.0000
  H   H573      1.0  0.20035388402541762  0.841161966661285  0.5054905191323283  1.0000
  H   H574      1.0  0.13500522185729752  0.8556645156827067  0.475896277729964  1.0000
  H   H575      1.0  0.13105566176242203  0.8828366176001745  0.4954894128289823  1.0000
  H   H576      1.0  0.08301019983412057  0.8631304993440871  0.4887101165467585  1.0000
  N   N33       1.0  0.9737930985433586  0.2965681409334926  0.8144637494984567  1.0000
  C   C417      1.0  0.9541195460883665  0.27548790609098034  0.7991438949325016  1.0000
  C   C418      1.0  0.9555385428313512  0.31996914860028164  0.8031502271379312  1.0000
  C   C419      1.0  0.023110877004154373  0.29636554471324233  0.8141308626503816  1.0000
  C   C420      1.0  0.9625174384655043  0.29443136013689414  0.8413928071767901  1.0000
  H   H577      1.0  0.9616166907367029  0.2766931918292513  0.7786331594484823  1.0000
  H   H578      1.0  0.9169639696033749  0.274877225572886  0.7992338869755049  1.0000
  H   H579      1.0  0.9677370895388605  0.25755627646993096  0.8069886818528832  1.0000
  H   H580      1.0  0.9183776256623186  0.32079431609224807  0.8029515862436913  1.0000
  H   H581      1.0  0.969705675075565  0.3362473991242349  0.8143157933608582  1.0000
  H   H582      1.0  0.9637097662002838  0.32221852368415516  0.782841911598128  1.0000
  H   H583      1.0  0.03283586977303887  0.2968918921229942  0.7940450701802375  1.0000
  H   H584      1.0  0.03836847151078748  0.2795542516492795  0.8236703895783988  1.0000
  H   H585      1.0  0.03894387714559322  0.31260792303833856  0.8246442425812885  1.0000
  H   H586      1.0  0.97391672811003  0.276441225243501  0.8501033996048086  1.0000
  H   H587      1.0  0.9257132484736865  0.29576771713711525  0.8426236583901723  1.0000
  H   H588      1.0  0.979045616732643  0.3092332734176964  0.8538595701548185  1.0000
  N   N34       1.0  0.7090139121554399  0.6070267212808538  0.8884058687630715  1.0000
  C   C421      1.0  0.7408090684648511  0.6070937170830145  0.9120763232349948  1.0000
  C   C422      1.0  0.7282158018037983  0.5927486566514321  0.8678898545078467  1.0000
  C   C423      1.0  0.7006619829095508  0.6327178828380412  0.8795995878271974  1.0000
  C   C424      1.0  0.66620084962129  0.5956273178318332  0.894060094666903  1.0000
  H   H589      1.0  0.7270318030842788  0.6173923203880504  0.9280842146427237  1.0000
  H   H590      1.0  0.7735401518587843  0.6155854910942359  0.9086972249117669  1.0000
  H   H591      1.0  0.747675903550304  0.588032927117168  0.9193543557365962  1.0000
  H   H592      1.0  0.7058952473259207  0.5932240285451268  0.8494393630128986  1.0000
  H   H593      1.0  0.7615097375422274  0.6000921432650961  0.8638775640006254  1.0000
  H   H594      1.0  0.73282255908594  0.572918842973009  0.8732703442132801  1.0000
  H   H595      1.0  0.6767954679167177  0.6332982031358138  0.8617365420874701  1.0000
  H   H596      1.0  0.7322953606073533  0.6418949853858121  0.8751950351144866  1.0000
  H   H597      1.0  0.6860026158728132  0.6439365838781043  0.8946284080330418  1.0000
  H   H598      1.0  0.640655060280125  0.5962763575848715  0.8770566823988535  1.0000
  H   H599      1.0  0.6518280765620604  0.6051379432523666  0.910344896077307  1.0000
  H   H600      1.0  0.6709048423357423  0.5758784332056032  0.8997307603409175  1.0000
  N   N35       1.0  0.4913606405320984  0.2739239156497421  0.22905124105376298  1.0000
  C   C425      1.0  0.5297447514172796  0.2635981300534332  0.21684965900866632  1.0000
  C   C426      1.0  0.4567434663169209  0.2823968584488917  0.20870244825747455  1.0000
  C   C427      1.0  0.506805814152811  0.2950193126542876  0.24572856353536082  1.0000
  C   C428      1.0  0.4722789155354886  0.2546225721523647  0.24483245623081726  1.0000
  H   H601      1.0  0.5570576760430439  0.25743930499916945  0.23152062853071997  1.0000
  H   H602      1.0  0.5442034165693914  0.2773896429738238  0.20410352718159405  1.0000
  H   H603      1.0  0.5191763808966705  0.24736592719936648  0.20458133415496188  1.0000
  H   H604      1.0  0.42685985077646976  0.29002233144599643  0.2170498240028484  1.0000
  H   H605      1.0  0.4700636007479027  0.2971095571745732  0.19655836941130747  1.0000
  H   H606      1.0  0.4452804394576917  0.26701827325862504  0.19536096380223067  1.0000
  H   H607      1.0  0.47861456473394803  0.3033587764438219  0.25516466985623276  1.0000
  H   H608      1.0  0.521707052312314  0.3098294278604525  0.23441415891039266  1.0000
  H   H609      1.0  0.532864594085467  0.28918567777547216  0.26134933984654085  1.0000
  H   H610      1.0  0.4428530705843279  0.2616018266385805  0.25412604136168465  1.0000
  H   H611      1.0  0.49745172917205416  0.2480402833044259  0.26054964907604056  1.0000
  H   H612      1.0  0.46112148035081896  0.23817726003212727  0.23293900684513696  1.0000
  N   N36       1.0  0.43075117954220327  0.8895075892495753  0.8060253797373106  1.0000
  C   C429      1.0  0.4579868034428158  0.8796551678839652  0.8290025924455873  1.0000
  C   C430      1.0  0.4056982980219215  0.8690782671771542  0.7922489975796466  1.0000
  C   C431      1.0  0.46067471277693245  0.9011553390881369  0.7886467903151342  1.0000
  C   C432      1.0  0.39891450825957503  0.90813224578198  0.8141244013014316  1.0000
  H   H613      1.0  0.48211188223721224  0.8654341639948258  0.8234486689796499  1.0000
  H   H614      1.0  0.43679987753903105  0.8709128286036059  0.8428376448736979  1.0000
  H   H615      1.0  0.4782346569953778  0.8944724445991367  0.8395486641189585  1.0000
  H   H616      1.0  0.3853133518288998  0.8757679782264547  0.7745184309655949  1.0000
  H   H617      1.0  0.42894035518979234  0.8547806385766412  0.7857752630717091  1.0000
  H   H618      1.0  0.38270375873698664  0.859771950346395  0.8046782810571088  1.0000
  H   H619      1.0  0.4416763693756014  0.9082101168868076  0.7706482561640484  1.0000
  H   H620      1.0  0.4854681852318921  0.8876394856569059  0.7826916206164416  1.0000
  H   H621      1.0  0.48028929182067814  0.9166983889798977  0.7982665438078816  1.0000
  H   H622      1.0  0.4170005546458166  0.9237465820600066  0.8245759201823123  1.0000
  H   H623      1.0  0.37580048579040964  0.8999668159844035  0.8272826936873117  1.0000
  H   H624      1.0  0.3780584300723199  0.915975103809789  0.7971518468204993  1.0000
  N   N37       1.0  0.5353267293484293  0.684488372831567  0.7823684403608526  1.0000
  C   C433      1.0  0.5786413436978568  0.6786245183867974  0.772509121057096  1.0000
  C   C434      1.0  0.5038477473113395  0.6636774522807557  0.7765806295841228  1.0000
  C   C435      1.0  0.5165437907657832  0.7071966910376345  0.769702436407421  1.0000
  C   C436      1.0  0.54252686098942  0.6883628445571416  0.8105924572838501  1.0000
  H   H625      1.0  0.6034209075603911  0.693835558353619  0.7765107116971586  1.0000
  H   H626      1.0  0.5742411128470714  0.6756565046740745  0.7512699032371069  1.0000
  H   H627      1.0  0.5937651313591682  0.6614796635720903  0.7814226795278865  1.0000
  H   H628      1.0  0.47106339421540006  0.6670777295365379  0.7842927832761517  1.0000
  H   H629      1.0  0.4970317716285228  0.6606599072141587  0.7553802301466545  1.0000
  H   H630      1.0  0.5178016987239009  0.6460311984854995  0.7850761606477049  1.0000
  H   H631      1.0  0.5402308234151357  0.7230874993893714  0.772823475457058  1.0000
  H   H632      1.0  0.48436122323791486  0.7126282407357166  0.777100881409929  1.0000
  H   H633      1.0  0.5097507173395632  0.7046077144580493  0.7484203353556697  1.0000
  H   H634      1.0  0.5104934073071782  0.6927791424771309  0.8187575103563167  1.0000
  H   H635      1.0  0.5662148799360959  0.7039415439541687  0.8155472768625261  1.0000
  H   H636      1.0  0.5568611290317683  0.6715123855402001  0.8205818688157639  1.0000
  N   N38       1.0  0.17297814113291732  0.03358732643129603  0.2690069656945877  1.0000
  C   C437      1.0  0.17637583783354427  0.0443814995404237  0.29525055521886756  1.0000
  C   C438      1.0  0.18915263614089706  0.051653774298257904  0.25077833388793036  1.0000
  C   C439      1.0  0.1256107089836276  0.027312781483513904  0.2608005945131808  1.0000
  C   C440      1.0  0.20072615459675008  0.010977223854939488  0.26910761594067345  1.0000
  H   H637      1.0  0.1571742128788691  0.06194785427789529  0.2957367767909272  1.0000
  H   H638      1.0  0.21185175370510828  0.04822516041619673  0.3027617449200538  1.0000
  H   H639      1.0  0.16248961192398054  0.03163645536307058  0.3091506187970525  1.0000
  H   H640      1.0  0.18736943033400186  0.04388208846292274  0.23083432564915132  1.0000
  H   H641      1.0  0.16857994440303636  0.06881174160873949  0.24987380444937782  1.0000
  H   H642      1.0  0.2247070885902471  0.05692123480425981  0.2565105249831579  1.0000
  H   H643      1.0  0.12167853579005063  0.01978892166716939  0.24081774838279643  1.0000
  H   H644      1.0  0.1033717492913443  0.043740758120682566  0.2612155383626278  1.0000
  H   H645      1.0  0.11264259456793561  0.013092257259302853  0.27358656653563584  1.0000
  H   H646      1.0  0.2366655802198697  0.014957661865071525  0.27531595335400333  1.0000
  H   H647      1.0  0.1988665473657903  0.002350431624905225  0.24957811821356204  1.0000
  H   H648      1.0  0.18937661706608377  0.996860254218465  0.2824843999117282  1.0000
  N   N39       1.0  0.23270991112129863  0.5605833784990777  0.1414972357655862  1.0000
  C   C441      1.0  0.19834548320410078  0.5652562264194626  0.11962919337243631  1.0000
  C   C442      1.0  0.21101586672209519  0.5594093107674347  0.16577485270889916  1.0000
  C   C443      1.0  0.2659397739044529  0.5808827186695396  0.1432094776283814  1.0000
  C   C444      1.0  0.25556666609701156  0.5368777583954479  0.13735407604551458  1.0000
  H   H649      1.0  0.21376584640480412  0.5663592340098221  0.10105661689989097  1.0000
  H   H650      1.0  0.1804683686154772  0.5830037283175304  0.12221001044834075  1.0000
  H   H651      1.0  0.17274264015687749  0.5502612653980898  0.1176926951173754  1.0000
  H   H652      1.0  0.23598199614106516  0.5556878412173721  0.18265229901865118  1.0000
  H   H653      1.0  0.19453349674408682  0.5772561343566357  0.16988768521883615  1.0000
  H   H654      1.0  0.1852158464300398  0.5445697790416945  0.16514576252781693  1.0000
  H   H655      1.0  0.29209473869256125  0.577961648279769  0.15955574306621487  1.0000
  H   H656      1.0  0.2500974666336982  0.5990757708944082  0.14653832970257907  1.0000
  H   H657      1.0  0.28367267649773203  0.5821397473017619  0.12543788382262408  1.0000
  H   H658      1.0  0.28214689725270653  0.5328831309141159  0.15334662087689302  1.0000
  H   H659      1.0  0.27258359510548735  0.5371690835320712  0.11926615356421863  1.0000
  H   H660      1.0  0.23171040373115942  0.5210591445031687  0.1360818998504917  1.0000
  N   N40       1.0  0.03935903409312247  0.9671034158527264  0.7305183395327718  1.0000
  C   C445      1.0  0.08710372794775889  0.9604736660697899  0.7368488200058223  1.0000
  C   C446      1.0  0.03637175015467853  0.9922997050747265  0.7195403386118299  1.0000
  C   C447      1.0  0.015895720101511968  0.9664545232997637  0.7541808814328695  1.0000
  C   C448      1.0  0.01814640319555627  0.9492384434714229  0.7114962852457021  1.0000
  H   H661      1.0  0.09070695332039902  0.9415611613704854  0.745171287168352  1.0000
  H   H662      1.0  0.10426849943706884  0.9736630243997167  0.7510222218898902  1.0000
  H   H663      1.0  0.1055822697756037  0.9607559029144334  0.7192454857683612  1.0000
  H   H664      1.0  0.0010034075517533214  0.9974074165299807  0.7130887370149152  1.0000
  H   H665      1.0  0.049492938353356  0.006434978931052937  0.7339503335995597  1.0000
  H   H666      1.0  0.056029260882568765  0.9939952550403922  0.7026601969522197  1.0000
  H   H667      1.0  0.9798217743052948  0.9714115858659382  0.7499251957410001  1.0000
  H   H668      1.0  0.03055248160114421  0.980025399896045  0.7687972599464765  1.0000
  H   H669      1.0  0.01753939176287811  0.9478089552620422  0.7631853696039756  1.0000
  H   H670      1.0  0.9828933905941489  0.9545031542693737  0.7048054883627829  1.0000
  H   H671      1.0  0.017478217646329508  0.9302612878569861  0.719619986461583  1.0000
  H   H672      1.0  0.036758883237922424  0.9481284792228521  0.6940903129635909  1.0000
  N   N41       1.0  0.6895734778809682  0.022454245212591095  0.6768883901095275  1.0000
  C   C449      1.0  0.7064359046454548  0.0001289564094359985  0.6646134840021376  1.0000
  C   C450      1.0  0.6628821902166027  0.01501804362841086  0.698023231478623  1.0000
  C   C451      1.0  0.6611652111788644  0.03681781377809745  0.6574143329277197  1.0000
  C   C452      1.0  0.7279486802948463  0.037842603333807734  0.6874649205771963  1.0000
  H   H673      1.0  0.7290919250869133  0.9893223538393621  0.6786296618500819  1.0000
  H   H674      1.0  0.7259634584650649  0.004958483018839388  0.6482050494509974  1.0000
  H   H675      1.0  0.6785926968159124  0.9875849278137472  0.6571859314843547  1.0000
  H   H676      1.0  0.6498640135395611  0.0313609376232189  0.7078991095848554  1.0000
  H   H677      1.0  0.6338048538649013  0.0032190821835518246  0.6908118110216721  1.0000
  H   H678      1.0  0.6834576058098016  0.004082707648288553  0.7129895415825209  1.0000
  H   H679      1.0  0.6476888242747765  0.05374132744723026  0.6660625415209876  1.0000
  H   H680      1.0  0.6321438674323513  0.025681746983270193  0.6487948672726372  1.0000
  H   H681      1.0  0.680675344019726  0.04290025404175468  0.6413907285121678  1.0000
  H   H682      1.0  0.7167151476648354  0.055079723776891854  0.6965383610333253  1.0000
  H   H683      1.0  0.7493742163516339  0.04338149483467957  0.6721382968172768  1.0000
  H   H684      1.0  0.7497496385860972  0.02771941130004807  0.7025061404608759  1.0000
  N   N42       1.0  0.5540586630157587  0.5563352128733268  0.2569843480469138  1.0000
  C   C453      1.0  0.5231695626630694  0.5742773598781236  0.26730234436928824  1.0000
  C   C454      1.0  0.5965732412198328  0.5556409292889833  0.27408160561618644  1.0000
  C   C455      1.0  0.5633429745145143  0.564021086448322  0.23077944684948618  1.0000
  C   C456      1.0  0.5332619191356145  0.5314843612324409  0.25585633053833584  1.0000
  H   H685      1.0  0.4901883069307832  0.5747066840655306  0.2553330326776475  1.0000
  H   H686      1.0  0.5368773780491135  0.5934323775074904  0.26733727615486186  1.0000
  H   H687      1.0  0.5167898515884629  0.5696915221626401  0.28742184880186955  1.0000
  H   H688      1.0  0.6130509400371793  0.5741286277085287  0.2753944828762638  1.0000
  H   H689      1.0  0.5907572629155722  0.5499369832712302  0.29404941732412243  1.0000
  H   H690      1.0  0.6207136271385556  0.5422781436916989  0.2668881338447272  1.0000
  H   H691      1.0  0.5867291276646788  0.5510630875377067  0.2223326925379377  1.0000
  H   H692      1.0  0.5783047211379917  0.5828990898053663  0.23088073572300302  1.0000
  H   H693      1.0  0.5320284975928644  0.5648140163678314  0.21737519153618276  1.0000
  H   H694      1.0  0.5546188233423243  0.5176707743153627  0.24702075313988822  1.0000
  H   H695      1.0  0.49988631011256707  0.5315116806113869  0.2442485221383079  1.0000
  H   H696      1.0  0.5277625666831235  0.5246409965939852  0.27545695110636437  1.0000
  N   N43       1.0  0.1728476145400992  0.6634208148698448  0.32020849094350323  1.0000
  C   C457      1.0  0.2072869310715456  0.6638570096397333  0.34262805202601804  1.0000
  C   C458      1.0  0.1557818059242532  0.6887169090374188  0.315066747334485  1.0000
  C   C459      1.0  0.13533525005303151  0.6471560327091559  0.3258061259381913  1.0000
  C   C460      1.0  0.19274241804750364  0.6540819008798482  0.29720816112524456  1.0000
  H   H697      1.0  0.2209233639853792  0.6450530312329477  0.34709435284695533  1.0000
  H   H698      1.0  0.19311380863560051  0.670929081072782  0.3602305675679712  1.0000
  H   H699      1.0  0.23592227947475444  0.6760663595352583  0.33895058502860037  1.0000
  H   H700      1.0  0.14015762094892079  0.6964816980512992  0.33187082109999344  1.0000
  H   H701      1.0  0.18280352431724897  0.7015280497969092  0.3101664604872809  1.0000
  H   H702      1.0  0.1295921866206648  0.6888173886787078  0.29841256454570814  1.0000
  H   H703      1.0  0.10845409514594616  0.6467534350322112  0.3093296345083674  1.0000
  H   H704      1.0  0.11927865839212207  0.653803441611991  0.34293515132579  1.0000
  H   H705      1.0  0.14671280210179896  0.6278366563962875  0.32962253397485186  1.0000
  H   H706      1.0  0.167316944173606  0.6535257558883792  0.2800431249352031  1.0000
  H   H707      1.0  0.20635974716466246  0.6350753136952046  0.30020957423591244  1.0000
  H   H708      1.0  0.22055870303190864  0.6662245355010571  0.29206295579545644  1.0000
  N   N44       1.0  0.9137885013534222  0.4494889621461874  0.8552725413131957  1.0000
  C   C461      1.0  0.8740372684939088  0.4609119463756541  0.8651652709148052  1.0000
  C   C462      1.0  0.9149530552463945  0.45598999474377366  0.8277758514463168  1.0000
  C   C463      1.0  0.9112909235794056  0.4223241549797479  0.8578406574236146  1.0000
  C   C464      1.0  0.9549556314750187  0.4587010023849346  0.8703438956153157  1.0000
  H   H709      1.0  0.8725717713533835  0.45649671883206167  0.8858998492127874  1.0000
  H   H710      1.0  0.8421891354354457  0.45422183197288873  0.8545300329443228  1.0000
  H   H711      1.0  0.8746681639890702  0.48142354046440344  0.8635603475697193  1.0000
  H   H712      1.0  0.9169867675140664  0.4763514907657887  0.8251273325433642  1.0000
  H   H713      1.0  0.9446533184548337  0.4476101181356597  0.8197918479222706  1.0000
  H   H714      1.0  0.8844238720159963  0.4492368628641198  0.8158493464744924  1.0000
  H   H715      1.0  0.9405563369653674  0.4130689694474527  0.8503837775809305  1.0000
  H   H716      1.0  0.8802938094029636  0.4146860285281635  0.8471500548895129  1.0000
  H   H717      1.0  0.911320089068911  0.4167204917288331  0.8783538882404232  1.0000
  H   H718      1.0  0.9856706478585554  0.4506148720867453  0.8632330092238446  1.0000
  H   H719      1.0  0.9554057768415825  0.4538189135092319  0.8911624609376898  1.0000
  H   H720      1.0  0.9577642958895657  0.4791587681917015  0.8691495281584385  1.0000
  N   N45       1.0  0.1277774365508031  0.20668281556522441  0.9434152596243685  1.0000
  C   C465      1.0  0.11135178275526791  0.19423400206325822  0.919006522998664  1.0000
  C   C466      1.0  0.1752141167548884  0.21390439505906333  0.942510313215091  1.0000
  C   C467      1.0  0.12410351359237515  0.18952123201622598  0.9651785506875437  1.0000
  C   C468      1.0  0.10033219778290237  0.22894695080612387  0.9468638206387033  1.0000
  H   H721      1.0  0.07512333973889151  0.18952331479677714  0.918648580884145  1.0000
  H   H722      1.0  0.12993784964352573  0.17673112623765813  0.9162273184511033  1.0000
  H   H723      1.0  0.11511117580857166  0.20621395560398295  0.9019996856926327  1.0000
  H   H724      1.0  0.1789188383025524  0.2270511556439854  0.9263954859452942  1.0000
  H   H725      1.0  0.1889761201133311  0.22306238866687797  0.9607734747498498  1.0000
  H   H726      1.0  0.19658643926545438  0.19749750120468984  0.9394639670899535  1.0000
  H   H727      1.0  0.13510872997529333  0.19841394929208292  0.9840484323258673  1.0000
  H   H728      1.0  0.1452661358359939  0.17278150362238048  0.9634196482577829  1.0000
  H   H729      1.0  0.08879924980419385  0.18315903460148006  0.965829293727149  1.0000
  H   H730      1.0  0.06436614884253711  0.22406106624816316  0.9479197264239276  1.0000
  H   H731      1.0  0.10146551236432  0.24208036163092628  0.9304652428507179  1.0000
  H   H732      1.0  0.11204608123067428  0.2390727598751248  0.9649070500328036  1.0000
  N   N46       1.0  0.6242104408669145  0.9934656780310159  0.024747735050171915  1.0000
  C   C469      1.0  0.5838712275452534  0.003842714026553784  0.03495246900169624  1.0000
  C   C470      1.0  0.6594225085780379  0.012706253775718546  0.025440846858087562  1.0000
  C   C471      1.0  0.6126946047179264  0.9850616821491813  0.9978404313089184  1.0000
  C   C472      1.0  0.6408074605649443  0.9722046639889934  0.040775627775678114  1.0000
  H   H733      1.0  0.5569108528422179  0.9897080586208785  0.03510070733583848  1.0000
  H   H734      1.0  0.569857845935587  0.01958315416181189  0.023000585463467615  1.0000
  H   H735      1.0  0.5915325704384133  0.010625819072266562  0.055119644190306134  1.0000
  H   H736      1.0  0.6903317473296178  0.005570123953620776  0.01785100504440651  1.0000
  H   H737      1.0  0.648135466906074  0.029004654525094153  0.013499451164673769  1.0000
  H   H738      1.0  0.6690484957274531  0.019442709647148115  0.045465937519503674  1.0000
  H   H739      1.0  0.6423996533904762  0.9770016502189361  0.9896308021377548  1.0000
  H   H740      1.0  0.600005127464135  0.0005274309129590371  0.9850838873035906  1.0000
  H   H741      1.0  0.5861961905915097  0.970504887002658  0.9966801601941072  1.0000
  H   H742      1.0  0.6499727385098053  0.977734371761467  0.06121499954999375  1.0000
  H   H743      1.0  0.6711248347094637  0.963905865886071  0.033527191373834864  1.0000
  H   H744      1.0  0.6150105143762756  0.9573018014836473  0.04056943230240084  1.0000
  N   N47       1.0  0.384518667198606  0.13126206359039186  0.16729509609526255  1.0000
  C   C473      1.0  0.41462751883246546  0.13278997293875044  0.1915739965183638  1.0000
  C   C474      1.0  0.39064530777926587  0.15346770949711144  0.15151185071669418  1.0000
  C   C475      1.0  0.3373479756579564  0.12991038816701142  0.17326307259955073  1.0000
  C   C476      1.0  0.3954597281848609  0.10892044712137036  0.15279366473456554  1.0000
  H   H745      1.0  0.45048328576280394  0.13443028702235227  0.1877264083110332  1.0000
  H   H746      1.0  0.4116552815490768  0.1161875331713661  0.2038689698213761  1.0000
  H   H747      1.0  0.40703545002432123  0.1493036679779944  0.20319204480220426  1.0000
  H   H748      1.0  0.3679956390367667  0.15322785667723057  0.13316319147032935  1.0000
  H   H749      1.0  0.3838746470833504  0.17075717913710428  0.16207237889405285  1.0000
  H   H750      1.0  0.4255702700662329  0.1547689869380472  0.14613935055280203  1.0000
  H   H751      1.0  0.3315607706514424  0.11342220175994173  0.1852662315812418  1.0000
  H   H752      1.0  0.3138912481569702  0.12859590227322165  0.15527003553667232  1.0000
  H   H753      1.0  0.32790540967943216  0.14659125660343697  0.18405099656949706  1.0000
  H   H754      1.0  0.43112330902293966  0.10907376776613117  0.1484844390349517  1.0000
  H   H755      1.0  0.3741707614398046  0.10748812543139485  0.13400547448272682  1.0000
  H   H756      1.0  0.3902480924419012  0.09171135324991898  0.1637931827479215  1.0000
  N   N48       1.0  0.7064126965660347  0.8170010152166953  0.7056938505089483  1.0000
  C   C477      1.0  0.6585372845164934  0.8168562725163404  0.6954880397005421  1.0000
  C   C478      1.0  0.7328993958665486  0.8294719941321931  0.6870120078331665  1.0000
  C   C479      1.0  0.7220261254193076  0.7912610363997031  0.7098293402216624  1.0000
  C   C480      1.0  0.7119485942336673  0.8304938614431924  0.7305172965082563  1.0000
  H   H757      1.0  0.6374623288493856  0.8077897262369137  0.7091984878035339  1.0000
  H   H758      1.0  0.6529936811748099  0.8067218785584939  0.6768353342936668  1.0000
  H   H759      1.0  0.6456126762164435  0.8359836592496241  0.6920738637013133  1.0000
  H   H760      1.0  0.7215486743642409  0.8489798214742883  0.6837139400431791  1.0000
  H   H761      1.0  0.7692313099771668  0.8300366902349752  0.6940811068239966  1.0000
  H   H762      1.0  0.7293766572847198  0.8199316379987248  0.667960788485443  1.0000
  H   H763      1.0  0.7181887434063119  0.7804510102113161  0.6915287488894175  1.0000
  H   H764      1.0  0.7022774397331983  0.7815629640576315  0.7238790483470284  1.0000
  H   H765      1.0  0.7579904139475988  0.7905879547132822  0.7176582638697925  1.0000
  H   H766      1.0  0.7002423758829643  0.8499781911005558  0.7281470028531376  1.0000
  H   H767      1.0  0.7476696882238151  0.8310721972704183  0.7387731584102921  1.0000
  H   H768      1.0  0.6924020801533929  0.8216179701679451  0.7451146226203655  1.0000
