data_image0
_chemical_formula_structural       FeS2FeS2FeSFeS3FeS2FeS2FeSFeS3FeS2FeS2FeSFeS3FeS2FeS2FeSFeS3FeS2FeS2FeSFeS3FeS2FeS2FeSFeS3FeS2FeS2FeSFeS3FeS2FeS2FeSFeS3FeS2FeS2FeSFeS3FeS2FeS2FeSFeS3FeS2FeS2FeSFeS3FeS2FeS2FeSFeS3C6H4C6H4C6H4C6H4C6H4C6H4C6H4C6H4C6H4C6H4C6H4C6H4C6H4C6H4C6H4C6H4C6H4C6H4C6H4C6H4C6H4C6H4C6H4C6H4NC4H12NC4H12NC4H12NC4H12NC4H12NC4H12NC4H12NC4H12NC4H12NC4H12NC4H12NC4H12NC4H12NC4H12NC4H12NC4H12NC4H12NC4H12NC4H12NC4H12NC4H12NC4H12NC4H12NC4H12
_chemical_formula_sum              "Fe48 S96 C240 H384 N24"
_cell_length_a       28.338043721738785
_cell_length_b       27.98912908220729
_cell_length_c       39.07488116381999
_cell_angle_alpha    88.92119088780821
_cell_angle_beta     88.53292365599029
_cell_angle_gamma    90.17749524201894

_space_group_name_H-M_alt    "P 1"
_space_group_IT_number       1

loop_
  _space_group_symop_operation_xyz
  'x, y, z'

loop_
  _atom_site_type_symbol
  _atom_site_label
  _atom_site_symmetry_multiplicity
  _atom_site_fract_x
  _atom_site_fract_y
  _atom_site_fract_z
  _atom_site_occupancy
  Fe  Fe1       1.0  0.8868472829429425  0.026123817844598163  0.02573456066947699  1.0000
  S   S1        1.0  0.8926908922841119  0.9538930148976653  0.051094324914940925  1.0000
  S   S2        1.0  0.8198587317963305  0.0677130841640492  0.03271850627802242  1.0000
  Fe  Fe2       1.0  0.982771965561364  0.019437711774647592  0.9905854247262978  1.0000
  S   S3        1.0  0.9973556905585519  0.9465103561707284  0.012348688262884933  1.0000
  S   S4        1.0  0.03218443270044857  0.05838274427410228  0.9541124415212846  1.0000
  Fe  Fe3       1.0  0.9220152474953568  0.9311239268693109  0.0003658404351365441  1.0000
  S   S5        1.0  0.8972554961677103  0.8649848901781294  0.9750113492296546  1.0000
  Fe  Fe4       1.0  0.9671046009627089  0.9763884870543152  0.0611422680799516  1.0000
  S   S6        1.0  0.0044737618055521455  0.9623739966725772  0.11038400338150778  1.0000
  S   S7        1.0  0.9101089533455142  0.0011760694947839934  0.9739496053148249  1.0000
  S   S8        1.0  0.9587505300488888  0.0510726020393395  0.040305541351682184  1.0000
  Fe  Fe5       1.0  0.24556762595139275  0.17419315498086335  0.008585671712119991  1.0000
  S   S9        1.0  0.19829458258933166  0.23074601677123743  0.0298524024876079  1.0000
  S   S10       1.0  0.22738865110111112  0.09780934276391891  0.0212432459785048  1.0000
  Fe  Fe6       1.0  0.31353759142066506  0.24563944097968538  0.9751660144198164  1.0000
  S   S11       1.0  0.2724925447547269  0.3090293294536805  0.9935204210418546  1.0000
  S   S12       1.0  0.37794053060275323  0.25255448927788204  0.94065566527229  1.0000
  Fe  Fe7       1.0  0.26562764314890835  0.26729610274161686  0.04298684164422539  1.0000
  S   S13       1.0  0.2730106737925952  0.3008927086906731  0.09412933213089691  1.0000
  Fe  Fe8       1.0  0.20909170037014427  0.26688663150895353  0.9787003474103461  1.0000
  S   S14       1.0  0.14848986164415298  0.30096438154360633  0.9518797866494266  1.0000
  S   S15       1.0  0.312530423644682  0.20737593129908666  0.026125712164748904  1.0000
  S   S16       1.0  0.2504726969439796  0.2068261082752409  0.9558407596702126  1.0000
  Fe  Fe9       1.0  0.3395099887426189  0.6598313185657002  0.8124273692175858  1.0000
  S   S17       1.0  0.3315590910809315  0.7393153087666702  0.8158339906691642  1.0000
  S   S18       1.0  0.27911568179935764  0.6089473470263265  0.8228843061840041  1.0000
  Fe  Fe10      1.0  0.44028423265108385  0.6663553991633289  0.7861775698214467  1.0000
  S   S19       1.0  0.44119911277799895  0.7462557314949173  0.7867907398230473  1.0000
  S   S20       1.0  0.5076429654064984  0.6320866470855783  0.768271850356216  1.0000
  Fe  Fe11      1.0  0.40405528036006216  0.7376046765496393  0.83766164369857  1.0000
  S   S21       1.0  0.4228637070019186  0.7844507433997291  0.8815628550618742  1.0000
  Fe  Fe12      1.0  0.36949170743210785  0.7413181528984625  0.7648723901863941  1.0000
  S   S22       1.0  0.3464520817813649  0.791596348870964  0.723207231903298  1.0000
  S   S23       1.0  0.40881476768464553  0.6575580065193368  0.8391832686060997  1.0000
  S   S24       1.0  0.3716800073971226  0.6619397635534118  0.7592261135720141  1.0000
  Fe  Fe13      1.0  0.7403725104547484  0.4205064071444247  0.8584748049485099  1.0000
  S   S25       1.0  0.6806763470748542  0.36827640615952056  0.8537691020311557  1.0000
  S   S26       1.0  0.78575978355716  0.41306170683370125  0.9045897055562657  1.0000
  Fe  Fe14      1.0  0.7217440716700427  0.4675365389924319  0.7895510690419973  1.0000
  S   S27       1.0  0.6611449119238012  0.4189084795714706  0.7791244867659971  1.0000
  S   S28       1.0  0.7352635768570059  0.5214308699861978  0.7471387706337264  1.0000
  Fe  Fe15      1.0  0.6403105035042476  0.4310246773941067  0.8339092595370766  1.0000
  S   S29       1.0  0.5637889993091855  0.44306401927098893  0.8474907912893701  1.0000
  Fe  Fe16      1.0  0.7075207871997775  0.3616233803147588  0.7997569204353077  1.0000
  S   S30       1.0  0.7174076370358974  0.2907159824006189  0.7754300274318338  1.0000
  S   S31       1.0  0.697578446728508  0.484549286042477  0.8432207529351381  1.0000
  S   S32       1.0  0.7703909682798511  0.40864338715802134  0.8058032198249169  1.0000
  Fe  Fe17      1.0  0.004802096010241286  0.6331402319259645  0.014570137860424381  1.0000
  S   S33       1.0  0.01858264113723429  0.6525741953810523  0.959354324125447  1.0000
  S   S34       1.0  0.9808189930308763  0.6874902982764171  0.05298430287227007  1.0000
  Fe  Fe18      1.0  0.04901075334652272  0.5350434405610837  0.007127230081397817  1.0000
  S   S35       1.0  0.0673031752298901  0.5463895767160529  0.9512620345286514  1.0000
  S   S36       1.0  0.07440359840149786  0.47330179968173824  0.039250045213018225  1.0000
  Fe  Fe19      1.0  0.08964484859342758  0.6198615586846816  0.9661901656705453  1.0000
  S   S37       1.0  0.15692754346932655  0.6605445653756196  0.9544614878696799  1.0000
  Fe  Fe20      1.0  0.9942398926057512  0.5776649173046167  0.9493416938530599  1.0000
  S   S38       1.0  0.9490912106018323  0.5686588413489362  0.9032863234016627  1.0000
  S   S39       1.0  0.07769492980206921  0.6057850557159262  0.02210155836593719  1.0000
  S   S40       1.0  0.9740941440456352  0.5608077720922793  0.00439306731013267  1.0000
  Fe  Fe21      1.0  0.5896426371459266  0.0004433274778390395  0.8667979123127758  1.0000
  S   S41       1.0  0.6225805878067652  0.019430463434909617  0.9164748330206182  1.0000
  S   S42       1.0  0.5916663671131756  0.9261498976522641  0.8456775759966765  1.0000
  Fe  Fe22      1.0  0.5687929526204895  0.10413716466854837  0.8478997208558466  1.0000
  S   S43       1.0  0.6000302958864054  0.13163310477650325  0.8956525741241166  1.0000
  S   S44       1.0  0.5406701919154162  0.16181033550989662  0.8133787169563869  1.0000
  Fe  Fe23      1.0  0.6575834160882634  0.07901001079307046  0.8859932072512003  1.0000
  S   S45       1.0  0.7339348716621467  0.10052642445661131  0.887393139604417  1.0000
  Fe  Fe24      1.0  0.5616212583712706  0.07034489727248112  0.9213058480605764  1.0000
  S   S46       1.0  0.5220045961385862  0.08629482256157239  0.9701262047699809  1.0000
  S   S47       1.0  0.6297511932931894  0.05606694673958357  0.8358518501770444  1.0000
  S   S48       1.0  0.5253926182105858  0.046294408899807175  0.8740983488341322  1.0000
  Fe  Fe25      1.0  0.9048908588904906  0.92982088601692  0.28212585537871715  1.0000
  S   S49       1.0  0.9164256702037455  0.9529538269097685  0.3358406729677804  1.0000
  S   S50       1.0  0.8744998663531147  0.9790941434179083  0.2424941659311335  1.0000
  Fe  Fe26      1.0  0.9387867785997545  0.8294113799904103  0.2958816314304489  1.0000
  S   S51       1.0  0.9548949456196385  0.8439235203397869  0.3505524346205193  1.0000
  S   S52       1.0  0.948827812969951  0.7570431517316483  0.273680134928368  1.0000
  Fe  Fe27      1.0  0.8853523853666617  0.8817962461584102  0.35115741667363337  1.0000
  S   S53       1.0  0.835195989582598  0.873273371878646  0.39633646478378853  1.0000
  Fe  Fe28      1.0  0.9847434050662934  0.91320065443191  0.3299578904412386  1.0000
  S   S54       1.0  0.05506710794340641  0.9413994527641212  0.34545900872104457  1.0000
  S   S55       1.0  0.8669870855749802  0.8621928305487702  0.29781083330978153  1.0000
  S   S56       1.0  0.9753670471959779  0.8947292638750985  0.27510036713087954  1.0000
  Fe  Fe29      1.0  0.2315219887448336  0.1828654769294233  0.25975443615614624  1.0000
  S   S57       1.0  0.21203306839399003  0.14013754102429868  0.3069428837356035  1.0000
  S   S58       1.0  0.24789142159039376  0.14437741307555954  0.21126774135960896  1.0000
  Fe  Fe30      1.0  0.20666577784871953  0.27730000632368296  0.2919334193948756  1.0000
  S   S59       1.0  0.1844609819365721  0.24297258840971894  0.3420961097419573  1.0000
  S   S60       1.0  0.2015419497469577  0.3564566028118351  0.2825142650740242  1.0000
  Fe  Fe31      1.0  0.24948410282076305  0.1981426659828266  0.33460089724778164  1.0000
  S   S61       1.0  0.2936610511158654  0.1813883932361906  0.3804447053186217  1.0000
  Fe  Fe32      1.0  0.14935109565790816  0.18848188456874562  0.3099379247498632  1.0000
  S   S62       1.0  0.07444517858851118  0.16331051156840642  0.3160334578077415  1.0000
  S   S63       1.0  0.2748062218603543  0.23718406360577934  0.2868000909333949  1.0000
  S   S64       1.0  0.16590921773918596  0.22686449214986917  0.26036542082935843  1.0000
  Fe  Fe33      1.0  0.7432726720753409  0.4209180298931015  0.5782031576922757  1.0000
  S   S65       1.0  0.7343069960183736  0.4915408845869247  0.551544858055448  1.0000
  S   S66       1.0  0.7977686499551031  0.4056299487778775  0.6171208412987558  1.0000
  Fe  Fe34      1.0  0.661061464914755  0.3751366229933957  0.5441139301586474  1.0000
  S   S67       1.0  0.6443399425560735  0.4414182528010136  0.5137458836045852  1.0000
  S   S68       1.0  0.6123575462547624  0.3116814547957778  0.5447444344453526  1.0000
  Fe  Fe35      1.0  0.7225104309992761  0.44788382284942696  0.5051892029088446  1.0000
  S   S69       1.0  0.7526832423475159  0.47056032291919164  0.45371022292277463  1.0000
  Fe  Fe36      1.0  0.6571761235330185  0.47977548708537165  0.5624429345742277  1.0000
  S   S70       1.0  0.6149285379782288  0.5413667831005349  0.5821829698876687  1.0000
  S   S71       1.0  0.7385629415471299  0.37752087456768463  0.5309047377421248  1.0000
  S   S72       1.0  0.6671592566365935  0.41327633398109237  0.5937477248269544  1.0000
  Fe  Fe37      1.0  0.4223311865752451  0.7402543592493893  0.5492682754209152  1.0000
  S   S73       1.0  0.45085117704364164  0.7247075423750544  0.4967263111265386  1.0000
  S   S74       1.0  0.4706887347825179  0.7683181787074546  0.5887317908035619  1.0000
  Fe  Fe38      1.0  0.3244813748954079  0.704306150074709  0.5339687864192485  1.0000
  S   S75       1.0  0.3444737645320356  0.685130857709238  0.4801312756318928  1.0000
  S   S76       1.0  0.24991064764371076  0.6951272902898402  0.5534942880342547  1.0000
  Fe  Fe39      1.0  0.4103094602115488  0.6563146762297284  0.5032660136418889  1.0000
  S   S77       1.0  0.44201753342871547  0.5861324650437175  0.4890269576995863  1.0000
  Fe  Fe40      1.0  0.38254886028767837  0.7554107852771079  0.4789950107652521  1.0000
  S   S78       1.0  0.38115726197139577  0.8056870240405583  0.4337131654557104  1.0000
  S   S79       1.0  0.3869235606079013  0.6691390284543  0.5575195776034053  1.0000
  S   S80       1.0  0.35734438525307327  0.7772240962250178  0.5311661135788497  1.0000
  Fe  Fe41      1.0  0.545725055152534  0.10097471462146014  0.3868726689993689  1.0000
  S   S81       1.0  0.5431311210230603  0.10837882233148308  0.4437217208834848  1.0000
  S   S82       1.0  0.5123325765325527  0.15417188126010928  0.35138004980897153  1.0000
  Fe  Fe42      1.0  0.6038603887683932  0.00970515183493692  0.39006296687819847  1.0000
  S   S83       1.0  0.6061527556960788  0.009222490195415212  0.4474080115128073  1.0000
  S   S84       1.0  0.6365451879917889  0.9547553918449886  0.3557242536791272  1.0000
  Fe  Fe43      1.0  0.5296877025082558  0.02927552372627562  0.4446150214506789  1.0000
  S   S85       1.0  0.47350956515819637  0.9984310063172902  0.48025305163439796  1.0000
  Fe  Fe44      1.0  0.6195383828472578  0.08809138052466509  0.4408398000938112  1.0000
  S   S86       1.0  0.678304667496802  0.12827569545204326  0.465112280375223  1.0000
  S   S87       1.0  0.526039469285754  0.023591844328441525  0.38764348186215297  1.0000
  S   S88       1.0  0.6234148252553863  0.08687535712786469  0.3835073380099058  1.0000
  Fe  Fe45      1.0  0.10074328049797117  0.5346153338637952  0.45185034588006684  1.0000
  S   S89       1.0  0.11478268940615301  0.529705879028566  0.3954347769114432  1.0000
  S   S90       1.0  0.16073722169684634  0.514120684640989  0.4854321687127951  1.0000
  Fe  Fe46      1.0  7.289527106024707e-05  0.5687298019565136  0.44302772870672397  1.0000
  S   S91       1.0  0.005068547834651049  0.5669825152066618  0.38583298123918924  1.0000
  S   S92       1.0  0.9356800308825259  0.5962968679689227  0.47089521405069584  1.0000
  Fe  Fe47      1.0  0.04240987468915636  0.49735496596730244  0.39432084553158037  1.0000
  S   S93       1.0  0.02522795415572099  0.43068406094538875  0.36616128617340793  1.0000
  Fe  Fe48      1.0  0.07670080156923254  0.5994983173845505  0.3921036586215226  1.0000
  S   S94       1.0  0.10607641600054007  0.6636256044379365  0.3637382291997683  1.0000
  S   S95       1.0  0.03130802246740361  0.49604790601574944  0.45145014201351275  1.0000
  S   S96       1.0  0.06866461453532025  0.6073944383943155  0.448785430279062  1.0000
  C   C1        1.0  0.40485337546267697  0.8607166073652252  0.445331375636074  1.0000
  C   C2        1.0  0.4408640032817364  0.8821583177493171  0.4251839106920328  1.0000
  C   C3        1.0  0.46227756544178256  0.9244696492512254  0.4357694430581363  1.0000
  C   C4        1.0  0.4466669536551445  0.9461827992744561  0.4659549906842765  1.0000
  C   C5        1.0  0.4097655348404312  0.9254019338023026  0.4855637794150996  1.0000
  C   C6        1.0  0.3892289188541312  0.8824746310581171  0.4754632677451  1.0000
  H   H1        1.0  0.45336559199328935  0.865098584291795  0.40203779531960704  1.0000
  H   H2        1.0  0.49144545238290444  0.9395480312170476  0.4208837995087079  1.0000
  H   H3        1.0  0.39741920907070727  0.9421694333350689  0.5088603826714118  1.0000
  H   H4        1.0  0.3609310688734866  0.8664684580470448  0.4908402564053553  1.0000
  C   C7        1.0  0.22507146505863898  0.6439377758376059  0.5359518777537824  1.0000
  C   C8        1.0  0.2540251339528028  0.6069238839485372  0.5243394884318557  1.0000
  C   C9        1.0  0.2339743185140576  0.5666333098315631  0.5094725773066097  1.0000
  C   C10       1.0  0.185105101038555  0.5638773294528486  0.5053277020379805  1.0000
  C   C11       1.0  0.1561911042823545  0.6009697543559832  0.5169241614815357  1.0000
  C   C12       1.0  0.1761128307693952  0.640656660942807  0.5326620943400021  1.0000
  H   H5        1.0  0.2918840756314804  0.6090768615162844  0.526983708723944  1.0000
  H   H6        1.0  0.25646540028684284  0.5379723973173689  0.5006325102487116  1.0000
  H   H7        1.0  0.11836101134577308  0.5985647648686672  0.5144659953446094  1.0000
  H   H8        1.0  0.15361194623376795  0.6691016887341047  0.5418351848592099  1.0000
  C   C13       1.0  0.5638946344207265  0.5519125423262027  0.5588962757877287  1.0000
  C   C14       1.0  0.5455417545902282  0.5165454804045264  0.5381740340310023  1.0000
  C   C15       1.0  0.5075330861877775  0.5269136439390983  0.5170494089350207  1.0000
  C   C16       1.0  0.4873155312285331  0.5724286977783343  0.51711618363061  1.0000
  C   C17       1.0  0.5046601900340437  0.607328558892463  0.5387378323195815  1.0000
  C   C18       1.0  0.5429805700951572  0.597078434231715  0.5595891089058137  1.0000
  H   H9        1.0  0.5601874265549295  0.4810408184647695  0.5386495428665583  1.0000
  H   H10       1.0  0.49362321730346037  0.49965522054426337  0.5007668228977006  1.0000
  H   H11       1.0  0.4892100796569623  0.642560557462356  0.5389442023416948  1.0000
  H   H12       1.0  0.5569870558990501  0.624546056964757  0.5756469103920111  1.0000
  C   C19       1.0  0.8027306229445816  0.5072060181511707  0.45704288189880665  1.0000
  C   C20       1.0  0.8029790530476667  0.5443525214755619  0.4805009016080427  1.0000
  C   C21       1.0  0.8436185632191783  0.5723695434702388  0.4839110939146198  1.0000
  C   C22       1.0  0.8843533290589177  0.5629866367194397  0.46421085988758004  1.0000
  C   C23       1.0  0.884059212110724  0.5262853630859113  0.44042107382248075  1.0000
  C   C24       1.0  0.8430534743290867  0.4987680823083003  0.43657835799388856  1.0000
  H   H13       1.0  0.7718909356203848  0.5517468772132162  0.4959824644869595  1.0000
  H   H14       1.0  0.8437583373368162  0.6008220523215094  0.5022929559785875  1.0000
  H   H15       1.0  0.9154447238932882  0.5188164410858014  0.4250988119494565  1.0000
  H   H16       1.0  0.8430068635910504  0.47016036987723414  0.4183014661951065  1.0000
  C   C25       1.0  0.6321919278611037  0.25986091891944735  0.5243663994328515  1.0000
  C   C26       1.0  0.6007035454435581  0.22172419821480197  0.5206963146386998  1.0000
  C   C27       1.0  0.6148599323983039  0.18082227415273613  0.5029990875036123  1.0000
  C   C28       1.0  0.6606728744433256  0.17780212750491478  0.48911388120574245  1.0000
  C   C29       1.0  0.6924654624997533  0.2155160812678307  0.49337136104763313  1.0000
  C   C30       1.0  0.6781842964102112  0.25662417503866736  0.5108073516694079  1.0000
  H   H17       1.0  0.5651816923232016  0.22393138942481738  0.5313915468029002  1.0000
  H   H18       1.0  0.5905347385029367  0.15137577521678935  0.5005707206505418  1.0000
  H   H19       1.0  0.7280025319861066  0.21320589400076873  0.4827184060324399  1.0000
  H   H20       1.0  0.7027166427115099  0.2857332242289104  0.5135196790020056  1.0000
  C   C31       1.0  0.3546512318332716  0.17619839076432434  0.3722086783412537  1.0000
  C   C32       1.0  0.3843958677930817  0.16506190246552435  0.3992939091855081  1.0000
  C   C33       1.0  0.4328727941422028  0.15811885710742005  0.393094062872552  1.0000
  C   C34       1.0  0.4518850076594567  0.1631146457053488  0.3598170702709255  1.0000
  C   C35       1.0  0.422328826120269  0.17518144245407077  0.33286452215077134  1.0000
  C   C36       1.0  0.3736995797290406  0.18106765334190647  0.33896843748677224  1.0000
  H   H21       1.0  0.3697729691811223  0.16120074554808733  0.42506070388316214  1.0000
  H   H22       1.0  0.45531639834046767  0.14867822223249533  0.4140724708607762  1.0000
  H   H23       1.0  0.43686008843769775  0.17902527533448812  0.3070615741014495  1.0000
  H   H24       1.0  0.3510621227005133  0.1889812245008031  0.3178486653850767  1.0000
  C   C37       1.0  0.07038010157866173  0.41197827077454124  0.33802791970053425  1.0000
  C   C38       1.0  0.10503730502088654  0.444008255848029  0.3256281370363024  1.0000
  C   C39       1.0  0.14425004262472232  0.42717041225073243  0.3068446482368595  1.0000
  C   C40       1.0  0.14910065881441337  0.3782322142061329  0.30097970073205665  1.0000
  C   C41       1.0  0.11324923970302678  0.34659082049978185  0.31180229038270063  1.0000
  C   C42       1.0  0.07370745907398828  0.363541102678214  0.3300495340789214  1.0000
  H   H25       1.0  0.10192755193721836  0.4816513309682106  0.33086031369395863  1.0000
  H   H26       1.0  0.1717164576168234  0.45181959051438253  0.2981611860319018  1.0000
  H   H27       1.0  0.11630004533360677  0.3088450589195128  0.30678744293010574  1.0000
  H   H28       1.0  0.04669092283336429  0.33871840360464883  0.3393007833693395  1.0000
  C   C43       1.0  0.0604025892893294  0.0030877263447288694  0.33740182256311313  1.0000
  C   C44       1.0  0.10157234972271811  0.027157803451861806  0.3462955360898464  1.0000
  C   C45       1.0  0.10608754535962477  0.07651509808160006  0.3399717521557697  1.0000
  C   C46       1.0  0.06927566155008229  0.10189976046423414  0.32498245986655555  1.0000
  C   C47       1.0  0.02816333223425138  0.07784801339281491  0.3160779803697778  1.0000
  C   C48       1.0  0.023986091269467602  0.02843511080958483  0.32188515635627635  1.0000
  H   H29       1.0  0.12975874466723875  0.007700400996794254  0.35839124996578975  1.0000
  H   H30       1.0  0.13746322498374397  0.09507108326930802  0.34759964480476335  1.0000
  H   H31       1.0  0.9997328038770199  0.09735219811560891  0.3043062037073893  1.0000
  H   H32       1.0  0.9927003536716947  0.01005285337579842  0.3141239748701866  1.0000
  C   C49       1.0  0.7781448067907828  0.8924776866189306  0.3864571270742157  1.0000
  C   C50       1.0  0.7595630673971815  0.8829430665592966  0.35450879806062674  1.0000
  C   C51       1.0  0.7148667557557739  0.900141663791567  0.3461161654199843  1.0000
  C   C52       1.0  0.6891511497036977  0.9282555124288003  0.36917365428512205  1.0000
  C   C53       1.0  0.7071352419123437  0.9368592647122335  0.40152480542292746  1.0000
  C   C54       1.0  0.7514371535313134  0.9185239777661465  0.41028132425479247  1.0000
  H   H33       1.0  0.7793328695877466  0.8618153149030573  0.33635708118127466  1.0000
  H   H34       1.0  0.7007608297576626  0.8928065389733129  0.32126371532614484  1.0000
  H   H35       1.0  0.6875771627637903  0.9585047588276672  0.41947761683639045  1.0000
  H   H36       1.0  0.7657034647030617  0.9259032996093334  0.4350691685484208  1.0000
  C   C55       1.0  0.9954417146910282  0.7303188726378801  0.2953757922142139  1.0000
  C   C56       1.0  0.9965803421723435  0.6806955172733032  0.3002144545017226  1.0000
  C   C57       1.0  0.031085511577642944  0.659833690418854  0.32078384661131787  1.0000
  C   C58       1.0  0.06492599296921386  0.6885424877705807  0.3359449001456194  1.0000
  C   C59       1.0  0.06486401686748122  0.7379668584968877  0.3299436973935334  1.0000
  C   C60       1.0  0.02985250510000692  0.758894905547332  0.3099627425890504  1.0000
  H   H37       1.0  0.9702187722744952  0.6584907627869461  0.2887172578445401  1.0000
  H   H38       1.0  0.03187352137824884  0.6215036665681669  0.32451255888571323  1.0000
  H   H39       1.0  0.09111225949911939  0.7602845760893658  0.3414613457643657  1.0000
  H   H40       1.0  0.029500101530916423  0.7972373718854859  0.3059442628098347  1.0000
  C   C61       1.0  0.7573692222697117  0.4920959864792607  0.7108866085111785  1.0000
  C   C62       1.0  0.7465299284481527  0.5093151501986615  0.6782123120441458  1.0000
  C   C63       1.0  0.759325860272709  0.48303278096586555  0.6492432288597839  1.0000
  C   C64       1.0  0.785046682793967  0.44070256310579614  0.6528249284170983  1.0000
  C   C65       1.0  0.798224538552054  0.4249118349013658  0.6853239628206738  1.0000
  C   C66       1.0  0.7836780570877286  0.4501617318852035  0.7143399111659416  1.0000
  H   H41       1.0  0.7272850289069035  0.5423737742114513  0.6754148762854509  1.0000
  H   H42       1.0  0.7494097762169876  0.49576044701554933  0.6242222152620307  1.0000
  H   H43       1.0  0.8186307672936061  0.39256898817747043  0.6882731799692169  1.0000
  H   H44       1.0  0.7935296192659455  0.43752007320131825  0.7393406979714859  1.0000
  C   C67       1.0  0.8310959242889808  0.456347586146862  0.9045628648735263  1.0000
  C   C68       1.0  0.837157048512968  0.48839258967421817  0.8769047438916513  1.0000
  C   C69       1.0  0.8735239110751132  0.5225734399552003  0.8768857331043937  1.0000
  C   C70       1.0  0.9039042199646974  0.5251901843629002  0.9045602541400761  1.0000
  C   C71       1.0  0.897852815991764  0.4931931318688045  0.9323111417654761  1.0000
  C   C72       1.0  0.8615343181900417  0.4587464519246048  0.9322584246285133  1.0000
  H   H45       1.0  0.8139201830522471  0.48686758993409707  0.8554374393584405  1.0000
  H   H46       1.0  0.878098814709151  0.5471835525378357  0.8553620274625265  1.0000
  H   H47       1.0  0.9212032626060709  0.49488621907403285  0.953705306764016  1.0000
  H   H48       1.0  0.8569638759337785  0.43409622374841755  0.9537388077055093  1.0000
  C   C73       1.0  0.6675141546131894  0.2552872074166799  0.7840157656024009  1.0000
  C   C74       1.0  0.6721719285589779  0.20567894646583676  0.7855464515696203  1.0000
  C   C75       1.0  0.6329360069635869  0.17696343602939094  0.7939833913950373  1.0000
  C   C76       1.0  0.5886866103466972  0.19760802698752983  0.7998650196323652  1.0000
  C   C77       1.0  0.5835709341816576  0.24719900827754498  0.796648250846029  1.0000
  C   C78       1.0  0.6232250971712296  0.27620854525261873  0.78945354499291  1.0000
  H   H49       1.0  0.7063051781537504  0.18938105119563933  0.7810596025361886  1.0000
  H   H50       1.0  0.6369063934489472  0.13872334953027893  0.795476029470938  1.0000
  H   H51       1.0  0.5492199656031627  0.26313674692309835  0.8005353918425003  1.0000
  H   H52       1.0  0.6194426155333503  0.31461567902773824  0.7878317279775546  1.0000
  C   C79       1.0  0.38320793768083433  0.7886102123905717  0.6866143038808995  1.0000
  C   C80       1.0  0.3677261901908861  0.807712800539308  0.6555435766793998  1.0000
  C   C81       1.0  0.39459227567857247  0.8014215696324862  0.6253752663787325  1.0000
  C   C82       1.0  0.4378905295350139  0.7777227310293576  0.6265089820068845  1.0000
  C   C83       1.0  0.4542714004233077  0.7601946423216  0.6577872871410774  1.0000
  C   C84       1.0  0.4265830899228431  0.7649683989270366  0.6877754290911441  1.0000
  H   H53       1.0  0.33428478498256975  0.8262090686724884  0.6545933224686131  1.0000
  H   H54       1.0  0.38200359282396446  0.8153406168046214  0.6012825952852049  1.0000
  H   H55       1.0  0.48765213180726663  0.7415769981438307  0.658641466906606  1.0000
  H   H56       1.0  0.4385901359598381  0.7497113385827229  0.7115937787205387  1.0000
  C   C85       1.0  0.521907031886299  0.5804334598277672  0.7916889182429425  1.0000
  C   C86       1.0  0.48741835712027687  0.5536857939810294  0.8098659104913228  1.0000
  C   C87       1.0  0.5001268322821876  0.5115169588726332  0.8274547119840967  1.0000
  C   C88       1.0  0.5471236491249764  0.49601928783778426  0.8264278178107037  1.0000
  C   C89       1.0  0.5812830601185257  0.5231056227479964  0.8083379341807426  1.0000
  C   C90       1.0  0.5688526506760614  0.5654726643592314  0.7914961723089838  1.0000
  H   H57       1.0  0.4509232278418866  0.564922671787074  0.8098927931191221  1.0000
  H   H58       1.0  0.4735024615573927  0.4905856152398925  0.8413313852468978  1.0000
  H   H59       1.0  0.617493915147397  0.5115250723006642  0.8071893301015504  1.0000
  H   H60       1.0  0.5958644651899846  0.5866619454323676  0.7783838919286977  1.0000
  C   C91       1.0  0.4708706175827921  0.8231055431445266  0.8729578719583305  1.0000
  C   C92       1.0  0.4742939796344878  0.86632282893231  0.8903087781027322  1.0000
  C   C93       1.0  0.5114842920378538  0.8983689875254319  0.8823647639708966  1.0000
  C   C94       1.0  0.5455602444289639  0.8867829065107883  0.8573608648026178  1.0000
  C   C95       1.0  0.5425793880972717  0.8431504325281839  0.8405943746777883  1.0000
  C   C96       1.0  0.5052600036732082  0.8115214912389678  0.8482829298623674  1.0000
  H   H61       1.0  0.4478286486993196  0.8753401474074664  0.9095552008932533  1.0000
  H   H62       1.0  0.513792411956819  0.9319559913195168  0.8955112244728896  1.0000
  H   H63       1.0  0.5690764054834073  0.8340442428606503  0.8213805100977186  1.0000
  H   H64       1.0  0.5035305930694501  0.7779198048303639  0.8354169809655089  1.0000
  C   C97       1.0  0.24435256429012758  0.624299408376674  0.8588254431678282  1.0000
  C   C98       1.0  0.19980119951265865  0.6031549452999493  0.8644319268840338  1.0000
  C   C99       1.0  0.1720401657949879  0.6148499828962897  0.8933891524468354  1.0000
  C   C100      1.0  0.18927597802032042  0.6470000535439531  0.9170450413571382  1.0000
  C   C101      1.0  0.23370227412998204  0.668177567396116  0.9113592871539309  1.0000
  C   C102      1.0  0.2611381228265117  0.6570046356798264  0.8822460584049565  1.0000
  H   H65       1.0  0.18657335540682135  0.5781466984090851  0.8461602964945288  1.0000
  H   H66       1.0  0.13735335105179006  0.5991473098198064  0.8973391775840616  1.0000
  H   H67       1.0  0.24710752867279198  0.6931114122527341  0.9296116184455819  1.0000
  H   H68       1.0  0.2955246019463099  0.6733026780092052  0.8781452415547023  1.0000
  C   C103      1.0  0.26995296849150235  0.25613222954276926  0.12609125629986173  1.0000
  C   C104      1.0  0.278758920449304  0.26762315933607556  0.16000507987975343  1.0000
  C   C105      1.0  0.2721195647230233  0.23322649885932314  0.1862033233048308  1.0000
  C   C106      1.0  0.25843581968316365  0.18672728434910454  0.17837845357026438  1.0000
  C   C107      1.0  0.25164997157035485  0.17456919615990563  0.14428298186604138  1.0000
  C   C108      1.0  0.2570176818597106  0.20938279592836476  0.11816191581246449  1.0000
  H   H69       1.0  0.2903054395329405  0.30326446888104835  0.1660812536730436  1.0000
  H   H70       1.0  0.27816656419969765  0.24261292401755677  0.21239398904454387  1.0000
  H   H71       1.0  0.24122647238376058  0.13859374564667268  0.1381133192839812  1.0000
  H   H72       1.0  0.25059029571547276  0.20006552713647083  0.09199882400770076  1.0000
  C   C109      1.0  0.1263301196213737  0.3478579103593555  0.9764334977171502  1.0000
  C   C110      1.0  0.14138702401351  0.35368041130928973  0.009909658577245795  1.0000
  C   C111      1.0  0.1241531517376265  0.39160178548536917  0.029400848724872697  1.0000
  C   C112      1.0  0.09247390589225447  0.42423155275399044  0.015271540167823172  1.0000
  C   C113      1.0  0.07692992491851876  0.41814725886026466  0.9819472166150873  1.0000
  C   C114      1.0  0.09360715067521892  0.37968399356633287  0.9626012413452613  1.0000
  H   H73       1.0  0.16676971592080228  0.32940829866360793  0.020743351957089873  1.0000
  H   H74       1.0  0.13630258055687447  0.3963607573269716  0.05514754002743638  1.0000
  H   H75       1.0  0.05177363926612832  0.44285142219030743  0.9711863443204436  1.0000
  H   H76       1.0  0.08159638058126567  0.37500453953726676  0.9367988730022853  1.0000
  C   C115      1.0  0.41794495585586955  0.20664795177141923  0.9493566682917408  1.0000
  C   C116      1.0  0.4392785835874321  0.18232042369468546  0.9221890181806874  1.0000
  C   C117      1.0  0.4721655467499555  0.14628849403624583  0.9285944499747906  1.0000
  C   C118      1.0  0.48347002780375375  0.133940376817233  0.962218844786433  1.0000
  C   C119      1.0  0.4626397833000699  0.15873079865189926  0.9894834167844205  1.0000
  C   C120      1.0  0.4298522522855482  0.19511967766467922  0.9830502222530851  1.0000
  H   H77       1.0  0.42969823934805934  0.19055330255224848  0.8961356621083129  1.0000
  H   H78       1.0  0.488117416731707  0.12761800548298005  0.9073941891982866  1.0000
  H   H79       1.0  0.47197965204804865  0.14993128845973333  0.015526330400846167  1.0000
  H   H80       1.0  0.4143616932121518  0.2147229867577613  0.00409297302319267  1.0000
  C   C121      1.0  0.9689631896941676  0.9734095671701317  0.14671408023308352  1.0000
  C   C122      1.0  0.9887888887921815  0.9704861741052062  0.1790943204066049  1.0000
  C   C123      1.0  0.9601962847899538  0.9754902007188128  0.20857353884369134  1.0000
  C   C124      1.0  0.9114690161393301  0.9815498155260697  0.2058132236943611  1.0000
  C   C125      1.0  0.8919631944807915  0.986685104030047  0.17343073295007716  1.0000
  C   C126      1.0  0.9207920583290115  0.9829824899462304  0.14387126952868146  1.0000
  H   H81       1.0  0.02608736626986974  0.9635484462840612  0.18139596496125443  1.0000
  H   H82       1.0  0.9758231648765152  0.9745224819344237  0.2334360937367416  1.0000
  H   H83       1.0  0.8543891675007561  0.9922606760459998  0.1711402188534177  1.0000
  H   H84       1.0  0.905412843740655  0.9864903405897706  0.11898527794193248  1.0000
  C   C127      1.0  0.08843860825696148  0.0637130001010815  0.971134023323501  1.0000
  C   C128      1.0  0.12290599662454497  0.09078976259213478  0.9533025700120181  1.0000
  C   C129      1.0  0.16587356720135896  0.10086365534994852  0.9685635736967432  1.0000
  C   C130      1.0  0.1750320378228467  0.0826306575591829  0.001254008104672799  1.0000
  C   C131      1.0  0.1414512601775093  0.053681366843826746  0.01850558304003158  1.0000
  C   C132      1.0  0.09786381621850881  0.044690073851327616  0.0036209107432201293  1.0000
  H   H85       1.0  0.11590725348253084  0.10509928349402253  0.9280207832616933  1.0000
  H   H86       1.0  0.19199115227788363  0.12248010670655592  0.9548701955267809  1.0000
  H   H87       1.0  0.14842127138124406  0.03965979112339468  0.043867985232785456  1.0000
  H   H88       1.0  0.07122297220593388  0.02407161349476672  0.01766697181926813  1.0000
  C   C133      1.0  0.9150236422354122  0.8148483607820832  0.998631556184669  1.0000
  C   C134      1.0  0.9359369013246852  0.8204883222676538  0.030369153060934684  1.0000
  C   C135      1.0  0.9546080058584262  0.7807875818611129  0.04759373657869048  1.0000
  C   C136      1.0  0.9529813954891934  0.7356321736649435  0.03288403629177594  1.0000
  C   C137      1.0  0.9313604950577224  0.7298683542899101  0.0014669550519355035  1.0000
  C   C138      1.0  0.9120100928671921  0.7694539083362577  0.9844537767803561  1.0000
  H   H89       1.0  0.9387067611745871  0.8555628608687564  0.041266268736575906  1.0000
  H   H90       1.0  0.9719123458044553  0.7853278049806616  0.07163626628405839  1.0000
  H   H91       1.0  0.92957130789083  0.6948730053987106  0.9902415643033565  1.0000
  H   H92       1.0  0.8960365689741324  0.7650396167158917  0.9598439274828815  1.0000
  C   C139      1.0  0.7958405959778472  0.08279259498367741  0.9931182589850485  1.0000
  C   C140      1.0  0.746775680393758  0.08440062734951659  0.9897675369426328  1.0000
  C   C141      1.0  0.727325565396005  0.09090246078599096  0.9573413833667711  1.0000
  C   C142      1.0  0.7570581602078812  0.09604617729520148  0.928376426785914  1.0000
  C   C143      1.0  0.8060425785960068  0.09624891507406441  0.9319119277188184  1.0000
  C   C144      1.0  0.8253948655299385  0.08973052601293752  0.964258936632056  1.0000
  H   H93       1.0  0.7238276434909541  0.07922814815905221  0.012114559680661552  1.0000
  H   H94       1.0  0.6893966374996845  0.09122536712099483  0.9547482248262619  1.0000
  H   H95       1.0  0.8291038153440311  0.10050547252728226  0.9095493073147708  1.0000
  H   H96       1.0  0.8632453575852279  0.09008139096037726  0.9668854807887074  1.0000
  N   N1        1.0  0.10951037884754007  0.06497742189244682  0.21934920256694768  1.0000
  C   C145      1.0  0.08085504471818566  0.06688767355309433  0.18824720704939946  1.0000
  C   C146      1.0  0.10830326470002036  0.11195490587914358  0.23600487664481218  1.0000
  C   C147      1.0  0.15887570469294265  0.053192242129390443  0.20980752808542324  1.0000
  C   C148      1.0  0.09010847790923425  0.028024982777616003  0.2433670740447511  1.0000
  H   H97       1.0  0.08189942198935148  0.03235649988799749  0.17454806504098008  1.0000
  H   H98       1.0  0.09393328958375785  0.09513183645311907  0.16989411219566786  1.0000
  H   H99       1.0  0.04312862447182674  0.07466070292647853  0.19459844425248196  1.0000
  H   H100      1.0  0.1292243618656594  0.11157122175132028  0.2597462525004728  1.0000
  H   H101      1.0  0.12348127016573221  0.14063438245561555  0.21888536184014895  1.0000
  H   H102      1.0  0.0716525526405472  0.12237176561892515  0.24359932351320257  1.0000
  H   H103      1.0  0.18192424354277004  0.05337922140237139  0.23249713408823403  1.0000
  H   H104      1.0  0.17413294796693532  0.07978443275060032  0.19099852585761035  1.0000
  H   H105      1.0  0.1615904622978151  0.017389697548422234  0.19805768175524174  1.0000
  H   H106      1.0  0.11028330519967475  0.02629325232424451  0.2674717374059925  1.0000
  H   H107      1.0  0.09105201652259222  0.9919120581807424  0.23195769539846967  1.0000
  H   H108      1.0  0.05268816292347566  0.03560065201765239  0.25068702759816874  1.0000
  N   N2        1.0  0.5940801272813941  0.5465178278955429  0.6869036862708601  1.0000
  C   C149      1.0  0.5594009259613208  0.5221917668182844  0.7101974432343683  1.0000
  C   C150      1.0  0.6237282158405253  0.5104108919372224  0.6696276115850104  1.0000
  C   C151      1.0  0.6243710178739744  0.5782899160432676  0.7067523404738524  1.0000
  C   C152      1.0  0.568829875579492  0.5752678851448506  0.6610946712544518  1.0000
  H   H109      1.0  0.5357115338800171  0.5483878839292585  0.7230416265222677  1.0000
  H   H110      1.0  0.5772075493472758  0.501248095344427  0.7306579806142951  1.0000
  H   H111      1.0  0.5366172840405122  0.49719960967852894  0.6961437269712465  1.0000
  H   H112      1.0  0.6498254679236268  0.5275793940579343  0.65148083173735  1.0000
  H   H113      1.0  0.6438401413885438  0.48867249722189404  0.6884404345481783  1.0000
  H   H114      1.0  0.602116696287877  0.48576440109949487  0.654346890174151  1.0000
  H   H115      1.0  0.6519340615686243  0.596055258315599  0.6901282846942247  1.0000
  H   H116      1.0  0.6431271247353311  0.5580213464130318  0.7270965953206077  1.0000
  H   H117      1.0  0.6032715565656591  0.6068415264509835  0.7193316891093495  1.0000
  H   H118      1.0  0.5939731125787779  0.5951362123608825  0.64364788559006  1.0000
  H   H119      1.0  0.5451634930288117  0.6020172645033744  0.6733808347041743  1.0000
  H   H120      1.0  0.5468724882944168  0.552329230348374  0.6447465886266867  1.0000
  N   N3        1.0  0.9094341109466598  0.7092867327854242  0.3934343941630676  1.0000
  C   C153      1.0  0.9109587106721995  0.6593157230577708  0.3818936466203895  1.0000
  C   C154      1.0  0.9581604462507126  0.7272012766875411  0.3969946415431488  1.0000
  C   C155      1.0  0.8840513638873508  0.711396661479615  0.42689570538696664  1.0000
  C   C156      1.0  0.8846831703803003  0.7391813717860305  0.36801092771770644  1.0000
  H   H121      1.0  0.874924027197628  0.6446147003001302  0.37844337183416155  1.0000
  H   H122      1.0  0.9285775755150102  0.6357320406557256  0.4008783827874758  1.0000
  H   H123      1.0  0.9308358248496076  0.6563367958601862  0.3570599749767095  1.0000
  H   H124      1.0  0.9780585454048268  0.7269495752100774  0.37208372483895513  1.0000
  H   H125      1.0  0.9584844522332848  0.7645935554761835  0.4062073035491078  1.0000
  H   H126      1.0  0.9781858037257293  0.7047038252539491  0.4153930172864885  1.0000
  H   H127      1.0  0.9022575345399978  0.6898014911901627  0.44681162094958216  1.0000
  H   H128      1.0  0.8474543978065845  0.697282292137764  0.42533806626045967  1.0000
  H   H129      1.0  0.881689570336115  0.7488105104884066  0.43606401182009985  1.0000
  H   H130      1.0  0.8483076266508783  0.7258354301271335  0.3638889883142036  1.0000
  H   H131      1.0  0.903786886125196  0.7397061071935226  0.3427095045335589  1.0000
  H   H132      1.0  0.8814104761324872  0.7768357750774397  0.3764997519007694  1.0000
  N   N4        1.0  0.9089195223129976  0.4625485936167031  0.5493665167559498  1.0000
  C   C157      1.0  0.9391006697619305  0.49688167884662027  0.5295862099173282  1.0000
  C   C158      1.0  0.8600537781610189  0.46545677959696335  0.5371982287765864  1.0000
  C   C159      1.0  0.9094882584695811  0.4742671236320888  0.5861035519493694  1.0000
  C   C160      1.0  0.9268940101682457  0.4135574488125731  0.5445363261872654  1.0000
  H   H133      1.0  0.9266225383149859  0.5342736339936126  0.5328009634309889  1.0000
  H   H134      1.0  0.9390285211193904  0.48953216613060596  0.5016662899486631  1.0000
  H   H135      1.0  0.9764256370017701  0.49550743731963237  0.5377319138714199  1.0000
  H   H136      1.0  0.8364492912638107  0.43952890837410363  0.5512361988609461  1.0000
  H   H137      1.0  0.8450609265121681  0.5017202803883709  0.5409544955761219  1.0000
  H   H138      1.0  0.8583300974279817  0.4575137221569109  0.5094277742731875  1.0000
  H   H139      1.0  0.8875816635820211  0.448646056929961  0.6018747880651855  1.0000
  H   H140      1.0  0.8951214796671075  0.5106283030805865  0.5907520041449814  1.0000
  H   H141      1.0  0.9459103736864924  0.47312992895151507  0.596074951430054  1.0000
  H   H142      1.0  0.9637571461330694  0.40997354174671546  0.5533997458236035  1.0000
  H   H143      1.0  0.92674583886178  0.4036241465401892  0.5170538378640425  1.0000
  H   H144      1.0  0.904735497015455  0.38682894267494544  0.5591661572357691  1.0000
  N   N5        1.0  0.36321274043540397  0.05316801487006063  0.011293076860736662  1.0000
  C   C161      1.0  0.41224420470602935  0.03545877548332199  0.00870488919260004  1.0000
  C   C162      1.0  0.3581306216626979  0.0842015947078437  0.04137974058574235  1.0000
  C   C163      1.0  0.33049574953508254  0.01207701008762241  0.015180684682161162  1.0000
  C   C164      1.0  0.35205940761388754  0.08087929604952628  0.9799369760197266  1.0000
  H   H145      1.0  0.41869063719751387  0.01487448952106485  0.9849445844110921  1.0000
  H   H146      1.0  0.421031559530635  0.012090473743783916  0.03096586131418078  1.0000
  H   H147      1.0  0.43801124163947797  0.06540802381850823  0.008137152291188832  1.0000
  H   H148      1.0  0.3814915581264672  0.1162293257392541  0.038776582988558905  1.0000
  H   H149      1.0  0.32130659070352474  0.09739692129349693  0.04464421911921602  1.0000
  H   H150      1.0  0.36718456306787767  0.06489352921309972  0.06545715800766105  1.0000
  H   H151      1.0  0.2930941551611089  0.024020755430183227  0.01668244758805537  1.0000
  H   H152      1.0  0.3371677850118117  0.990967578875544  0.03896623273869548  1.0000
  H   H153      1.0  0.33395955440862113  0.9876957607107676  0.9930986640210852  1.0000
  H   H154      1.0  0.31546745486846006  0.09527736941729247  0.9812789131284579  1.0000
  H   H155      1.0  0.3552282087584146  0.05867610348460953  0.9566917065268947  1.0000
  H   H156      1.0  0.3762860649184339  0.11188041187284507  0.9759761738409762  1.0000
  N   N6        1.0  0.5779421622035893  0.2565675748644065  0.41028490762556835  1.0000
  C   C165      1.0  0.5606936940374108  0.2796238654303106  0.37865244636232226  1.0000
  C   C166      1.0  0.6030198883914367  0.29206221882882344  0.43072986814345515  1.0000
  C   C167      1.0  0.6105861417245076  0.2174530907450091  0.4011757319764599  1.0000
  C   C168      1.0  0.5374045591051624  0.23692816048605972  0.43058585817580103  1.0000
  H   H157      1.0  0.5413779909532869  0.25358952571048854  0.36281454545844527  1.0000
  H   H158      1.0  0.5903365573349288  0.2944262398682654  0.36246808990764473  1.0000
  H   H159      1.0  0.5359069120626119  0.30929437407767274  0.3845177489621885  1.0000
  H   H160      1.0  0.6170460557503293  0.2753219339644798  0.45439934900192747  1.0000
  H   H161      1.0  0.6335885348051978  0.30805992145269867  0.4161488354397681  1.0000
  H   H162      1.0  0.5792611361929322  0.321569138545819  0.43885998003969295  1.0000
  H   H163      1.0  0.5931400782133559  0.1906258465108179  0.38505524556661264  1.0000
  H   H164      1.0  0.6231865036462951  0.19821817271928133  0.42435992913505277  1.0000
  H   H165      1.0  0.6422701418899622  0.23098243306342767  0.3866200354318587  1.0000
  H   H166      1.0  0.549066634241815  0.2190407921488978  0.4545876851166799  1.0000
  H   H167      1.0  0.5177963285164687  0.21003663940406322  0.415832937701927  1.0000
  H   H168      1.0  0.5119700193637803  0.26537297884318617  0.4379550754236567  1.0000
  N   N7        1.0  0.7835495659059942  0.03432020121917967  0.31713338292695914  1.0000
  C   C169      1.0  0.7874679904284994  0.020625937570708738  0.35366926675150595  1.0000
  C   C170      1.0  0.7443393434076938  0.06856273293130197  0.3132206280209592  1.0000
  C   C171      1.0  0.7739564067559372  0.9913324381062106  0.296991640569084  1.0000
  C   C172      1.0  0.8282436722596435  0.05668795147692674  0.3046613197793406  1.0000
  H   H169      1.0  0.8149106715259673  0.9927349924191122  0.3575307984908089  1.0000
  H   H170      1.0  0.7535664720598305  0.005909980404618765  0.36419617683205174  1.0000
  H   H171      1.0  0.796740882625294  0.05175886681728192  0.36949805720679607  1.0000
  H   H172      1.0  0.7403346762530172  0.0795794324204675  0.2859239231273342  1.0000
  H   H173      1.0  0.7100625351987137  0.05251911743196502  0.3223730556801605  1.0000
  H   H174      1.0  0.750156996729023  0.10134851064070806  0.3282532620217988  1.0000
  H   H175      1.0  0.7736517953776536  0.9998345805465448  0.2690385978521513  1.0000
  H   H176      1.0  0.7391106925103414  0.9752767949263347  0.30429588399404606  1.0000
  H   H177      1.0  0.8013909002266342  0.9634547361053818  0.3008230214025991  1.0000
  H   H178      1.0  0.8584550668669244  0.03174161962694711  0.3074392769317262  1.0000
  H   H179      1.0  0.8365405897998928  0.08947912341143395  0.31902364722188464  1.0000
  H   H180      1.0  0.8269225118571387  0.06661106169202471  0.27695437951750573  1.0000
  N   N8        1.0  0.7042626541265  0.29947850078673915  0.6671079548420223  1.0000
  C   C173      1.0  0.7010671405752257  0.29832188892015404  0.6293969355494193  1.0000
  C   C174      1.0  0.6744248916734804  0.2610921431876655  0.6827506224943951  1.0000
  C   C175      1.0  0.6878242237114195  0.34628886910528117  0.6795576414200685  1.0000
  C   C176      1.0  0.7538531277766692  0.29226658839133307  0.6768240221526332  1.0000
  H   H181      1.0  0.6642566821553874  0.3044889922769978  0.6209606657011927  1.0000
  H   H182      1.0  0.7125379778203321  0.26323391341219454  0.6191989737800749  1.0000
  H   H183      1.0  0.7239496661629441  0.32624820729207726  0.6167783565848816  1.0000
  H   H184      1.0  0.67597770360112  0.26104517384871745  0.7111838601579421  1.0000
  H   H185      1.0  0.6367485143919108  0.2654165880306512  0.6759542497911076  1.0000
  H   H186      1.0  0.6860288651253282  0.22518750071985164  0.6742110651207294  1.0000
  H   H187      1.0  0.7093243142559872  0.3760622672542277  0.6679942121699785  1.0000
  H   H188      1.0  0.6905992701375722  0.3484866294221509  0.7079201082438781  1.0000
  H   H189      1.0  0.650377757997507  0.35283872242076436  0.6730670507056254  1.0000
  H   H190      1.0  0.7576527089302908  0.29367134198779765  0.705115133530677  1.0000
  H   H191      1.0  0.7773396448261236  0.320422487514117  0.6651152886194377  1.0000
  H   H192      1.0  0.767392355730454  0.25704610982447806  0.668336764391936  1.0000
  N   N9        1.0  0.150470527474271  0.36907166976786937  0.18325174229309482  1.0000
  C   C177      1.0  0.19315920136864634  0.338976470629814  0.18148362728795808  1.0000
  C   C178      1.0  0.11463400499509206  0.34570437326210013  0.20614569714329178  1.0000
  C   C179      1.0  0.1315119699151061  0.3752132199359902  0.14852358663405862  1.0000
  C   C180      1.0  0.16282060243715407  0.4163038895473768  0.19686258037180937  1.0000
  H   H193      1.0  0.2207421174065344  0.35509846981790816  0.1639707230323788  1.0000
  H   H194      1.0  0.18515653790923414  0.30277718269432796  0.17173685937253502  1.0000
  H   H195      1.0  0.20898239535414687  0.334017876572243  0.20714326339785583  1.0000
  H   H196      1.0  0.10443940407657627  0.3099888320421139  0.19664516957391798  1.0000
  H   H197      1.0  0.1282371976300694  0.340086673086657  0.23240923914022016  1.0000
  H   H198      1.0  0.08209174273669956  0.3676812050810646  0.20856142997910831  1.0000
  H   H199      1.0  0.0992616875083978  0.3978640104277439  0.14872863965918426  1.0000
  H   H200      1.0  0.12215597348120165  0.34019787151607944  0.13740657295531356  1.0000
  H   H201      1.0  0.157890290945772  0.39256475793830453  0.13060623276547778  1.0000
  H   H202      1.0  0.13141085026518196  0.43998592416572835  0.19870065513624025  1.0000
  H   H203      1.0  0.19001372739227565  0.43479004090639783  0.18030925768412254  1.0000
  H   H204      1.0  0.17738883310057985  0.4128628868840959  0.22300897168005873  1.0000
  N   N10       1.0  0.634475728784722  0.5694745011298467  0.45423621260025876  1.0000
  C   C181      1.0  0.5965180036730212  0.6054753411848078  0.456822513135327  1.0000
  C   C182      1.0  0.6136939096303521  0.5224365657372416  0.4467150437103788  1.0000
  C   C183      1.0  0.659309634803627  0.5663491511903662  0.48698957613718374  1.0000
  C   C184      1.0  0.6685145868454939  0.5834020257963273  0.42649181446303897  1.0000
  H   H205      1.0  0.6107868934599333  0.6414744948993147  0.4624604666200237  1.0000
  H   H206      1.0  0.570506213294391  0.5959335782374814  0.47771467534349127  1.0000
  H   H207      1.0  0.5765186570548662  0.6084625730149162  0.43272077714259416  1.0000
  H   H208      1.0  0.6414733848180891  0.49444812127492416  0.44446750449221384  1.0000
  H   H209      1.0  0.588057834225679  0.5106548006159892  0.4672829595484031  1.0000
  H   H210      1.0  0.5943898717971208  0.5235329485654384  0.4222703268515757  1.0000
  H   H211      1.0  0.6754776232003115  0.6011272799240127  0.49361761436334894  1.0000
  H   H212      1.0  0.6879274849584319  0.539289338415417  0.48595863967371616  1.0000
  H   H213      1.0  0.6348541002226641  0.5557514848291143  0.5084907350951418  1.0000
  H   H214      1.0  0.697614787454056  0.5567664253985259  0.42410719281445003  1.0000
  H   H215      1.0  0.6850387735711703  0.618671199794392  0.43134528236853076  1.0000
  H   H216      1.0  0.6511330159434039  0.5859143515079891  0.4012985557270517  1.0000
  N   N11       1.0  0.9432649119065928  0.8169080366489833  0.16392298133137675  1.0000
  C   C185      1.0  0.9003683445803633  0.7973593201987985  0.1814630017728055  1.0000
  C   C186      1.0  0.9704091619513658  0.8448744116748353  0.18843882268226395  1.0000
  C   C187      1.0  0.9296888190905924  0.8482827710376669  0.13493851686065073  1.0000
  C   C188      1.0  0.9725813751071544  0.7771502854216489  0.15103283862563588  1.0000
  H   H217      1.0  0.9095165975890478  0.773705907470812  0.20359700163435485  1.0000
  H   H218      1.0  0.8789680246619388  0.7758863515219134  0.16381960376093233  1.0000
  H   H219      1.0  0.877539015893654  0.8264167757882627  0.19166613633978288  1.0000
  H   H220      1.0  0.0026097472178359116  0.8610669404377903  0.1760184289507695  1.0000
  H   H221      1.0  0.9488837388903681  0.8746066087085325  0.19904686079469727  1.0000
  H   H222      1.0  0.9816782548752452  0.8222044600995181  0.21052326635230653  1.0000
  H   H223      1.0  0.9612733844236707  0.8640909173750855  0.12136621911111091  1.0000
  H   H224      1.0  0.907497582565382  0.8786525457230461  0.14379327026775357  1.0000
  H   H225      1.0  0.9093486313667445  0.8283910660124015  0.11575528937530845  1.0000
  H   H226      1.0  0.9835695310959668  0.7529280569669793  0.17233108095201544  1.0000
  H   H227      1.0  0.005210259673389173  0.7906076136508753  0.13756004705843727  1.0000
  H   H228      1.0  0.9531068859822579  0.7550050870637903  0.13257949678296033  1.0000
  N   N12       1.0  0.7773075682205188  0.9361999548807622  0.9414303662516039  1.0000
  C   C189      1.0  0.8177689161753906  0.9541969529260483  0.9202537542416874  1.0000
  C   C190      1.0  0.7729820315310665  0.8839338108769322  0.9376355223137512  1.0000
  C   C191      1.0  0.7335379730753901  0.9595483930525613  0.9300557100717177  1.0000
  C   C192      1.0  0.7849960997543273  0.9471388366922433  0.9777520093800448  1.0000
  H   H229      1.0  0.8224764035400084  0.9934587941273586  0.9230007784105466  1.0000
  H   H230      1.0  0.8128885423307142  0.9473327143325039  0.8926140782294593  1.0000
  H   H231      1.0  0.851303714726163  0.9367088541092199  0.9278357842671219  1.0000
  H   H232      1.0  0.7673025463698412  0.8744126136308881  0.9105193124651325  1.0000
  H   H233      1.0  0.8054915050887853  0.8651915767394636  0.945956128284246  1.0000
  H   H234      1.0  0.7429153023086268  0.8691696818807745  0.9534066084886276  1.0000
  H   H235      1.0  0.735855848847895  0.9989987161364888  0.9321950782240639  1.0000
  H   H236      1.0  0.7022663662504484  0.9474265151647056  0.9457380797269592  1.0000
  H   H237      1.0  0.7264167787542706  0.9519816588807137  0.9027803580271375  1.0000
  H   H238      1.0  0.7549620164830577  0.934746734566479  0.9945538983123592  1.0000
  H   H239      1.0  0.7890909522961386  0.9862053518393206  0.9814886082471719  1.0000
  H   H240      1.0  0.8175630379669876  0.9297365479410601  0.9872385853063498  1.0000
  N   N13       1.0  0.07527581817652733  0.7951440597148011  0.9695139553325964  1.0000
  C   C193      1.0  0.10194858131595486  0.7693966877760773  0.9426422424634943  1.0000
  C   C194      1.0  0.02694952800844042  0.8046197703729072  0.9578750505236329  1.0000
  C   C195      1.0  0.09909791129383383  0.8409826510129567  0.976183153561536  1.0000
  C   C196      1.0  0.07305669171606918  0.7656648661407828  0.0013464082017899948  1.0000
  H   H241      1.0  0.13873602196873322  0.7617714711943047  0.9504386956678197  1.0000
  H   H242      1.0  0.10400772499422822  0.7902240130776604  0.918126679972915  1.0000
  H   H243      1.0  0.08520327999260761  0.7343512188532898  0.9372769060182048  1.0000
  H   H244      1.0  0.006499925941586327  0.8256222426367967  0.9769702134724495  1.0000
  H   H245      1.0  0.0271154396628468  0.8254555667611111  0.9333435894416777  1.0000
  H   H246      1.0  0.007229817005540486  0.7707628710159693  0.9538420851087792  1.0000
  H   H247      1.0  0.07978338047290502  0.8613066721717124  0.9963755802719128  1.0000
  H   H248      1.0  0.10112889405940864  0.8642439093297158  0.9527509546499526  1.0000
  H   H249      1.0  0.13574077522722405  0.8351423245415763  0.9849445902886035  1.0000
  H   H250      1.0  0.05382752156339631  0.7842523304708225  0.022387440155123395  1.0000
  H   H251      1.0  0.10893583213200317  0.7563758743352877  0.010269777286419979  1.0000
  H   H252      1.0  0.054162597549134446  0.7313463024638465  0.9976101569518628  1.0000
  N   N14       1.0  0.20829982686785728  0.714552259792826  0.4330719167956857  1.0000
  C   C197      1.0  0.22701148015631595  0.6653075371799432  0.43245989463592405  1.0000
  C   C198      1.0  0.21010314100970057  0.7353808061443352  0.39800125944461046  1.0000
  C   C199      1.0  0.23710312753041554  0.7440581152247119  0.4556477119000763  1.0000
  C   C200      1.0  0.15890091332349193  0.7134031004862093  0.44616732702060635  1.0000
  H   H253      1.0  0.22598481230545997  0.6484197647550587  0.45848685566213954  1.0000
  H   H254      1.0  0.2643325125281379  0.6646712690770696  0.4228805891732589  1.0000
  H   H255      1.0  0.20589575662114024  0.64214986984997  0.4156419569939178  1.0000
  H   H256      1.0  0.1952806254363578  0.7721527893449384  0.3973290871612152  1.0000
  H   H257      1.0  0.24699012197836845  0.7373420569609109  0.38753249704079595  1.0000
  H   H258      1.0  0.18936102919372136  0.7135791517278203  0.38013315345638954  1.0000
  H   H259      1.0  0.2743245059299823  0.7470389322989888  0.445926670468802  1.0000
  H   H260      1.0  0.23772007712463578  0.7285581566066178  0.48210520649374855  1.0000
  H   H261      1.0  0.22306771826276636  0.7810212327779036  0.4575138730087647  1.0000
  H   H262      1.0  0.1433250290874222  0.749823377018615  0.44673847019577506  1.0000
  H   H263      1.0  0.15634733223111802  0.69788029439484  0.4725901435227111  1.0000
  H   H264      1.0  0.13629989359778627  0.6912533968917924  0.42977845440190354  1.0000
  N   N15       1.0  0.541145022108504  0.8719657537483911  0.5272209109224215  1.0000
  C   C201      1.0  0.5140571620507637  0.8380403355249884  0.5067931708782835  1.0000
  C   C202      1.0  0.50823286025502  0.899268394083926  0.5493065153099214  1.0000
  C   C203      1.0  0.5677757488771477  0.9051769899055743  0.5039819857773385  1.0000
  C   C204      1.0  0.5743835430421911  0.8452120313233497  0.5488713838540633  1.0000
  H   H265      1.0  0.48876193642490273  0.8569093214109957  0.49007014704729635  1.0000
  H   H266      1.0  0.493062762840993  0.812985501222235  0.5235754079669486  1.0000
  H   H267      1.0  0.5375485864858055  0.8163567885473876  0.49000550192345377  1.0000
  H   H268      1.0  0.5273767922256208  0.9249511083259612  0.5653767581427123  1.0000
  H   H269      1.0  0.4830373960928133  0.9204036396131152  0.5338234099714589  1.0000
  H   H270      1.0  0.4870171133307518  0.8750662709041384  0.5667537399529078  1.0000
  H   H271      1.0  0.5437579307870353  0.9252125962219089  0.48685117618716534  1.0000
  H   H272      1.0  0.5934051472147959  0.8858782754224599  0.487232453812673  1.0000
  H   H273      1.0  0.5877251129857779  0.9321522392184602  0.5184535097018534  1.0000
  H   H274      1.0  0.5954325636504675  0.8697105607531991  0.564654910227597  1.0000
  H   H275      1.0  0.5994831005365571  0.8238275366115759  0.5331011397338498  1.0000
  H   H276      1.0  0.5552738648194577  0.8199141261945212  0.5667585461059315  1.0000
  N   N16       1.0  0.18063582546499135  0.3740165724433797  0.41373709546853576  1.0000
  C   C205      1.0  0.19760316972846192  0.4040205349333602  0.3843991514570738  1.0000
  C   C206      1.0  0.13549448510109033  0.3510217368985435  0.40526234837859343  1.0000
  C   C207      1.0  0.173257197346532  0.40431453977770476  0.4439852183613426  1.0000
  C   C208      1.0  0.2160721979780474  0.33683060514046514  0.4211878291691029  1.0000
  H   H277      1.0  0.23145935780516527  0.42220275456531325  0.3899175461041771  1.0000
  H   H278      1.0  0.17157607142704892  0.43230005400152927  0.37799712225319126  1.0000
  H   H279      1.0  0.2036414919165711  0.3823551998365801  0.361060997830057  1.0000
  H   H280      1.0  0.13940318689594236  0.32878173607825445  0.3820413986084052  1.0000
  H   H281      1.0  0.12197571324461177  0.3273782443473225  0.42653213806845897  1.0000
  H   H282      1.0  0.10768572316354799  0.37807289382363435  0.40009566128724966  1.0000
  H   H283      1.0  0.1607936544056049  0.3830448044788675  0.46680624669122067  1.0000
  H   H284      1.0  0.14632974591270367  0.43243015874749097  0.43916439569543875  1.0000
  H   H285      1.0  0.2062699245397004  0.4231265006153798  0.45091094159794026  1.0000
  H   H286      1.0  0.25056698284097806  0.35292925122434043  0.4277635280919924  1.0000
  H   H287      1.0  0.22249312407730162  0.3135489895820437  0.398697450633409  1.0000
  H   H288      1.0  0.2043483536620453  0.3132305540752797  0.44304239957670477  1.0000
  N   N17       1.0  0.29510356379433855  0.670288389356701  0.654587253008724  1.0000
  C   C209      1.0  0.282967115491606  0.7181334879273918  0.6408301894573718  1.0000
  C   C210      1.0  0.2840745585731704  0.6337719714420346  0.6290987936301132  1.0000
  C   C211      1.0  0.26740379149006444  0.660666173981273  0.6865872822144974  1.0000
  C   C212      1.0  0.3460066030892221  0.6687434202865773  0.6618993337453087  1.0000
  H   H289      1.0  0.3045449157821621  0.7274447983262209  0.6173887289918405  1.0000
  H   H290      1.0  0.28896041049714394  0.7463204738008558  0.6599812453360693  1.0000
  H   H291      1.0  0.24527315361391563  0.7199729919887563  0.6335331498648202  1.0000
  H   H292      1.0  0.30479618663159863  0.6398282883404289  0.6048103291844688  1.0000
  H   H293      1.0  0.2920842159790438  0.5970977455174696  0.6387037428761216  1.0000
  H   H294      1.0  0.24612605853166333  0.6347124891257626  0.622316933643458  1.0000
  H   H295      1.0  0.27595017667297056  0.6250431210519314  0.6979556522848713  1.0000
  H   H296      1.0  0.22878917769794457  0.6614442125774561  0.6820442830672376  1.0000
  H   H297      1.0  0.27483402255317296  0.6878407441703475  0.7062959470748253  1.0000
  H   H298      1.0  0.35687524320172054  0.6326466877483423  0.6710688443068824  1.0000
  H   H299      1.0  0.35491406047649127  0.6943576586439065  0.6821650862682702  1.0000
  H   H300      1.0  0.3681221028932909  0.6782943319595917  0.638772200226798  1.0000
  N   N18       1.0  0.7672787600721623  0.2507533829998423  0.8810665051910729  1.0000
  C   C213      1.0  0.7994862567785237  0.21226061168672974  0.8919179858942133  1.0000
  C   C214      1.0  0.7212223469711166  0.22971081891674514  0.872436715769321  1.0000
  C   C215      1.0  0.7878363119741014  0.2761250986370692  0.8506675512031628  1.0000
  C   C216      1.0  0.7607434257791927  0.284753989941498  0.9093071144740947  1.0000
  H   H301      1.0  0.8350185399763164  0.2264794252252806  0.8977756795841747  1.0000
  H   H302      1.0  0.8039255823891369  0.18490988587380083  0.8717341067545982  1.0000
  H   H303      1.0  0.7854292382674328  0.19333259742613537  0.915339747201669  1.0000
  H   H304      1.0  0.6960939509754908  0.2575070885995509  0.8636005398751164  1.0000
  H   H305      1.0  0.7251724747459967  0.20339070424196148  0.8515051818725982  1.0000
  H   H306      1.0  0.7047163382246266  0.21012210594972996  0.8947814498622103  1.0000
  H   H307      1.0  0.7926653490303038  0.2517265786047939  0.8286715554142283  1.0000
  H   H308      1.0  0.8226647545411759  0.2924049572071887  0.8561666229946812  1.0000
  H   H309      1.0  0.7646088459782241  0.3056566193310763  0.8420169990899229  1.0000
  H   H310      1.0  0.7365590498037813  0.3143113692999779  0.9022458112179623  1.0000
  H   H311      1.0  0.7947561484464472  0.3018684440528085  0.9160508612974035  1.0000
  H   H312      1.0  0.7457515783751778  0.2668166427846822  0.932825774850063  1.0000
  N   N19       1.0  0.5535313830397716  0.6669181127316071  0.8779813855127452  1.0000
  C   C217      1.0  0.5344956258220338  0.617648782654532  0.8794592209687513  1.0000
  C   C218      1.0  0.5562655710279208  0.6841287088319292  0.8419926368641635  1.0000
  C   C219      1.0  0.601283919385923  0.6672686495094086  0.8923537539183406  1.0000
  C   C220      1.0  0.5221231138682998  0.6986057157009499  0.8980377273587782  1.0000
  H   H313      1.0  0.4988742935029693  0.6158259704829688  0.8681958438000753  1.0000
  H   H314      1.0  0.5312590088936284  0.6036492729578579  0.9062615213683785  1.0000
  H   H315      1.0  0.5576602406204277  0.5926281230614753  0.8649567522803812  1.0000
  H   H316      1.0  0.5206972883154405  0.6852575854803756  0.8305676334024003  1.0000
  H   H317      1.0  0.5715116003054556  0.7207844528650352  0.839761779876406  1.0000
  H   H318      1.0  0.5785663384356323  0.6603509749452869  0.8258026410777753  1.0000
  H   H319      1.0  0.6167045494788184  0.7039371731677947  0.8917463548799478  1.0000
  H   H320      1.0  0.6258676914632507  0.6438418104883159  0.8776170548381086  1.0000
  H   H321      1.0  0.6006432375715257  0.6541772036747121  0.9194497665551703  1.0000
  H   H322      1.0  0.5351723143279153  0.7362047508403942  0.8973423365943385  1.0000
  H   H323      1.0  0.5191000340167432  0.6868529022677712  0.9253666002765598  1.0000
  H   H324      1.0  0.4857552841028518  0.699176015517926  0.8878496802122949  1.0000
  N   N20       1.0  0.044493881298534266  0.20634410246478865  0.994868307723295  1.0000
  C   C221      1.0  0.9929592626438433  0.20471808547857503  0.9899575596274323  1.0000
  C   C222      1.0  0.05767206957208004  0.252832558064438  0.00925684270635374  1.0000
  C   C223      1.0  0.06933348237247272  0.20042059940255846  0.9614924007519605  1.0000
  C   C224      1.0  0.05799248464217732  0.1673363378990351  0.018672086077125005  1.0000
  H   H325      1.0  0.9820489049161886  0.169992579814154  0.9789592107383494  1.0000
  H   H326      1.0  0.9815765843625313  0.2337287533381238  0.9721462255701644  1.0000
  H   H327      1.0  0.9730197180301852  0.20874595856662892  0.014645119205436874  1.0000
  H   H328      1.0  0.09639073448514646  0.25506614601712296  0.013116068443579598  1.0000
  H   H329      1.0  0.04839488736355735  0.2830653379098146  0.9917616856952398  1.0000
  H   H330      1.0  0.039557409085325235  0.2588762493377707  0.03437263304974625  1.0000
  H   H331      1.0  0.10835874340953588  0.19943822301493463  0.9643493339185429  1.0000
  H   H332      1.0  0.06188430188823135  0.23055223872588101  0.9434300791992181  1.0000
  H   H333      1.0  0.05854702002061907  0.16670879657049834  0.9491501980840074  1.0000
  H   H334      1.0  0.042082884538179544  0.1720967221337127  0.04468735675062896  1.0000
  H   H335      1.0  0.09704065190981637  0.165216129319084  0.021156264251556145  1.0000
  H   H336      1.0  0.04571114325422876  0.13210799966633247  0.009611405084821945  1.0000
  N   N21       1.0  0.3617672218687943  0.016644113836612684  0.3860388180370632  1.0000
  C   C225      1.0  0.38138433949238787  0.9844911814638817  0.3597111936893822  1.0000
  C   C226      1.0  0.4008684078973127  0.041399191223379095  0.4026781173189391  1.0000
  C   C227      1.0  0.3343770048708504  0.9883614651825587  0.4120219240162202  1.0000
  C   C228      1.0  0.3307347545818461  0.05240923885086901  0.36980503151810395  1.0000
  H   H337      1.0  0.35292534780259005  0.9650484995803267  0.34658486456359827  1.0000
  H   H338      1.0  0.4051869658098612  0.9572605955092363  0.37119203190024896  1.0000
  H   H339      1.0  0.4024266519123626  0.004783238659470834  0.3397795834185566  1.0000
  H   H340      1.0  0.422750557793873  0.06237246313323541  0.3836769693791448  1.0000
  H   H341      1.0  0.3876223725142861  0.06631109436377947  0.4225753287830277  1.0000
  H   H342      1.0  0.4246883652637427  0.015709014192663462  0.41551514374701637  1.0000
  H   H343      1.0  0.31975911567591264  0.011524242693623732  0.4325665452783904  1.0000
  H   H344      1.0  0.3567753077829514  0.9608150746913013  0.42453847997612876  1.0000
  H   H345      1.0  0.3042563494016907  0.9694795153876362  0.4004389539461223  1.0000
  H   H346      1.0  0.31527551365115214  0.07723665942907498  0.3890108251261531  1.0000
  H   H347      1.0  0.30086826613763185  0.035249728114578716  0.3567090445297681  1.0000
  H   H348      1.0  0.35047930354845125  0.07486552322842188  0.35038195554950424  1.0000
  N   N22       1.0  0.5120550815626818  0.3062501309401465  0.8867075065717946  1.0000
  C   C229      1.0  0.4833630989393424  0.2752060270429923  0.8651248297861482  1.0000
  C   C230      1.0  0.4889453135037295  0.3533115159295186  0.8898490277525181  1.0000
  C   C231      1.0  0.5595994539328273  0.3126556245091698  0.8708178275723879  1.0000
  C   C232      1.0  0.5161867254213444  0.2838750143787936  0.9210742757890629  1.0000
  H   H349      1.0  0.4993792340456041  0.23904518835592753  0.8624819327179869  1.0000
  H   H350      1.0  0.4799154675230279  0.29064718791620503  0.838873348401797  1.0000
  H   H351      1.0  0.4470332058767993  0.27030504219927376  0.8762634856662418  1.0000
  H   H352      1.0  0.48518280103555467  0.3711516162133563  0.8643393741320654  1.0000
  H   H353      1.0  0.4530211436629518  0.3497882641862428  0.9019514863070126  1.0000
  H   H354      1.0  0.5099196217892098  0.3779152033134255  0.9056372416964593  1.0000
  H   H355      1.0  0.5779151516777351  0.2777655372232295  0.8678217958611285  1.0000
  H   H356      1.0  0.5820728712721608  0.33605719788474897  0.8864348740095417  1.0000
  H   H357      1.0  0.5577614880237902  0.3300394764379563  0.8450067351017916  1.0000
  H   H358      1.0  0.5390762882391793  0.3053476110416962  0.9376894552314345  1.0000
  H   H359      1.0  0.5312880985063123  0.24721942546559816  0.9195792709376419  1.0000
  H   H360      1.0  0.48106679598320434  0.28056104334109766  0.9343467880518257  1.0000
  N   N23       1.0  0.2082999161474357  0.4922385681991091  0.9506713990491997  1.0000
  C   C233      1.0  0.18574970067993854  0.5222875431665899  0.977141053146748  1.0000
  C   C234      1.0  0.1740561595341302  0.482251107800724  0.9237761338427857  1.0000
  C   C235      1.0  0.22362078792400616  0.44666590631401243  0.966494698083243  1.0000
  C   C236      1.0  0.2496767649122539  0.5176727149228211  0.9352744699741801  1.0000
  H   H361      1.0  0.2104206384315332  0.5304921947626138  0.9979349571094717  1.0000
  H   H362      1.0  0.15426254517830834  0.5042746386086009  0.9892907070584693  1.0000
  H   H363      1.0  0.1737790117186656  0.5570313276579127  0.9661087902278889  1.0000
  H   H364      1.0  0.18961062404401144  0.45914712721191914  0.9035761204464985  1.0000
  H   H365      1.0  0.14212998603696841  0.46362199887419925  0.9345846315244181  1.0000
  H   H366      1.0  0.16195242046277292  0.515740488492805  0.911059029529912  1.0000
  H   H367      1.0  0.24953954720151936  0.4525689559449399  0.9869224239675684  1.0000
  H   H368      1.0  0.24017325395979566  0.42264517118996137  0.9472531668031274  1.0000
  H   H369      1.0  0.1931762586944632  0.42696116089184666  0.9784695182144342  1.0000
  H   H370      1.0  0.2764951940468622  0.5252889839488672  0.954761986527858  1.0000
  H   H371      1.0  0.2394123578115345  0.5525905693313649  0.9236098671082491  1.0000
  H   H372      1.0  0.26699770699434466  0.4965005618598428  0.9146770319661411  1.0000
  N   N24       1.0  0.4187188517080493  0.8979339017187468  0.778717523830893  1.0000
  C   C237      1.0  0.44238067526023694  0.934022569649933  0.799554885565692  1.0000
  C   C238      1.0  0.38909812474090577  0.9220446279728574  0.7530719573448932  1.0000
  C   C239      1.0  0.3886244953449763  0.8668495935704974  0.8012284087953989  1.0000
  C   C240      1.0  0.45474982929686136  0.8686608379912464  0.7609675569989384  1.0000
  H   H373      1.0  0.4648629301080915  0.9167957963517726  0.8191666329907251  1.0000
  H   H374      1.0  0.4163917504693369  0.9568621654869117  0.8133825174171296  1.0000
  H   H375      1.0  0.46578043220889337  0.9579363889119153  0.783524889311728  1.0000
  H   H376      1.0  0.3709647134175908  0.8955406136785056  0.7368991836429765  1.0000
  H   H377      1.0  0.3612639520875082  0.9442002146014861  0.7655441360339  1.0000
  H   H378      1.0  0.4105709750119636  0.9458777332408654  0.7356299762898947  1.0000
  H   H379      1.0  0.36970079931892036  0.8396132459158937  0.786306168607118  1.0000
  H   H380      1.0  0.36150262052504767  0.8877489637216942  0.8155139965229674  1.0000
  H   H381      1.0  0.4097985476115466  0.8473405193852331  0.8205009329268611  1.0000
  H   H382      1.0  0.4380899063363957  0.8409555834341647  0.7450488091471592  1.0000
  H   H383      1.0  0.477819059030011  0.8500167712435727  0.7795614292171095  1.0000
  H   H384      1.0  0.4780376787256521  0.8909577827633447  0.7437143350568426  1.0000
