data_image0
_chemical_formula_structural       FeS2FeS2FeSFeS3FeS2FeS2FeSFeS3FeS2FeS2FeSFeS3FeS2FeS2FeSFeS3FeS2FeS2FeSFeS3FeS2FeS2FeSFeS3FeS2FeS2FeSFeS3FeS2FeS2FeSFeS3FeS2FeS2FeSFeS3FeS2FeS2FeSFeS3FeS2FeS2FeSFeS3FeS2FeS2FeSFeS3FeS2FeS2FeSFeS3FeS2FeS2FeSFeS3FeS2FeS2FeSFeS3FeS2FeS2FeSFeS3FeS2FeS2FeSFeS3FeS2FeS2FeSFeS3C6H4C6H4C6H4C6H4C6H4C6H4C6H4C6H4C6H4C6H4C6H4C6H4C6H4C6H4C6H4C6H4C6H4C6H4C6H4C6H4C6H4C6H4C6H4C6H4C6H4C6H4C6H4C6H4C6H4C6H4C6H4C6H4C6H4C6H4C6H4C6H4NC4H12NC4H12NC4H12NC4H12NC4H12NC4H12NC4H12NC4H12NC4H12NC4H12NC4H12NC4H12NC4H12NC4H12NC4H12NC4H12NC4H12NC4H12NC4H12NC4H12NC4H12NC4H12NC4H12NC4H12NC4H12NC4H12NC4H12NC4H12NC4H12NC4H12NC4H12NC4H12NC4H12NC4H12NC4H12NC4H12
_chemical_formula_sum              "Fe72 S144 C360 H576 N36"
_cell_length_a       32.90562536884594
_cell_length_b       32.75794202342452
_cell_length_c       65.9265756480343
_cell_angle_alpha    90.58056650435462
_cell_angle_beta     89.361546782166
_cell_angle_gamma    119.44903792581269

_space_group_name_H-M_alt    "P 1"
_space_group_IT_number       1

loop_
  _space_group_symop_operation_xyz
  'x, y, z'

loop_
  _atom_site_type_symbol
  _atom_site_label
  _atom_site_symmetry_multiplicity
  _atom_site_fract_x
  _atom_site_fract_y
  _atom_site_fract_z
  _atom_site_occupancy
  Fe  Fe1       1.0  0.3388623829329409  0.0574839178136365  0.7770051434086507  1.0000
  S   S1        1.0  0.41318060320426014  0.0894695035994046  0.7874094647964148  1.0000
  S   S2        1.0  0.2793827817245044  0.012371081009014073  0.7981309248819038  1.0000
  Fe  Fe2       1.0  0.36523331087161465  0.09695341044036085  0.7347138633725647  1.0000
  S   S3        1.0  0.44161416034594275  0.1334550661066427  0.7413015190744494  1.0000
  S   S4        1.0  0.3316237168290757  0.09390744174633707  0.70455751227467  1.0000
  Fe  Fe3       1.0  0.427799414696659  0.06736837330862357  0.7571599174622603  1.0000
  S   S5        1.0  0.483896820705712  0.04818243380064729  0.7500023291612598  1.0000
  Fe  Fe4       1.0  0.4224670212855265  0.15325601597916666  0.7711476612608765  1.0000
  S   S6        1.0  0.47095973449156187  0.22331637562768267  0.7852431379982141  1.0000
  S   S7        1.0  0.35229915147420426  0.028768692916307584  0.74814270545641  1.0000
  S   S8        1.0  0.3470472373345176  0.12329336895295061  0.763071290925997  1.0000
  Fe  Fe5       1.0  0.6004140820701926  0.8091238817309148  0.7979163560148727  1.0000
  S   S9        1.0  0.6461593381410822  0.8193114596000298  0.7706881420031956  1.0000
  S   S10       1.0  0.585819034558921  0.7613978795198437  0.8246900615284947  1.0000
  Fe  Fe6       1.0  0.5804381470254578  0.8874400758346541  0.7865916843881481  1.0000
  S   S11       1.0  0.6250403771254307  0.9056942448595089  0.758475060450281  1.0000
  S   S12       1.0  0.535548124820758  0.9156458517575088  0.8004208623223634  1.0000
  Fe  Fe7       1.0  0.5923610876543388  0.8280016003593473  0.7535244439745296  1.0000
  S   S13       1.0  0.562515214637062  0.7988168448091152  0.7227911380297677  1.0000
  Fe  Fe8       1.0  0.6763399467683971  0.8961880242136836  0.7774572980142775  1.0000
  S   S14       1.0  0.7538823939118564  0.9441771027501985  0.7728680484206429  1.0000
  S   S15       1.0  0.5435166458066556  0.8101956818958124  0.7800866509237624  1.0000
  S   S16       1.0  0.6350854197368466  0.8855373205977863  0.8060827710336734  1.0000
  Fe  Fe9       1.0  0.05242629190027664  0.009514248741663511  0.823517528583923  1.0000
  S   S17       1.0  0.09140828967333103  0.023650253223821638  0.8525936491003663  1.0000
  S   S18       1.0  0.09321458848501317  0.023671585220619296  0.7942899450839878  1.0000
  Fe  Fe10      1.0  0.962095493486981  0.988539815020721  0.8446979895796299  1.0000
  S   S19       1.0  0.9954730412974914  0.003193588688570115  0.8755220999027683  1.0000
  S   S20       1.0  0.8839227826156004  0.959820364255915  0.8464686845213812  1.0000
  Fe  Fe11      1.0  0.05601910319706005  0.06501200369627673  0.8609531032560345  1.0000
  S   S21       1.0  0.10493334133202713  0.13484856968949324  0.8755177131878339  1.0000
  Fe  Fe12      1.0  0.027629015026599424  0.9606380943673923  0.8644294484681591  1.0000
  S   S22       1.0  0.03379347182997394  0.9119265832502771  0.8866942170052244  1.0000
  S   S23       1.0  0.020196156648240038  0.05460057863842862  0.8310677896296087  1.0000
  S   S24       1.0  0.9911200404620073  0.9421870155596401  0.8344078335312387  1.0000
  Fe  Fe13      1.0  0.08637997097492098  0.3455595335499515  0.9125243600905385  1.0000
  S   S25       1.0  0.09810780949527473  0.4170158742587282  0.9043887277901309  1.0000
  S   S26       1.0  0.03861230821339423  0.28410039927385033  0.8927011502535176  1.0000
  Fe  Fe14      1.0  0.14735498672976793  0.38184777328105457  0.9501659058634225  1.0000
  S   S27       1.0  0.16413376805216603  0.4562605722161753  0.9452537549747313  1.0000
  S   S28       1.0  0.17390020069409964  0.3548444231778269  0.9752130835727453  1.0000
  Fe  Fe15      1.0  0.08805701871330184  0.4252115465536553  0.9375944690961333  1.0000
  S   S29       1.0  0.04157346853604547  0.45107925239277674  0.9516134807629896  1.0000
  Fe  Fe16      1.0  0.17261335041596754  0.4415797176583037  0.9126330102691899  1.0000
  S   S30       1.0  0.2326255236329636  0.489626371599459  0.8927038614846419  1.0000
  S   S31       1.0  0.07053127269336486  0.35153422760354197  0.9452310461979819  1.0000
  S   S32       1.0  0.16178621905173124  0.3695655490373985  0.917982006606868  1.0000
  Fe  Fe17      1.0  0.875593694315357  0.6461910730892494  0.9094162876841316  1.0000
  S   S33       1.0  0.8464965076309766  0.5723744468315544  0.897924607517302  1.0000
  S   S34       1.0  0.8830015294165717  0.6964182217662507  0.8845492050908951  1.0000
  Fe  Fe18      1.0  0.8832308571815478  0.6184517450482043  0.9524072360660428  1.0000
  S   S35       1.0  0.8562348095613732  0.5429639274367647  0.9438388825498689  1.0000
  S   S36       1.0  0.9038036964369845  0.6361141855869055  0.9851912237883511  1.0000
  Fe  Fe19      1.0  0.9026125975115  0.5710405988561874  0.9164730739645571  1.0000
  S   S37       1.0  0.9477217046537079  0.5458394361890215  0.9004959573358604  1.0000
  Fe  Fe20      1.0  0.8029481864801341  0.551639929719408  0.9262270653682929  1.0000
  S   S38       1.0  0.7264843761039436  0.4983986491750271  0.9296716074164773  1.0000
  S   S39       1.0  0.9343927702056216  0.646293273386037  0.9263956919578905  1.0000
  S   S40       1.0  0.8271720411037974  0.6255586537509524  0.9364016818738058  1.0000
  Fe  Fe21      1.0  0.4261872490101722  0.39275524533607503  0.8468439390281607  1.0000
  S   S41       1.0  0.46620065654847526  0.4095893430488037  0.8759976800557786  1.0000
  S   S42       1.0  0.3757139619634123  0.3185385397180151  0.8368117103453552  1.0000
  Fe  Fe22      1.0  0.4585582771410576  0.49624654553267383  0.8380245134607345  1.0000
  S   S43       1.0  0.5001682906863304  0.5212263289821933  0.8666313191713743  1.0000
  S   S44       1.0  0.4545022284226622  0.5428110017354774  0.8139659868165401  1.0000
  Fe  Fe23      1.0  0.5238546563078333  0.4692635133976548  0.8587540150858942  1.0000
  S   S45       1.0  0.6013631064193208  0.4953066585440554  0.8565692860660092  1.0000
  Fe  Fe24      1.0  0.43887541535922414  0.4597313926539716  0.8811984912502578  1.0000
  S   S46       1.0  0.4043453439966269  0.4604452681277011  0.9107895184282587  1.0000
  S   S47       1.0  0.48596855883536766  0.44809228231279485  0.8289795292072747  1.0000
  S   S48       1.0  0.39512943525196365  0.43903641039483826  0.8532183328149678  1.0000
  Fe  Fe25      1.0  0.07237221292514696  0.04708029393394986  0.17607052668174902  1.0000
  S   S49       1.0  0.05441159021520381  0.06034622453603111  0.14482127260138938  1.0000
  S   S50       1.0  0.12825704035180902  0.02589759205498532  0.17478834212127445  1.0000
  Fe  Fe26      1.0  0.9934171578829073  0.05765212518878497  0.19550611138377058  1.0000
  S   S51       1.0  0.9699016637193386  0.07034379989270577  0.16581102212219745  1.0000
  S   S52       1.0  0.9557717476734241  0.05972419764965139  0.223962625089298  1.0000
  Fe  Fe27      1.0  0.9806103630184949  0.011772687003321458  0.15428627191792335  1.0000
  S   S53       1.0  0.9279379325878905  0.9578545100815423  0.13301759025079862  1.0000
  Fe  Fe28      1.0  0.04594578229178561  0.117619851583948  0.15964086367813737  1.0000
  S   S54       1.0  0.06470191967912192  0.1892180892152567  0.1478313176730031  1.0000
  S   S55       1.0  0.9985302693127194  0.9950429574867709  0.18460889728261348  1.0000
  S   S56       1.0  0.06964628012397371  0.1086366547231281  0.19022974206059112  1.0000
  Fe  Fe29      1.0  0.34794557874083837  0.9514977622680518  0.23885691092807554  1.0000
  S   S57       1.0  0.31572583634622714  0.9599432795402327  0.26764754723277706  1.0000
  S   S58       1.0  0.4176693694226886  0.008899035003959943  0.22719627541999843  1.0000
  Fe  Fe30      1.0  0.25855854872944833  0.8620582961983478  0.2269408936516423  1.0000
  S   S59       1.0  0.21931432890690475  0.8645803978982707  0.25446375728294657  1.0000
  S   S60       1.0  0.2214099731730692  0.8078096339761969  0.20269530361117963  1.0000
  Fe  Fe31      1.0  0.2528943426441545  0.9418051413952686  0.24841905099114503  1.0000
  S   S61       1.0  0.21662722137354867  0.9850513488040736  0.251784626620407  1.0000
  Fe  Fe32      1.0  0.2854591027037433  0.8822192855449684  0.27078104293761873  1.0000
  S   S62       1.0  0.2837989287575199  0.8433757934842053  0.29904797926769333  1.0000
  S   S63       1.0  0.2867859182254771  0.9378296925899537  0.21949149724080574  1.0000
  S   S64       1.0  0.3229920002229987  0.874760339363001  0.24343462044520128  1.0000
  Fe  Fe33      1.0  0.6755088948946204  0.10555830916897434  0.2670119845006196  1.0000
  S   S65       1.0  0.7215092616021902  0.07380542332074809  0.2720640550419125  1.0000
  S   S66       1.0  0.6005465595223095  0.056683151214918064  0.2764789074699062  1.0000
  Fe  Fe34      1.0  0.758689207319336  0.19853137737673587  0.2536012117040249  1.0000
  S   S67       1.0  0.8102739201055683  0.1732685444081302  0.2574957158823151  1.0000
  S   S68       1.0  0.7834271802536718  0.27359231534035544  0.24499887868313475  1.0000
  Fe  Fe35      1.0  0.7554642549533448  0.10733840610578338  0.24270088476915522  1.0000
  S   S69       1.0  0.7670289320362811  0.06641546175652617  0.21776207626156086  1.0000
  Fe  Fe36      1.0  0.7712448319705848  0.14246804852088973  0.2865036154209297  1.0000
  S   S70       1.0  0.8107018188525011  0.1454225346406239  0.3147561820480388  1.0000
  S   S71       1.0  0.7064001767482054  0.1349707471856826  0.23645126101377664  1.0000
  S   S72       1.0  0.7229955889997819  0.17203485238826302  0.28373706730068243  1.0000
  Fe  Fe37      1.0  0.07273807515249844  0.5465006630739437  0.19997810500957464  1.0000
  S   S73       1.0  0.07962874045610789  0.5759234342474525  0.16898021557764245  1.0000
  S   S74       1.0  0.11682729606002036  0.5930834570292467  0.22567592622495897  1.0000
  Fe  Fe38      1.0  0.0037676404211131054  0.44803401013880223  0.1853505531146798  1.0000
  S   S75       1.0  0.005113005633246015  0.4711969675128712  0.15309766064323582  1.0000
  S   S76       1.0  0.969516304919229  0.3706500002063471  0.19274603093614992  1.0000
  Fe  Fe39      1.0  0.08254148736509938  0.5131828649359911  0.15756704561254994  1.0000
  S   S77       1.0  0.13408998233270372  0.5241583783922728  0.13240403353336763  1.0000
  Fe  Fe40      1.0  0.0018676720646304545  0.5321183565846652  0.16746182527339  1.0000
  S   S78       1.0  0.9743609522183271  0.5784073955890885  0.155805148432906  1.0000
  S   S79       1.0  0.08181599443694874  0.48655581615751126  0.1887399394885432  1.0000
  S   S80       1.0  0.994391267192239  0.5059581142220573  0.19955260900656982  1.0000
  Fe  Fe41      1.0  0.7766050290074054  0.6582481757267958  0.07805862958803521  1.0000
  S   S81       1.0  0.7214016465071054  0.5871650967609762  0.08839304841091648  1.0000
  S   S82       1.0  0.7750506425140308  0.6756418713437963  0.045074027300854816  1.0000
  Fe  Fe42      1.0  0.8139070567422858  0.6905265431747263  0.12078136812357154  1.0000
  S   S83       1.0  0.7612171828150577  0.6218765192421306  0.13434514966659078  1.0000
  S   S84       1.0  0.8664610007488573  0.7429737668582812  0.14281596564637308  1.0000
  Fe  Fe43      1.0  0.7782158097073103  0.5893886785141667  0.1078399286903271  1.0000
  S   S85       1.0  0.7853962310631629  0.5251170576434664  0.11290977910898353  1.0000
  Fe  Fe44      1.0  0.7094251612167947  0.6259341664399984  0.11387349689383006  1.0000
  S   S86       1.0  0.6400041240429057  0.6156292221074569  0.12544044261450255  1.0000
  S   S87       1.0  0.8347106991246628  0.6577661728679103  0.09550976024750486  1.0000
  S   S88       1.0  0.7608404101248649  0.6974520950572334  0.10230015068132911  1.0000
  Fe  Fe45      1.0  0.2976158872805793  0.4568342653453358  0.07383347500404575  1.0000
  S   S89       1.0  0.3587133878668757  0.5089160769923096  0.09204159114231894  1.0000
  S   S90       1.0  0.26923562312860877  0.48607622410538853  0.05072959167351172  1.0000
  Fe  Fe46      1.0  0.2908663917295526  0.37275550443643424  0.09600176008647933  1.0000
  S   S91       1.0  0.35171729104709154  0.41795466543471615  0.11596748887910557  1.0000
  S   S92       1.0  0.25686924492188484  0.29441914592718144  0.1002407531988814  1.0000
  Fe  Fe47      1.0  0.31867469103058194  0.4637252940815092  0.11841457759353234  1.0000
  S   S93       1.0  0.30336380827955467  0.4885668038073676  0.14799918909380655  1.0000
  Fe  Fe48      1.0  0.38601424893675795  0.45854646118244774  0.08772500839596097  1.0000
  S   S94       1.0  0.4583707281557021  0.4760635873019477  0.07703790843966166  1.0000
  S   S95       1.0  0.2552526140738082  0.41540896049505166  0.10056226415630913  1.0000
  S   S96       1.0  0.32753753511586825  0.40963000883581524  0.06731760044824446  1.0000
  Fe  Fe49      1.0  0.9763792214301582  0.9871862044162782  0.5338133741598288  1.0000
  S   S97       1.0  0.9515925264187219  0.9973097555342734  0.5037156627459134  1.0000
  S   S98       1.0  0.9342583148533639  0.9463979257218396  0.561132598610754  1.0000
  Fe  Fe50      1.0  0.07846772608906431  0.05667461887930665  0.5243530892259101  1.0000
  S   S99       1.0  0.06270033540878113  0.07395387354792747  0.49354855540207415  1.0000
  S   S100      1.0  0.1498691585521486  0.07795821104656737  0.5368582696168291  1.0000
  Fe  Fe51      1.0  0.00118364124048842  0.07389536391370492  0.5087050937058225  1.0000
  S   S101      1.0  0.9710092374412831  0.12198634142524793  0.5052021871356268  1.0000
  Fe  Fe52      1.0  0.014533704609062115  0.9962077337596583  0.4906684047360877  1.0000
  S   S102      1.0  0.01433251407496573  0.9632583542080684  0.4604126196553958  1.0000
  S   S103      1.0  0.02159227956570753  0.06414408054819858  0.539880965380589  1.0000
  S   S104      1.0  0.03477055897007153  0.9787603291522793  0.5202731434826847  1.0000
  Fe  Fe53      1.0  0.4180157207058179  0.279500061017143  0.6186895741843795  1.0000
  S   S105      1.0  0.47146848926523455  0.2950675373682435  0.594043192705493  1.0000
  S   S106      1.0  0.44047593983965977  0.27533499095045433  0.6504232484357003  1.0000
  Fe  Fe54      1.0  0.3471839502553093  0.27915733087066985  0.5893282657810579  1.0000
  S   S107      1.0  0.3953934443930974  0.29507360086553275  0.5628315242512326  1.0000
  S   S108      1.0  0.27670426433179496  0.2710166679838384  0.5820048212948179  1.0000
  Fe  Fe55      1.0  0.41082373708476516  0.24151272987561498  0.576064273465999  1.0000
  S   S109      1.0  0.40182438399107745  0.18066062709158962  0.556586124251314  1.0000
  Fe  Fe56      1.0  0.45086416798837947  0.3475178192094449  0.5834470312885993  1.0000
  S   S110      1.0  0.5029929441686734  0.41865357780182  0.5704619865597167  1.0000
  S   S111      1.0  0.35883376228712865  0.22204182843059722  0.6014983178169483  1.0000
  S   S112      1.0  0.40133161196567285  0.3354370861945735  0.6092983051962422  1.0000
  Fe  Fe57      1.0  0.5822474724264789  0.6876916644036244  0.5945311961973573  1.0000
  S   S113      1.0  0.6584857350203396  0.7139721987721135  0.6002468112688789  1.0000
  S   S114      1.0  0.5236051386348938  0.6131061738436528  0.6006007368128222  1.0000
  Fe  Fe58      1.0  0.5974260316199701  0.7884977933595114  0.5917054402768259  1.0000
  S   S115      1.0  0.6741532859108479  0.8215363831489687  0.5977174637887688  1.0000
  S   S116      1.0  0.5672071333237574  0.8372041669945531  0.5908541739877892  1.0000
  Fe  Fe59      1.0  0.6714034075066292  0.7672023489183476  0.5760025501990126  1.0000
  S   S117      1.0  0.7225244357509645  0.7891362994586301  0.5496818416247896  1.0000
  Fe  Fe60      1.0  0.6542211569076261  0.7661402951389052  0.6214078733086575  1.0000
  S   S118      1.0  0.6853297552733565  0.7791439417931014  0.6528859380288302  1.0000
  S   S119      1.0  0.5950470855265819  0.7369098189425247  0.5684455272438292  1.0000
  S   S120      1.0  0.577752555444788  0.7372587200779668  0.617100339831927  1.0000
  Fe  Fe61      1.0  0.5329836624993527  0.0626150372091423  0.5249855368182001  1.0000
  S   S121      1.0  0.509908486973119  0.08127310035265438  0.49642640533828225  1.0000
  S   S122      1.0  0.5506900350930529  0.11214140816955982  0.5516959674816586  1.0000
  Fe  Fe62      1.0  0.5312367774149618  0.9773608074991699  0.5056777982115258  1.0000
  S   S123      1.0  0.5072820093301306  0.9893496745135436  0.475489638985993  1.0000
  S   S124      1.0  0.5476581669186029  0.9179709329105973  0.5068704742574557  1.0000
  Fe  Fe63      1.0  0.5606576247366003  0.06478701326405056  0.48055822320171104  1.0000
  S   S125      1.0  0.6053863352644798  0.11337234490266  0.45546666257386803  1.0000
  Fe  Fe64      1.0  0.45853525285980984  0.004488530297938498  0.4940347415322749  1.0000
  S   S126      1.0  0.3849371906526658  0.9872480811271055  0.486082519050523  1.0000
  S   S127      1.0  0.5881583611708456  0.052124508936204794  0.509384563396406  1.0000
  S   S128      1.0  0.47795225023283433  0.9865471685336337  0.5239766909032509  1.0000
  Fe  Fe65      1.0  0.8828811865912836  0.30412978462826606  0.40778756286745804  1.0000
  S   S129      1.0  0.875615880330005  0.34180026050228357  0.435181688892725  1.0000
  S   S130      1.0  0.8432577792153123  0.3014742376868195  0.37974156639981055  1.0000
  Fe  Fe66      1.0  0.9468783598767192  0.2763606883255852  0.42903575207814043  1.0000
  S   S131      1.0  0.9438420027649342  0.3109707050714749  0.4579301640936073  1.0000
  S   S132      1.0  0.9931296314241453  0.24338078281710282  0.4274671058251782  1.0000
  Fe  Fe67      1.0  0.8674892137807443  0.278884737210851  0.45192237657881507  1.0000
  S   S133      1.0  0.817812908129904  0.24075049601492815  0.47750936683038997  1.0000
  Fe  Fe68      1.0  0.9529987356586648  0.37057388882494613  0.43831175322096627  1.0000
  S   S134      1.0  0.009843187511649365  0.441804391029887  0.4489420740000061  1.0000
  S   S135      1.0  0.8693981288301579  0.23908974767246222  0.4244008848484663  1.0000
  S   S136      1.0  0.9609066052691203  0.33787622269491296  0.40951460402285994  1.0000
  Fe  Fe69      1.0  0.09170103439767635  0.7009353970095162  0.4156811017210126  1.0000
  S   S137      1.0  0.06947490505085605  0.7544590688358104  0.4093693734608992  1.0000
  S   S138      1.0  0.03740245138625009  0.6272147617768881  0.40656341938085255  1.0000
  Fe  Fe70      1.0  0.18385531081288473  0.7748784428308471  0.4341618066818815  1.0000
  S   S139      1.0  0.16763122019529156  0.8331264608150897  0.4297157475236383  1.0000
  S   S140      1.0  0.25220592653332585  0.7874131941984939  0.44731851453210925  1.0000
  Fe  Fe71      1.0  0.09578084575048161  0.7814023285764856  0.4405509010602103  1.0000
  S   S141      1.0  0.05302419455844488  0.7919091995191073  0.46486989170419146  1.0000
  Fe  Fe72      1.0  0.1432471726645207  0.8006114717706935  0.3989431673971124  1.0000
  S   S142      1.0  0.16070649504695003  0.8492375870805097  0.3722133362864046  1.0000
  S   S143      1.0  0.11384474972362107  0.725229861266173  0.4475823537075064  1.0000
  S   S144      1.0  0.16373484865956767  0.7451328541912561  0.4025638648483799  1.0000
  C   C1        1.0  0.01785997719897381  0.4930410852267867  0.4367403357566759  1.0000
  C   C2        1.0  0.9883371534696351  0.4908457973768909  0.42117983330303754  1.0000
  C   C3        1.0  0.9952655017320433  0.5322791499347149  0.4118889715983537  1.0000
  C   C4        1.0  0.03180174231521639  0.5761376804043058  0.41800003279103154  1.0000
  C   C5        1.0  0.06151775785612504  0.5783591613378981  0.4334990174062309  1.0000
  C   C6        1.0  0.05443582971750072  0.5369065962895164  0.4428728978823634  1.0000
  H   H1        1.0  0.9600616803268428  0.45724908735943426  0.41634637277896674  1.0000
  H   H2        1.0  0.9720943789499025  0.5303196733258597  0.39993430540682373  1.0000
  H   H3        1.0  0.08984513774320552  0.6119606642227851  0.43828973208012834  1.0000
  H   H4        1.0  0.0774426049726582  0.5388550130183342  0.454893521586082  1.0000
  C   C7        1.0  0.34854189991302204  0.9314048833537115  0.47554876638579185  1.0000
  C   C8        1.0  0.3647974909388058  0.8998122588700072  0.4717581360036359  1.0000
  C   C9        1.0  0.33484605832281483  0.8555052725274814  0.4632783962617547  1.0000
  C   C10       1.0  0.2885469540384935  0.8425465551440439  0.4585997568377404  1.0000
  C   C11       1.0  0.27233557630409283  0.8741336295216583  0.4625297080844783  1.0000
  C   C12       1.0  0.3023016120423639  0.9185031332980113  0.4708404399161941  1.0000
  H   H5        1.0  0.40034579698357237  0.9093421112651456  0.4754579137253075  1.0000
  H   H6        1.0  0.34759337337937923  0.8311682682814499  0.460395283455542  1.0000
  H   H7        1.0  0.23646653639661738  0.8640796686493496  0.45958689358508725  1.0000
  H   H8        1.0  0.2894220701479962  0.9426193893876113  0.47383735458949366  1.0000
  C   C13       1.0  0.665115252462067  0.1472608439877351  0.460816984800926  1.0000
  C   C14       1.0  0.6919984398249283  0.18987861453892738  0.45073508431228637  1.0000
  C   C15       1.0  0.7395679009684629  0.21804863510747444  0.45521296643212206  1.0000
  C   C16       1.0  0.7601291069837225  0.20381226902172486  0.4699649525954355  1.0000
  C   C17       1.0  0.7333520426360383  0.16105084018690133  0.4798965573609232  1.0000
  C   C18       1.0  0.6860736281593057  0.13254387749715846  0.4751390288249299  1.0000
  H   H9        1.0  0.6757802109539436  0.2015699606497947  0.4397513616973377  1.0000
  H   H10       1.0  0.7600095535946858  0.25146086580325405  0.44774651999153925  1.0000
  H   H11       1.0  0.74925797325215  0.1499389660977807  0.49128773257699654  1.0000
  H   H12       1.0  0.6659520038457869  0.09913551422955735  0.4825401642137681  1.0000
  C   C19       1.0  0.5579597110217273  0.8568186377862234  0.5674913578302263  1.0000
  C   C20       1.0  0.550573209072213  0.8955291729471071  0.5672129811267236  1.0000
  C   C21       1.0  0.5465159178199279  0.9141758166730798  0.5487069094432534  1.0000
  C   C22       1.0  0.5496109247921489  0.8939763754969007  0.5303879424729164  1.0000
  C   C23       1.0  0.5560917596727054  0.8547093053323414  0.530684072066272  1.0000
  C   C24       1.0  0.5601897110888582  0.8360955038505049  0.5491848749385918  1.0000
  H   H13       1.0  0.5486591758329047  0.9115729346536143  0.581356297302769  1.0000
  H   H14       1.0  0.5413761458890367  0.9443538768499495  0.5486089154361308  1.0000
  H   H15       1.0  0.5579742743075442  0.8386809832865226  0.516532576880483  1.0000
  H   H16       1.0  0.565217354746262  0.8058708875663652  0.5492863883669845  1.0000
  C   C25       1.0  0.5116965672679219  0.47293399601945935  0.5803034114850458  1.0000
  C   C26       1.0  0.4851984721247294  0.47505120774812926  0.5965908243910042  1.0000
  C   C27       1.0  0.489519403015894  0.5183219359486941  0.6026433105762152  1.0000
  C   C28       1.0  0.5215536109042873  0.5601487834202304  0.5929881252520859  1.0000
  C   C29       1.0  0.5493090098206216  0.5583314031125969  0.5771827614195867  1.0000
  C   C30       1.0  0.5440123461601162  0.5148039833726596  0.5707459347679524  1.0000
  H   H17       1.0  0.46098989485223624  0.4433175296623797  0.6043979631732754  1.0000
  H   H18       1.0  0.4678175784470938  0.5193491826113062  0.6148577359908214  1.0000
  H   H19       1.0  0.573981061509366  0.590262326022832  0.569574741252831  1.0000
  H   H20       1.0  0.5647659852458724  0.5135539603748749  0.5581550730672517  1.0000
  C   C31       1.0  0.4447569829087704  0.16364897059029715  0.5555200483258375  1.0000
  C   C32       1.0  0.48779210016764896  0.18906607470579584  0.5652538896588137  1.0000
  C   C33       1.0  0.5203993250694857  0.17303101061309642  0.564314182361801  1.0000
  C   C34       1.0  0.5100727248226797  0.1320194385240933  0.5534403083157929  1.0000
  C   C35       1.0  0.46721911521766357  0.10700142230914599  0.5437054443900997  1.0000
  C   C36       1.0  0.4347401449477354  0.12274966708392196  0.5447915105733242  1.0000
  H   H21       1.0  0.4959973957543054  0.22106728303378506  0.5733368096995574  1.0000
  H   H22       1.0  0.5536556215838051  0.1925681845028488  0.5718264573959365  1.0000
  H   H23       1.0  0.45880421189363946  0.07509627259265411  0.5354733738034353  1.0000
  H   H24       1.0  0.401725457714831  0.10305158704431563  0.5372758554110285  1.0000
  C   C37       1.0  0.9782517771967257  0.15518368331923058  0.4833230066454962  1.0000
  C   C38       1.0  0.01237105720559395  0.16308202950940523  0.46864562812367266  1.0000
  C   C39       1.0  0.01648603475695465  0.18967098847016425  0.45130443543348137  1.0000
  C   C40       1.0  0.9866013428176837  0.208412669371966  0.44868466907919585  1.0000
  C   C41       1.0  0.952495899766355  0.20022108627213092  0.4633364650053098  1.0000
  C   C42       1.0  0.9485137714326682  0.17390802057470897  0.48061690803046436  1.0000
  H   H25       1.0  0.035859885495649335  0.14927586604269003  0.47082371733387396  1.0000
  H   H26       1.0  0.0431660558320861  0.19622712369748663  0.4400521707985943  1.0000
  H   H27       1.0  0.9289975805001975  0.21408841942127926  0.46140777911341274  1.0000
  H   H28       1.0  0.9220679268890652  0.16790602135893073  0.49193247578096433  1.0000
  C   C43       1.0  0.02611943317059986  0.9162802369731908  0.46172199428505356  1.0000
  C   C44       1.0  0.0444289383081517  0.9044628920673498  0.4447378240353419  1.0000
  C   C45       1.0  0.05373186767189635  0.8668910577606461  0.44559296834933154  1.0000
  C   C46       1.0  0.04383923971649445  0.8404550712932064  0.4633342079501278  1.0000
  C   C47       1.0  0.025096382827582975  0.8520058068187737  0.48019926216359615  1.0000
  C   C48       1.0  0.016565577234838758  0.8899585440629907  0.4794532768312578  1.0000
  H   H29       1.0  0.051717258202368374  0.9245493880262112  0.43094154803180496  1.0000
  H   H30       1.0  0.06794789918549674  0.8580322251121647  0.43247219576006424  1.0000
  H   H31       1.0  0.017105911729929923  0.8315205142359648  0.4939126194942584  1.0000
  H   H32       1.0  0.0015688324187441705  0.8980938655729618  0.4924716030167853  1.0000
  C   C49       1.0  0.8753253421215362  0.9030323363772464  0.5577261146893487  1.0000
  C   C50       1.0  0.8572819573193123  0.8866088855324433  0.5383891466972741  1.0000
  C   C51       1.0  0.8105731935671225  0.8511161072031243  0.5361704988618693  1.0000
  C   C52       1.0  0.7813955484411865  0.8323131410345193  0.553214002455771  1.0000
  C   C53       1.0  0.7992275154456464  0.8491958704506527  0.5725362992057186  1.0000
  C   C54       1.0  0.8461506862515724  0.8842023122915048  0.5747757724431302  1.0000
  H   H33       1.0  0.8795447307405682  0.9005843193672195  0.525173829323831  1.0000
  H   H34       1.0  0.7969942930856017  0.838136492574107  0.5211877748987475  1.0000
  H   H35       1.0  0.7770507714267063  0.8348729546975248  0.5857653551314866  1.0000
  H   H36       1.0  0.8598859996296339  0.8966308932523778  0.5897829315881026  1.0000
  C   C55       1.0  0.18475059901778676  0.13316224540204114  0.5482595459860578  1.0000
  C   C56       1.0  0.23000858299651997  0.1450477618704163  0.5541752503440514  1.0000
  C   C57       1.0  0.25842351354933  0.18761880393914585  0.564155521231477  1.0000
  C   C58       1.0  0.24154401884605653  0.21838600659779384  0.5686731987515949  1.0000
  C   C59       1.0  0.19628141588587752  0.20674549613912582  0.5626431397907745  1.0000
  C   C60       1.0  0.1679620904165566  0.1642803090988862  0.5523200565903947  1.0000
  H   H37       1.0  0.2432545647687518  0.12124707971349673  0.5510660284939575  1.0000
  H   H38       1.0  0.293419701960679  0.19646877096811421  0.568392785153646  1.0000
  H   H39       1.0  0.18310803998351202  0.2305267700939724  0.5660020208100776  1.0000
  H   H40       1.0  0.13314022748851928  0.15549241473183964  0.5476999002077699  1.0000
  C   C61       1.0  0.5067994444844859  0.5112087987188989  0.09240950736725359  1.0000
  C   C62       1.0  0.5056672526197664  0.5426483901393506  0.10661016212881716  1.0000
  C   C63       1.0  0.5464739762404937  0.5737546080232437  0.11710358399594022  1.0000
  C   C64       1.0  0.5884023746434331  0.5733139276477544  0.11356092041632979  1.0000
  C   C65       1.0  0.5889910852221907  0.5406490366200261  0.09993972800997715  1.0000
  C   C66       1.0  0.548434772623779  0.5100025498926413  0.08925373702059138  1.0000
  H   H41       1.0  0.4736995248226283  0.5438171774124221  0.10911601666790356  1.0000
  H   H42       1.0  0.5457186026045198  0.5987388851917302  0.127744557175695  1.0000
  H   H43       1.0  0.6207171502349004  0.5390706450082099  0.09759008097594644  1.0000
  H   H44       1.0  0.5493013958463189  0.4853324115867055  0.07846045352796105  1.0000
  C   C67       1.0  0.18109984396832737  0.5145710559831617  0.13741184561013353  1.0000
  C   C68       1.0  0.18892190093077646  0.5028277704824856  0.1567817153949252  1.0000
  C   C69       1.0  0.22753267310736078  0.4964846351078167  0.16022244943243139  1.0000
  C   C70       1.0  0.25760888615393474  0.5006342384468074  0.14417542587139234  1.0000
  C   C71       1.0  0.2497564194772235  0.5124016961395734  0.12485686156657864  1.0000
  C   C72       1.0  0.21207115436698792  0.5200994660777996  0.12158766422052698  1.0000
  H   H45       1.0  0.1653547458541575  0.4985850398899171  0.1691075975557431  1.0000
  H   H46       1.0  0.23346953415818772  0.48732299660273676  0.175192817021336  1.0000
  H   H47       1.0  0.2731682670251941  0.5162237928068084  0.11244883093273257  1.0000
  H   H48       1.0  0.207062139851071  0.5305199529465985  0.10674332248135393  1.0000
  C   C73       1.0  0.9253603221073589  0.5580588625602118  0.14005307481511903  1.0000
  C   C74       1.0  0.9220894824460208  0.5906774904702389  0.12759328561224662  1.0000
  C   C75       1.0  0.8796672365360151  0.5800025392144769  0.11855681971867232  1.0000
  C   C76       1.0  0.8403560945315914  0.536152227574357  0.12152351186368877  1.0000
  C   C77       1.0  0.8444309190105637  0.5020318454548958  0.132677286487714  1.0000
  C   C78       1.0  0.8869329902458405  0.513024990810427  0.14205089639322963  1.0000
  H   H49       1.0  0.9520553882032314  0.625178487552948  0.12561321410871537  1.0000
  H   H50       1.0  0.8772945720135856  0.6060333655522683  0.10955731694171922  1.0000
  H   H51       1.0  0.8141220703590656  0.4678756299689539  0.1349041868730591  1.0000
  H   H52       1.0  0.8891391593033379  0.48765067680631324  0.1516870641523468  1.0000
  C   C79       1.0  0.8179237962279589  0.18733688621644387  0.333290283504687  1.0000
  C   C80       1.0  0.7955663133396157  0.21400157718835233  0.33159781009473177  1.0000
  C   C81       1.0  0.8037811803072746  0.24911244068273583  0.34591374975587474  1.0000
  C   C82       1.0  0.834051840416735  0.25743736812407664  0.36210843989566516  1.0000
  C   C83       1.0  0.855788885260709  0.23022860120196645  0.3641102265360605  1.0000
  C   C84       1.0  0.847767249699474  0.19525541324473353  0.3496751890199338  1.0000
  H   H53       1.0  0.7721868196638276  0.20791402852532884  0.31922401021813207  1.0000
  H   H54       1.0  0.7864816611099644  0.2697721595195333  0.3444914022396117  1.0000
  H   H55       1.0  0.8793170926706737  0.23659635070040286  0.3765844189198007  1.0000
  H   H56       1.0  0.8652885382563013  0.1747970376949386  0.35103154699939965  1.0000
  C   C85       1.0  0.8331212518623896  0.29991343504918955  0.22917280962744857  1.0000
  C   C86       1.0  0.8527498931705865  0.27375419073550483  0.2212098614214795  1.0000
  C   C87       1.0  0.8944604157155212  0.29598698990980266  0.20997440932284808  1.0000
  C   C88       1.0  0.9165571527490172  0.34433661783951786  0.20641585388697795  1.0000
  C   C89       1.0  0.8965769520240081  0.3704651061592376  0.2140595657216141  1.0000
  C   C90       1.0  0.8548853364472017  0.34824013521702935  0.2254234492971421  1.0000
  H   H57       1.0  0.8357409733986387  0.2363988680259666  0.22363385350786152  1.0000
  H   H58       1.0  0.9096293168859384  0.27574121884099406  0.2039275781338859  1.0000
  H   H59       1.0  0.9132801647177615  0.4077396077263774  0.21127885689499715  1.0000
  H   H60       1.0  0.8397203771882888  0.3686139805064579  0.2314674508208478  1.0000
  C   C91       1.0  0.24935142232912968  0.8450885717087212  0.31918866930059553  1.0000
  C   C92       1.0  0.23908909392745623  0.814453897719179  0.3355442367108567  1.0000
  C   C93       1.0  0.21060975357225753  0.8142769838919258  0.35159177419706494  1.0000
  C   C94       1.0  0.19316917073849682  0.8455424444136619  0.35158129052949905  1.0000
  C   C95       1.0  0.20335032953077434  0.876055147043013  0.33516350722225663  1.0000
  C   C96       1.0  0.2311229206636914  0.8756409431735999  0.3189165812136145  1.0000
  H   H61       1.0  0.2529015361496641  0.7905285394940005  0.33572580254663775  1.0000
  H   H62       1.0  0.2024746113103394  0.7901329269508789  0.36397917015067593  1.0000
  H   H63       1.0  0.18991237231798336  0.9003055976890751  0.33506235856524896  1.0000
  H   H64       1.0  0.238795219796197  0.8992938924775001  0.30630160324169414  1.0000
  C   C97       1.0  0.4682602118371904  0.023165106819033943  0.24127229347026885  1.0000
  C   C98       1.0  0.4656658668605264  0.9998703226990225  0.2592813375004789  1.0000
  C   C99       1.0  0.50650706611223  0.011548750326049628  0.2701346963314291  1.0000
  C   C100      1.0  0.5502164530374245  0.04644607303626543  0.26306762777096815  1.0000
  C   C101      1.0  0.5528346217585487  0.07007078728699606  0.24512233139904885  1.0000
  C   C102      1.0  0.5119136034137542  0.058366905382466305  0.23424771009212042  1.0000
  H   H65       1.0  0.4321963706002968  0.972763733205136  0.2648381576721506  1.0000
  H   H66       1.0  0.5042331729021104  0.9931108479006062  0.2840028892239303  1.0000
  H   H67       1.0  0.5862705878469169  0.09733907388341742  0.2396403544554504  1.0000
  H   H68       1.0  0.5140741520654097  0.07665258199881159  0.22035430094367334  1.0000
  C   C103      1.0  0.19048954537152557  0.7492931913217934  0.21067733423071283  1.0000
  C   C104      1.0  0.15070379753027924  0.7176616704932971  0.19996619055626355  1.0000
  C   C105      1.0  0.12694117726885812  0.6700465590915926  0.20508218689264937  1.0000
  C   C106      1.0  0.14375148448549477  0.6534201556432263  0.2204631409057254  1.0000
  C   C107      1.0  0.18337749508734885  0.6851044783297376  0.2313552896171014  1.0000
  C   C108      1.0  0.20641784585273223  0.733168992564527  0.22666075661147986  1.0000
  H   H69       1.0  0.1380610425372347  0.7300719185884846  0.187704658918583  1.0000
  H   H70       1.0  0.09542808720061513  0.6463193947308746  0.19714349223594446  1.0000
  H   H71       1.0  0.19679151459359803  0.6722692221071149  0.24312361261544727  1.0000
  H   H72       1.0  0.23750764616344336  0.7574266801372552  0.2348204251408909  1.0000
  C   C109      1.0  0.11619924942248643  0.21621369699479143  0.13318012858758818  1.0000
  C   C110      1.0  0.1459239509082738  0.19710252841206555  0.13197195768020678  1.0000
  C   C111      1.0  0.18850753592896452  0.2208961360288257  0.12138192904536463  1.0000
  C   C112      1.0  0.2017565534070634  0.2640189031670903  0.11209652607607935  1.0000
  C   C113      1.0  0.17159436576430914  0.282665450000553  0.11296392821443647  1.0000
  C   C114      1.0  0.12886783135964947  0.2587768563364426  0.12348468080493004  1.0000
  H   H73       1.0  0.13650271842648284  0.16434747688641527  0.13943439408208244  1.0000
  H   H74       1.0  0.21163832522412934  0.20621323417745444  0.12065155273576075  1.0000
  H   H75       1.0  0.18113694783948814  0.31536931143361707  0.10546959578324505  1.0000
  H   H76       1.0  0.1057467849032606  0.27344237636887025  0.12422202641139087  1.0000
  C   C115      1.0  0.9117080547120289  0.8983638346976578  0.13574681934331578  1.0000
  C   C116      1.0  0.8799933488111916  0.8653734039117453  0.12205337273581304  1.0000
  C   C117      1.0  0.8659270683499674  0.8175574108417915  0.12402135819859736  1.0000
  C   C118      1.0  0.8834321719502729  0.8025315528136935  0.139761807050346  1.0000
  C   C119      1.0  0.9151310205047035  0.8355389020699934  0.15347594569853873  1.0000
  C   C120      1.0  0.9292960574297479  0.883328431818428  0.15146161410486833  1.0000
  H   H77       1.0  0.8663507884388928  0.8767827264746912  0.10980708715482712  1.0000
  H   H78       1.0  0.8417132296998395  0.7923992264944067  0.11329675252191775  1.0000
  H   H79       1.0  0.9287650884890758  0.8240496276744278  0.1656861173649727  1.0000
  H   H80       1.0  0.9537765279421697  0.9083574716808058  0.16207640522169528  1.0000
  C   C121      1.0  0.9035013593601969  0.06195752099834289  0.22195040117592887  1.0000
  C   C122      1.0  0.8861037920978038  0.0745492849787564  0.2389732233626601  1.0000
  C   C123      1.0  0.8444652900129827  0.07650975619205544  0.23778185145044303  1.0000
  C   C124      1.0  0.819533293225153  0.06494001486033106  0.21963230125586364  1.0000
  C   C125      1.0  0.8367255245560159  0.05209339389740555  0.20262822334691283  1.0000
  C   C126      1.0  0.8788478011213812  0.051147811044003  0.20373099956240867  1.0000
  H   H81       1.0  0.9049191713857592  0.08290239842654816  0.25314722273173323  1.0000
  H   H82       1.0  0.8313535702085111  0.08630546900474023  0.2510120792955648  1.0000
  H   H83       1.0  0.8176898906126496  0.043485482554037044  0.18852055779251412  1.0000
  H   H84       1.0  0.8918891676725255  0.04163338807168121  0.19054270674176685  1.0000
  C   C127      1.0  0.1500747381055271  0.012749729675581856  0.19661584576476182  1.0000
  C   C128      1.0  0.17519052735190008  0.9886169099131594  0.19426518450714908  1.0000
  C   C129      1.0  0.1944067530193949  0.9786224262601859  0.21115448836133582  1.0000
  C   C130      1.0  0.1896564889258232  0.9937319222912249  0.2304972872387933  1.0000
  C   C131      1.0  0.16445941847870804  0.017834453133322548  0.23287044267163712  1.0000
  C   C132      1.0  0.14429296669203812  0.026946441643037167  0.2160023779581549  1.0000
  H   H85       1.0  0.1797649093443226  0.9774912858716749  0.17931669083162657  1.0000
  H   H86       1.0  0.21313508547128668  0.959507440332114  0.20913335880699982  1.0000
  H   H87       1.0  0.16053139207272182  0.029518707796331256  0.24780666675313517  1.0000
  H   H88       1.0  0.12507656837004005  0.04566910012579499  0.21795697456903124  1.0000
  C   C133      1.0  0.869671983040256  0.6499656344545334  0.0015787036367322926  1.0000
  C   C134      1.0  0.8389332657806393  0.6641315046112318  0.994131642915032  1.0000
  C   C135      1.0  0.810359995723172  0.6724680751782749  0.007614653463631882  1.0000
  C   C136      1.0  0.8123024115426488  0.6665139305321199  0.028559376380666187  1.0000
  C   C137      1.0  0.8432987604998923  0.6527147905211483  0.03597798855125918  1.0000
  C   C138      1.0  0.8722349874905125  0.644959442858557  0.022539980856890907  1.0000
  H   H89       1.0  0.8372655930548027  0.6687798066572338  0.9780147122563282  1.0000
  H   H90       1.0  0.7867183917467961  0.6835147861271316  0.0017905117558794093  1.0000
  H   H91       1.0  0.8451599267483731  0.648083424463026  0.05206284620312034  1.0000
  H   H92       1.0  0.8961647776664406  0.634276111889017  0.028393978083309346  1.0000
  C   C139      1.0  0.6912197671391831  0.49884233317040816  0.909799920118537  1.0000
  C   C140      1.0  0.6423724912789158  0.4723142677906248  0.911324872942738  1.0000
  C   C141      1.0  0.6140567756227342  0.4717147406806694  0.8953178146347905  1.0000
  C   C142      1.0  0.6346716745745093  0.49702682015257155  0.8776193973867186  1.0000
  C   C143      1.0  0.6834114325166283  0.5237182857539474  0.8762054206564904  1.0000
  C   C144      1.0  0.7115527947812729  0.5250269328067657  0.8923030645501908  1.0000
  H   H93       1.0  0.6264120049377505  0.45195910890057506  0.9248194207832996  1.0000
  H   H94       1.0  0.5764687052353066  0.4508721453988533  0.8964684822910521  1.0000
  H   H95       1.0  0.6995774204530699  0.543263801473726  0.8625519273415188  1.0000
  H   H96       1.0  0.7490310548920258  0.5457103551591849  0.8909882418026289  1.0000
  C   C145      1.0  0.24077641551419182  0.448733668354248  0.030282388340711692  1.0000
  C   C146      1.0  0.22854957073976762  0.4014208114907864  0.030796156888210007  1.0000
  C   C147      1.0  0.2069866322849668  0.3725289698122513  0.013946508691236259  1.0000
  C   C148      1.0  0.19719146778464308  0.3907497353444704  0.9966848036622203  1.0000
  C   C149      1.0  0.20853077158831032  0.43781844559084143  0.9964263138154535  1.0000
  C   C150      1.0  0.23028953921825102  0.4667729095933816  0.013201425936516964  1.0000
  H   H97       1.0  0.2361718577926654  0.3871827572208516  0.04403875516153529  1.0000
  H   H98       1.0  0.19818005035580494  0.3360457819381334  0.014205934638009676  1.0000
  H   H99       1.0  0.20138937831671494  0.4522195603333379  0.9831800590426061  1.0000
  H   H100      1.0  0.2395981852904176  0.5033802198140134  0.012798962277957848  1.0000
  C   C151      1.0  0.016595551837011557  0.478113728944784  0.9371497082005428  1.0000
  C   C152      1.0  0.026340091415344435  0.4870272315177349  0.9164466475064664  1.0000
  C   C153      1.0  0.00485924800337445  0.5076339140656131  0.9053299523466845  1.0000
  C   C154      1.0  0.9739637202191623  0.5199276246294073  0.9148806080952876  1.0000
  C   C155      1.0  0.96444357551532  0.5112166078730992  0.9355845142413641  1.0000
  C   C156      1.0  0.985579047820696  0.4902434349060365  0.9466413356900334  1.0000
  H   H101      1.0  0.05080073707087821  0.4785771028730316  0.9090826948796449  1.0000
  H   H102      1.0  0.012607150880970641  0.5145587435174848  0.8893390937713704  1.0000
  H   H103      1.0  0.940851715576561  0.5206795625402212  0.943110635852322  1.0000
  H   H104      1.0  0.9780382779078644  0.4836171301401874  0.9626700560353334  1.0000
  C   C157      1.0  0.35881398183144075  0.4725603621740274  0.9065175965109457  1.0000
  C   C158      1.0  0.35888217251365656  0.49720179757192895  0.889294920685031  1.0000
  C   C159      1.0  0.3207768545901896  0.5040500314837019  0.8854585274757781  1.0000
  C   C160      1.0  0.28249317116497435  0.48602117914269866  0.8987742577998404  1.0000
  C   C161      1.0  0.2830140606577526  0.4624510720134439  0.9162441376209298  1.0000
  C   C162      1.0  0.32099677599680526  0.4555496883123499  0.9200333932619036  1.0000
  H   H105      1.0  0.38828282721757146  0.511020863979344  0.8789158863335926  1.0000
  H   H106      1.0  0.3205564027895452  0.5224612075399877  0.8719570954741668  1.0000
  H   H107      1.0  0.2538420095021246  0.44896085289882803  0.9267175950185603  1.0000
  H   H108      1.0  0.32016485436239117  0.43547358518834745  0.9330105938693667  1.0000
  C   C163      1.0  0.993255158850494  0.8516763051442866  0.885671413322677  1.0000
  C   C164      1.0  0.9649446160635449  0.8318614259961824  0.868732057260315  1.0000
  C   C165      1.0  0.9313001373955023  0.7841064488293125  0.8686348847519186  1.0000
  C   C166      1.0  0.9255627525393048  0.7559889525087209  0.8854990775324506  1.0000
  C   C167      1.0  0.9540656152775419  0.7756261465162773  0.9024221181621577  1.0000
  C   C168      1.0  0.9881331180217092  0.8233513049727421  0.9024211196709317  1.0000
  H   H109      1.0  0.969026132197012  0.853304167000062  0.8556882479517935  1.0000
  H   H110      1.0  0.9095649028222164  0.7689095748949635  0.8554351442988197  1.0000
  H   H111      1.0  0.949791428225767  0.7541618743759023  0.9155135269520869  1.0000
  H   H112      1.0  0.009975797325884717  0.8386221974730298  0.9155896089793367  1.0000
  C   C169      1.0  0.0842102608820926  0.1742574121782261  0.8808173964487538  1.0000
  C   C170      1.0  0.04454527272692906  0.170246681376169  0.8713549970225526  1.0000
  C   C171      1.0  0.030535825804890893  0.20391397258821461  0.8751665845930205  1.0000
  C   C172      1.0  0.05583274733535758  0.24139450780722724  0.8885767363086842  1.0000
  C   C173      1.0  0.09484958876475784  0.24466087199544861  0.898329004380555  1.0000
  C   C174      1.0  0.10918336446016694  0.21145367653363467  0.894338039333792  1.0000
  H   H113      1.0  0.025051121733980386  0.14162074294835564  0.860904076980058  1.0000
  H   H114      1.0  0.000164774321214085  0.20097026692044143  0.8676332024721387  1.0000
  H   H115      1.0  0.11374548639691692  0.2724144726148722  0.9091363261946072  1.0000
  H   H116      1.0  0.13943742207918558  0.21429360916058618  0.9019466866618109  1.0000
  C   C175      1.0  0.597186380044496  0.7931006909885837  0.7037698001221018  1.0000
  C   C176      1.0  0.6354916699799151  0.7874416011750528  0.7084318655552226  1.0000
  C   C177      1.0  0.6626012840929293  0.7833689288206964  0.6927112473106594  1.0000
  C   C178      1.0  0.6516692629641991  0.7853031514064465  0.6723504532989775  1.0000
  C   C179      1.0  0.6137759183660956  0.7916081649497675  0.6677952856249967  1.0000
  C   C180      1.0  0.5862270145868406  0.7947672040722542  0.683439226758585  1.0000
  H   H117      1.0  0.6438345151221736  0.7856946846716907  0.7241124884716584  1.0000
  H   H118      1.0  0.6919002570654162  0.7784414799887368  0.6963185431143957  1.0000
  H   H119      1.0  0.6058024287964305  0.7945606140600184  0.6522233289473434  1.0000
  H   H120      1.0  0.5567857627334126  0.799450890221337  0.6797601753134486  1.0000
  C   C181      1.0  0.7902005011862747  0.9473311019131984  0.7930728425899988  1.0000
  C   C182      1.0  0.8389708970704381  0.9724937481458847  0.7907120172632605  1.0000
  C   C183      1.0  0.868377246323932  0.9760136293200563  0.8068138099656229  1.0000
  C   C184      1.0  0.849023597119637  0.9548265545587933  0.8254227002620805  1.0000
  C   C185      1.0  0.8003148494080345  0.9294977419732687  0.8276990486049616  1.0000
  C   C186      1.0  0.7710142842416203  0.9254535579520421  0.8115614223600669  1.0000
  H   H121      1.0  0.8540794774318726  0.9895280226549197  0.7764571846497642  1.0000
  H   H122      1.0  0.9058942613308272  0.9957290945252608  0.8049506232518555  1.0000
  H   H123      1.0  0.7850962992366204  0.9131062246342325  0.8420481208414398  1.0000
  H   H124      1.0  0.7335776330311773  0.9059102737998066  0.8135472641779162  1.0000
  C   C187      1.0  0.5472343044310127  0.7011874140675072  0.8215231451658147  1.0000
  C   C188      1.0  0.5287903137123532  0.682092298778712  0.8025382144458358  1.0000
  C   C189      1.0  0.4993491937587235  0.6334523626703565  0.8004395872012029  1.0000
  C   C190      1.0  0.4883956636783139  0.6038715942615901  0.8172692859935314  1.0000
  C   C191      1.0  0.5058697828277514  0.6232645009182772  0.8363157122963312  1.0000
  C   C192      1.0  0.5353093449400713  0.6717903120882044  0.8384283983535479  1.0000
  H   H125      1.0  0.5376915575021232  0.7046197244704226  0.7894331751818128  1.0000
  H   H126      1.0  0.4856359023661383  0.6185841521607437  0.7856800387279826  1.0000
  H   H127      1.0  0.4966042878705352  0.6008730143026566  0.849437822889284  1.0000
  H   H128      1.0  0.5491049731170004  0.6865264464535359  0.8531915698733092  1.0000
  C   C193      1.0  0.36045619771979975  0.14533973386590063  0.6899954646374032  1.0000
  C   C194      1.0  0.3421862529414695  0.1476901717412535  0.6711825956880791  1.0000
  C   C195      1.0  0.36566195826030795  0.18795729324893526  0.6590728615793227  1.0000
  C   C196      1.0  0.4076339848305881  0.22588695243104306  0.6657286462849511  1.0000
  C   C197      1.0  0.4254110433020684  0.22368972514065813  0.6846538680725957  1.0000
  C   C198      1.0  0.40187725009109343  0.1836176517313778  0.6967709450302655  1.0000
  H   H129      1.0  0.3098634695136444  0.11835123131323616  0.6659698388840651  1.0000
  H   H130      1.0  0.3513657742390902  0.18960755056551074  0.6446288993803401  1.0000
  H   H131      1.0  0.45772386221507966  0.25302974467730266  0.6899331065816144  1.0000
  H   H132      1.0  0.4159356173969747  0.18247707156441859  0.7113467482076287  1.0000
  C   C199      1.0  0.22907748514786866  0.018326619476026318  0.7980100140253217  1.0000
  C   C200      1.0  0.22517664243467242  0.049262582960146566  0.784763346002589  1.0000
  C   C201      1.0  0.18335542069219052  0.05076636685032922  0.7837718557163355  1.0000
  C   C202      1.0  0.14559244252477913  0.022146257047929607  0.7963650367465591  1.0000
  C   C203      1.0  0.15009153585055754  0.9927123729156371  0.810281278503758  1.0000
  C   C204      1.0  0.19163031318170218  0.9904904539046171  0.8109513620915384  1.0000
  H   H133      1.0  0.2539763436556991  0.07140964580364323  0.7750221423755225  1.0000
  H   H134      1.0  0.18023683560162385  0.07428253669559153  0.7732941186321999  1.0000
  H   H135      1.0  0.12107862020715418  0.9706119179188771  0.8201122448801481  1.0000
  H   H136      1.0  0.19450483368740898  0.966681961524588  0.8213489853646819  1.0000
  C   C205      1.0  0.4956276472355426  0.009316225646356147  0.7639222361722888  1.0000
  C   C206      1.0  0.4746608992287821  0.9915299021101311  0.7827544365966937  1.0000
  C   C207      1.0  0.4871361511676954  0.9627776160802279  0.7937986035328727  1.0000
  C   C208      1.0  0.5200858707792693  0.9511130086284421  0.7859787173169406  1.0000
  C   C209      1.0  0.5406108855613954  0.9685340718666  0.7670693381667938  1.0000
  C   C210      1.0  0.5286544195247264  0.9977746105939267  0.7561782973453607  1.0000
  H   H137      1.0  0.4491292737553802  0.00013111308507651683  0.78885689463329  1.0000
  H   H138      1.0  0.4710998324236235  0.949412093107462  0.8084222344442913  1.0000
  H   H139      1.0  0.5660112072978968  0.959832280126855  0.7609056983642166  1.0000
  H   H140      1.0  0.5450519086413405  0.011450354274511687  0.7416337319867251  1.0000
  C   C211      1.0  0.444053976233553  0.24913390644678404  0.799724179108894  1.0000
  C   C212      1.0  0.47162459593675143  0.2935111813394019  0.808460313999708  1.0000
  C   C213      1.0  0.45093188840783005  0.3149438157861208  0.819927809429115  1.0000
  C   C214      1.0  0.4024959486607527  0.2921236839089775  0.8226777370628532  1.0000
  C   C215      1.0  0.37493727209119443  0.2475825581731207  0.8140784786560877  1.0000
  C   C216      1.0  0.39563802574814094  0.2260461927687798  0.8026864322535393  1.0000
  H   H141      1.0  0.5090741343321787  0.3115245238489775  0.8062844443295777  1.0000
  H   H142      1.0  0.4725244077755238  0.3491310794996535  0.8266254507841356  1.0000
  H   H143      1.0  0.3375588812710599  0.22998172769564493  0.8160390195245995  1.0000
  H   H144      1.0  0.3741486625971091  0.19175260677783543  0.7961391681474534  1.0000
  N   N1        1.0  0.007896534484439296  0.6794932865890324  0.8709027555089466  1.0000
  C   C217      1.0  0.013227741626824698  0.7235500664149193  0.8796887095560864  1.0000
  C   C218      1.0  0.02862451047883318  0.6594666240640836  0.8846908643735107  1.0000
  C   C219      1.0  0.03184363814407499  0.6892221801878409  0.8509996315139184  1.0000
  C   C220      1.0  0.9577710219959749  0.6456970134518072  0.8682098824561867  1.0000
  H   H145      1.0  0.9977786973197925  0.7395199515582713  0.869708919404168  1.0000
  H   H146      1.0  0.050534760447499154  0.7500208909006336  0.8820388638275832  1.0000
  H   H147      1.0  0.995234475217073  0.7173289447866164  0.894660265948888  1.0000
  H   H148      1.0  0.02488314659598288  0.625927979944776  0.8786192365636986  1.0000
  H   H149      1.0  0.06638606272127431  0.6839765550963953  0.8871951282421077  1.0000
  H   H150      1.0  0.011063411736035774  0.6512742697656603  0.8998152291658559  1.0000
  H   H151      1.0  0.06976597017939604  0.7146654018215123  0.8524652107503183  1.0000
  H   H152      1.0  0.016937094876889894  0.70435860887839  0.8402688435626562  1.0000
  H   H153      1.0  0.028340241616309013  0.6566002100306314  0.8439655680938829  1.0000
  H   H154      1.0  0.9521126748030443  0.6115402055458944  0.862026936452114  1.0000
  H   H155      1.0  0.9407246861558802  0.6595425727441224  0.8579701553542989  1.0000
  H   H156      1.0  0.9387158280714749  0.6380496488485647  0.8828846392881955  1.0000
  N   N2        1.0  0.22468176483477903  0.6527325242428726  0.16546237029704136  1.0000
  C   C221      1.0  0.25447405379987276  0.6936315739157594  0.17838169093364195  1.0000
  C   C222      1.0  0.25402250827170464  0.6437673569577372  0.1509532932695491  1.0000
  C   C223      1.0  0.19175819976506323  0.6623085098685738  0.15413953652405615  1.0000
  C   C224      1.0  0.1982643728742573  0.6110724912334355  0.1783764746101871  1.0000
  H   H157      1.0  0.2797129373693498  0.6876644383479568  0.18719025614474644  1.0000
  H   H158      1.0  0.2331231123783456  0.7010082438184989  0.18949514403225146  1.0000
  H   H159      1.0  0.2746114091205237  0.7259452297935868  0.16921704946913882  1.0000
  H   H160      1.0  0.27523882552225803  0.674774892980645  0.14121079791787322  1.0000
  H   H161      1.0  0.27830083393095345  0.6348668818190195  0.1589098279118659  1.0000
  H   H162      1.0  0.23220099229105592  0.613767359873838  0.14070193788018065  1.0000
  H   H163      1.0  0.21044422529734264  0.6935452783886952  0.1442351186743186  1.0000
  H   H164      1.0  0.168978358815289  0.6691660987842454  0.164623914067578  1.0000
  H   H165      1.0  0.16854058749110679  0.6320015470445478  0.1442719277559475  1.0000
  H   H166      1.0  0.22179670305936958  0.6021580299066989  0.186916385546079  1.0000
  H   H167      1.0  0.1746213306678771  0.5798490473470637  0.16918240809647161  1.0000
  H   H168      1.0  0.1761497833058885  0.616697397649503  0.18966372525281358  1.0000
  N   N3        1.0  0.2461124960017178  0.3512338779791954  0.8663105920518812  1.0000
  C   C225      1.0  0.19514917859211398  0.3191026378457102  0.8673240685116382  1.0000
  C   C226      1.0  0.2553805718609657  0.39724995879321034  0.8585640472720442  1.0000
  C   C227      1.0  0.2677973306299036  0.331253984083254  0.8525985024183358  1.0000
  C   C228      1.0  0.26613397171884184  0.3573696491325737  0.8868091715224213  1.0000
  H   H169      1.0  0.1787350414378331  0.31378818038149775  0.8521536241829767  1.0000
  H   H170      1.0  0.17761923739951477  0.332990650876126  0.8775947883969571  1.0000
  H   H171      1.0  0.18680134789490588  0.2840164936539336  0.8731241664570651  1.0000
  H   H172      1.0  0.2934935320697933  0.422714123660545  0.8579969154513217  1.0000
  H   H173      1.0  0.24148830053093293  0.394310011924295  0.8429951375508239  1.0000
  H   H174      1.0  0.2389004653589567  0.41297467509581176  0.8684350675896576  1.0000
  H   H175      1.0  0.3062691976597039  0.3544269599602319  0.851504524188696  1.0000
  H   H176      1.0  0.25380824975669214  0.3263534763678828  0.8369400698409417  1.0000
  H   H177      1.0  0.26183075603315115  0.2967459495439547  0.8580906487037226  1.0000
  H   H178      1.0  0.2506421062038325  0.3725605003781516  0.8975031197521932  1.0000
  H   H179      1.0  0.3046166334241998  0.38147531839270876  0.8865930268535692  1.0000
  H   H180      1.0  0.25972805873508714  0.323420474031743  0.8932321049706755  1.0000
  N   N4        1.0  0.6245193046610512  0.6095679761527869  0.8246416700288902  1.0000
  C   C229      1.0  0.5842269171346766  0.5669214937247069  0.8163831201978166  1.0000
  C   C230      1.0  0.6158027051050446  0.6154523038879326  0.8462383585021312  1.0000
  C   C231      1.0  0.631025160560934  0.6508238661885454  0.8130836296678292  1.0000
  C   C232      1.0  0.6669381959187348  0.6050034042913425  0.8228699668779053  1.0000
  H   H181      1.0  0.5887329821647697  0.5620778035209522  0.7999566397915227  1.0000
  H   H182      1.0  0.5512622015514064  0.5682072605209265  0.8181945125460278  1.0000
  H   H183      1.0  0.5791033100814177  0.53491569372007  0.8242792095635648  1.0000
  H   H184      1.0  0.583830078526928  0.6184978570948265  0.8481995455918895  1.0000
  H   H185      1.0  0.6107394132747255  0.5849711007120445  0.8554284028749234  1.0000
  H   H186      1.0  0.6453986403868645  0.6473606848312632  0.8529516044404741  1.0000
  H   H187      1.0  0.6601961494824502  0.6839617448325002  0.8192247819047634  1.0000
  H   H188      1.0  0.5990642454768592  0.6542878785969689  0.8137167682666344  1.0000
  H   H189      1.0  0.6385523127076727  0.6480628471113709  0.7967904821602482  1.0000
  H   H190      1.0  0.69808859835039  0.6365715207155899  0.8289244630808095  1.0000
  H   H191      1.0  0.6742900992507804  0.5998814450862162  0.8068173861680884  1.0000
  H   H192      1.0  0.6630182249344333  0.574229584683329  0.8315722841464102  1.0000
  N   N5        1.0  0.8684563709157795  0.8700312418367571  0.8920837215223016  1.0000
  C   C233      1.0  0.8240996797868159  0.8291099702408613  0.8985721811552417  1.0000
  C   C234      1.0  0.8652264878910497  0.9132435359963295  0.8946141119178036  1.0000
  C   C235      1.0  0.8774632285774863  0.8642742177002171  0.8705217363610783  1.0000
  C   C236      1.0  0.9070279429068965  0.8734115511539666  0.9045790286859137  1.0000
  H   H193      1.0  0.7943558632786466  0.8255562982125089  0.8893562788050611  1.0000
  H   H194      1.0  0.8161921365543218  0.8322088909157442  0.9147867537354603  1.0000
  H   H195      1.0  0.8255150784791873  0.7959337741737971  0.8968274761119941  1.0000
  H   H196      1.0  0.8583659578916322  0.9188500299832348  0.9106631826394442  1.0000
  H   H197      1.0  0.8981461789757874  0.9447235528646066  0.8897730881015177  1.0000
  H   H198      1.0  0.8369477935019057  0.9122664712078374  0.8851205308914235  1.0000
  H   H199      1.0  0.9114581542446472  0.8937889288952556  0.8652921832757728  1.0000
  H   H200      1.0  0.8500867120377933  0.8635924202805308  0.8605097063287986  1.0000
  H   H201      1.0  0.8784409659579144  0.8312206073919894  0.8678874570288839  1.0000
  H   H202      1.0  0.9413569194870842  0.9029847216435581  0.899608563371054  1.0000
  H   H203      1.0  0.9095278389989372  0.8408015084116773  0.9034722837421337  1.0000
  H   H204      1.0  0.9022968494660355  0.8792310515319195  0.9208767055562198  1.0000
  N   N6        1.0  0.8891636247200528  0.31501469137827115  0.2917867560314228  1.0000
  C   C237      1.0  0.8389570798726173  0.3005657541609723  0.29238189906089584  1.0000
  C   C238      1.0  0.916225323062802  0.3622715955892481  0.30086501887744427  1.0000
  C   C239      1.0  0.9041040623663685  0.3159288292878115  0.2704930500892128  1.0000
  C   C240      1.0  0.8972634309511955  0.2813075269445565  0.3033868830658301  1.0000
  H   H205      1.0  0.817340423495848  0.26456364478196104  0.2861171746266502  1.0000
  H   H206      1.0  0.8312788564358098  0.32424384966091474  0.28314432806942813  1.0000
  H   H207      1.0  0.8266081864687126  0.3007652356850471  0.3081294758987968  1.0000
  H   H208      1.0  0.9543126986031913  0.3744032996387382  0.30061715466060257  1.0000
  H   H209      1.0  0.9106773667224926  0.3884842738523975  0.2924969363052092  1.0000
  H   H210      1.0  0.9057483323261122  0.3626911516364215  0.316978769612653  1.0000
  H   H211      1.0  0.8990672313869797  0.34151380625581323  0.2613819031786494  1.0000
  H   H212      1.0  0.8834650482391474  0.2810188010551085  0.2630856625666953  1.0000
  H   H213      1.0  0.9416213919562714  0.32599473634543863  0.2693410373100991  1.0000
  H   H214      1.0  0.8758164516181361  0.24484357332171808  0.2974895131261057  1.0000
  H   H215      1.0  0.8880657927470699  0.2810863746843707  0.31969984119916556  1.0000
  H   H216      1.0  0.9344654411358259  0.2900713409288533  0.30266441718841514  1.0000
  N   N7        1.0  0.7190458225527918  0.14292974484901766  0.3962578171482182  1.0000
  C   C241      1.0  0.7496146794580144  0.18857148257780776  0.40606921470405494  1.0000
  C   C242      1.0  0.7013549870679749  0.1506686865475877  0.3769880850654837  1.0000
  C   C243      1.0  0.6793516859347353  0.11397771014192437  0.40990980656714987  1.0000
  C   C244      1.0  0.7461248360995009  0.11870172125075351  0.39206415124337807  1.0000
  H   H217      1.0  0.7630371335984375  0.18401591184526067  0.4208052818112479  1.0000
  H   H218      1.0  0.7309568608290165  0.208624435800834  0.4090283521863584  1.0000
  H   H219      1.0  0.780423642097194  0.21092867909030932  0.3964235865134511  1.0000
  H   H220      1.0  0.6811709482086233  0.16935678233010254  0.37955888274932337  1.0000
  H   H221      1.0  0.7305056724473619  0.17228701090674736  0.36636797050284187  1.0000
  H   H222      1.0  0.6781162280767458  0.1169583311125506  0.369131506182812  1.0000
  H   H223      1.0  0.6556446833779466  0.07902042612149507  0.4031455516642464  1.0000
  H   H224      1.0  0.6579949114788144  0.13113157494203476  0.4133103531011449  1.0000
  H   H225      1.0  0.6914496667373126  0.10803239653224095  0.424747466178465  1.0000
  H   H226      1.0  0.7603747821332819  0.11273610662648337  0.40628261149403594  1.0000
  H   H227      1.0  0.7762722952765925  0.1397277856490038  0.38175104107970886  1.0000
  H   H228      1.0  0.7242468490729729  0.08405138342668339  0.3846463549834526  1.0000
  N   N8        1.0  0.6064723803357286  0.97424104255465  0.22754096676393976  1.0000
  C   C245      1.0  0.6113046121934819  0.9484250835921125  0.21002246833108948  1.0000
  C   C246      1.0  0.5571027124292977  0.9516434958136991  0.23419729340076997  1.0000
  C   C247      1.0  0.6221406834762332  0.023099820131262216  0.22154527370729069  1.0000
  C   C248      1.0  0.6356170142980309  0.9741314171722388  0.24442351575271132  1.0000
  H   H229      1.0  0.6483166385280251  0.9648976690170836  0.20473475647787606  1.0000
  H   H230      1.0  0.5898959642266299  0.9481653111254703  0.19700567159387639  1.0000
  H   H231      1.0  0.5998694791741891  0.9113643862352843  0.21396821542253192  1.0000
  H   H232      1.0  0.5528442042014671  0.9693521391539419  0.24790030802613783  1.0000
  H   H233      1.0  0.5342346604969818  0.9531802889945439  0.22224863689600316  1.0000
  H   H234      1.0  0.5435557503736136  0.9142480967076521  0.2382254641088097  1.0000
  H   H235      1.0  0.6590101603351194  0.04091095087957197  0.21602735477944868  1.0000
  H   H236      1.0  0.620281388569685  0.04383279087090375  0.23460019883188862  1.0000
  H   H237      1.0  0.6001002168250442  0.025003162949625235  0.20931535610313626  1.0000
  H   H238      1.0  0.6319670461526888  0.9926963624299086  0.2580017743136819  1.0000
  H   H239      1.0  0.6733375527163316  0.9921813751896715  0.24012924984847492  1.0000
  H   H240      1.0  0.6254611813599891  0.9378795774076957  0.2492011021612774  1.0000
  N   N9        1.0  0.44387391434580736  0.14246362494008913  0.624968994389561  1.0000
  C   C249      1.0  0.46978661897179524  0.12596748149669953  0.6119184476239322  1.0000
  C   C250      1.0  0.3952846904572168  0.10422747014514303  0.6275982498522001  1.0000
  C   C251      1.0  0.44375265330717745  0.18291195644696592  0.6153222812874536  1.0000
  C   C252      1.0  0.46653893632239635  0.15681728212694834  0.6450093686889122  1.0000
  H   H241      1.0  0.45337574372348804  0.11465666774156896  0.5967042133615367  1.0000
  H   H242      1.0  0.4709036125747659  0.09560249140850874  0.6187489703848696  1.0000
  H   H243      1.0  0.5064729914817798  0.1541391711954429  0.6094021831082835  1.0000
  H   H244      1.0  0.3771245117113645  0.09279414299884141  0.6127544167869139  1.0000
  H   H245      1.0  0.39398213526094816  0.07313518355188227  0.6349250033951495  1.0000
  H   H246      1.0  0.3748033356194253  0.11561780070659959  0.6373397459662052  1.0000
  H   H247      1.0  0.4248949143506231  0.19651335360531447  0.624838781003453  1.0000
  H   H248      1.0  0.42635644363761543  0.17336029749535928  0.6002770160517753  1.0000
  H   H249      1.0  0.4798162046943301  0.21250949093122032  0.6130343023986611  1.0000
  H   H250      1.0  0.4474405390803155  0.16891882669686067  0.6552764542281447  1.0000
  H   H251      1.0  0.5029476128484639  0.1863674252251634  0.6436503596108316  1.0000
  H   H252      1.0  0.46767372177527017  0.1273417638744797  0.6527319797560932  1.0000
  N   N10       1.0  0.9477256187802107  0.3404987280038491  0.9003847957165396  1.0000
  C   C253      1.0  0.9718513722497918  0.34093944451443514  0.9192047014297345  1.0000
  C   C254      1.0  0.9826494233450772  0.36638760208664894  0.8843835064537886  1.0000
  C   C255      1.0  0.9190956411722693  0.3632184269056521  0.9042797743021909  1.0000
  C   C256      1.0  0.9176306343605901  0.29145835064062986  0.8937233042582674  1.0000
  H   H253      1.0  0.9963951644787676  0.37734284773998483  0.924201658696225  1.0000
  H   H254      1.0  0.9924406407114882  0.32259968167889247  0.9170187270874867  1.0000
  H   H255      1.0  0.9469058374392447  0.32338628701284566  0.9319163346078079  1.0000
  H   H256      1.0  0.005670889810859279  0.4036759434286062  0.8888167318745894  1.0000
  H   H257      1.0  0.005492714327784532  0.350670844635802  0.8813885113610651  1.0000
  H   H258      1.0  0.965746566775032  0.36613903940718573  0.8698354368299523  1.0000
  H   H259      1.0  0.9009827971748897  0.3644024557323646  0.8903324463620715  1.0000
  H   H260      1.0  0.9409679979941864  0.400026086858394  0.9097151020646321  1.0000
  H   H261      1.0  0.8921369153436565  0.3443945974004017  0.9161742647695127  1.0000
  H   H262      1.0  0.8913206674406219  0.2706449780823182  0.9055582049308524  1.0000
  H   H263      1.0  0.938697187979796  0.2737661541592448  0.8906005791150222  1.0000
  H   H264      1.0  0.8986621024488947  0.2895753016022306  0.8795740026712963  1.0000
  N   N11       1.0  0.14025459966283704  0.7317201087530701  0.28446308779602425  1.0000
  C   C257      1.0  0.14075385679515806  0.7709167731049948  0.2960023239844682  1.0000
  C   C258      1.0  0.11061967497057945  0.6872407051364499  0.29522351525316637  1.0000
  C   C259      1.0  0.18830914038639834  0.7393324333971205  0.2827167130226855  1.0000
  C   C260      1.0  0.12140165999627284  0.7293008455935266  0.26394997352263866  1.0000
  H   H265      1.0  0.15321647441527464  0.7726633482144364  0.3117899301378752  1.0000
  H   H266      1.0  0.10541046122132869  0.7674005902872809  0.29705363425211584  1.0000
  H   H267      1.0  0.164460366645502  0.8052968322526659  0.2888490786772022  1.0000
  H   H268      1.0  0.10921462730032916  0.6568355056427883  0.28685856052391795  1.0000
  H   H269      1.0  0.12421956663715483  0.6878013733646557  0.3106923849233452  1.0000
  H   H270      1.0  0.07417776574867219  0.6805707538154356  0.2969933031280092  1.0000
  H   H271      1.0  0.18914525953468497  0.7096079494229899  0.2748270131049969  1.0000
  H   H272      1.0  0.2045203346718334  0.7435119505186973  0.29789059770276716  1.0000
  H   H273      1.0  0.2112925783872026  0.771685573535331  0.27399028790591323  1.0000
  H   H274      1.0  0.1192855738438574  0.6992399095463423  0.2550588906348683  1.0000
  H   H275      1.0  0.14383675360555914  0.7616725454634344  0.2551217254471306  1.0000
  H   H276      1.0  0.08569114838792191  0.7249312242322846  0.26463928146793025  1.0000
  N   N12       1.0  0.06381269286596003  0.025405982008742  0.5926017991873177  1.0000
  C   C261      1.0  0.07883543767940618  0.010703209447597617  0.6108454811248879  1.0000
  C   C262      1.0  0.05853463445066654  0.9935598322268125  0.5755628027482346  1.0000
  C   C263      1.0  0.09929198656359939  0.07385381046804522  0.5872373714987431  1.0000
  C   C264      1.0  0.01856897030169158  0.023381098689527317  0.5966944958483813  1.0000
  H   H277      1.0  0.08333460765613171  0.034123370210285796  0.6239913419043269  1.0000
  H   H278      1.0  0.11277486898887354  0.011672747322885035  0.6081543879322523  1.0000
  H   H279      1.0  0.052729630786129196  0.9742695474400788  0.6152675699144823  1.0000
  H   H280      1.0  0.0921525920141433  0.9949322947722279  0.5715607380494864  1.0000
  H   H281      1.0  0.032022354917746736  0.956571307894375  0.5789617063260487  1.0000
  H   H282      1.0  0.04650547289288404  0.003358223366399349  0.5617601476167142  1.0000
  H   H283      1.0  0.08923010253438446  0.08586483168980122  0.5734086051606453  1.0000
  H   H284      1.0  0.1338135466516597  0.07659904604394051  0.5838808176621538  1.0000
  H   H285      1.0  0.10428504073747823  0.09914457838869452  0.5996401180035738  1.0000
  H   H286      1.0  0.020893916350375408  0.046626716668384985  0.6095616673012361  1.0000
  H   H287      1.0  0.990686973416278  0.9870283300458952  0.600289818467929  1.0000
  H   H288      1.0  0.006281793447766138  0.034393464901643946  0.5832215285387473  1.0000
  N   N13       1.0  0.34499626144603435  0.43317954705302836  0.9844393156659264  1.0000
  C   C265      1.0  0.3759005400367704  0.4680784473366097  0.9693539260159602  1.0000
  C   C266      1.0  0.3371030180972567  0.4575270961934774  0.0017559365573247554  1.0000
  C   C267      1.0  0.36715205672642864  0.40631241730509426  0.9917503152056493  1.0000
  C   C268      1.0  0.29978754800672053  0.4007089286245293  0.9749452563862989  1.0000
  H   H289      1.0  0.3832562854643991  0.4510255994563946  0.9561749447631467  1.0000
  H   H290      1.0  0.4101165443959263  0.49351551436007873  0.97603391952055  1.0000
  H   H291      1.0  0.3598907169908353  0.4884842084788568  0.9632677247397825  1.0000
  H   H292      1.0  0.31877807225228477  0.476741800465613  0.9969670775981587  1.0000
  H   H293      1.0  0.3152954365935849  0.43232655984620627  0.013725344427705677  1.0000
  H   H294      1.0  0.37044954852907824  0.4833066634088506  0.009008925855614525  1.0000
  H   H295      1.0  0.3445367544930381  0.3794585064743865  0.00307777764407291  1.0000
  H   H296      1.0  0.4011331632251836  0.4296322970064603  0.9992014680536523  1.0000
  H   H297      1.0  0.37386063026639177  0.38768822777294976  0.9790408275550427  1.0000
  H   H298      1.0  0.28168793396195535  0.41958847698477025  0.9693859142937156  1.0000
  H   H299      1.0  0.2755753857910306  0.3737885509968319  0.9858653698385232  1.0000
  H   H300      1.0  0.3042569220148574  0.38171681675191405  0.961781898469897  1.0000
  N   N14       1.0  0.87285236030333  0.6369581824780575  0.17586339452536748  1.0000
  C   C269      1.0  0.9004992678721464  0.6365659499935608  0.19331042297406142  1.0000
  C   C270      1.0  0.8437744669307851  0.6579114536036187  0.18203959971107547  1.0000
  C   C271      1.0  0.8424061360445774  0.5883359056845292  0.16877329232404303  1.0000
  C   C272      1.0  0.9048516678842143  0.6649687862499062  0.1593124868215148  1.0000
  H   H301      1.0  0.9226033236775824  0.6206060297750914  0.1890179383678725  1.0000
  H   H302      1.0  0.8775614131262818  0.6157537434136634  0.2061082577306652  1.0000
  H   H303      1.0  0.9242805321282256  0.6727158875172081  0.19892170096118855  1.0000
  H   H304      1.0  0.8655681244422293  0.6947803071341133  0.18730021840374217  1.0000
  H   H305      1.0  0.8228861559726044  0.6588730878748185  0.16908620575218586  1.0000
  H   H306      1.0  0.8189780695443251  0.6376546409287002  0.1944267141274362  1.0000
  H   H307      1.0  0.822648352047832  0.5871150908075213  0.15494701344806314  1.0000
  H   H308      1.0  0.8165052012949788  0.5665739431365047  0.18054566243287196  1.0000
  H   H309      1.0  0.8631311185934201  0.5709164011691023  0.164858024263114  1.0000
  H   H310      1.0  0.8854979306616099  0.6621915547243848  0.14512926690159988  1.0000
  H   H311      1.0  0.9306074757171225  0.653237669767113  0.15576383833326457  1.0000
  H   H312      1.0  0.9249602607907472  0.7028290768920439  0.1633646943700122  1.0000
  N   N15       1.0  0.3013253881278039  0.9092191459288549  0.3987715988204274  1.0000
  C   C273      1.0  0.2755396724250697  0.9309093247022352  0.4082380839190253  1.0000
  C   C274      1.0  0.2722722225582042  0.8577275241747544  0.39962529500443367  1.0000
  C   C275      1.0  0.3451831020244425  0.9239053718950035  0.40991406906044814  1.0000
  C   C276      1.0  0.3118919367215498  0.9239635543978918  0.377350918006622  1.0000
  H   H313      1.0  0.2671919209993431  0.9205585880271905  0.4244434486717412  1.0000
  H   H314      1.0  0.24178210202676054  0.9197661982004927  0.40037132106125517  1.0000
  H   H315      1.0  0.29610964438496135  0.9698252901719466  0.40770961537532674  1.0000
  H   H316      1.0  0.28999070749091665  0.8397213559418691  0.39244837799777244  1.0000
  H   H317      1.0  0.26401038579121017  0.8454568861601148  0.41552348191919425  1.0000
  H   H318      1.0  0.23847794092854085  0.8455714814913091  0.391839263834955  1.0000
  H   H319      1.0  0.36525775172777675  0.90776350202573  0.40328544444959136  1.0000
  H   H320      1.0  0.33816385535489657  0.9130159722302378  0.42612188693916125  1.0000
  H   H321      1.0  0.36806580142981427  0.9626381961669135  0.4097266627429609  1.0000
  H   H322      1.0  0.3300284451650272  0.9070585748680183  0.36953943567269804  1.0000
  H   H323      1.0  0.33447738798901777  0.9625957561024049  0.3760650239641656  1.0000
  H   H324      1.0  0.2793559387638698  0.9140227615460305  0.368728755265238  1.0000
  N   N16       1.0  0.6337245808010404  0.6313036235459678  0.05152616796374196  1.0000
  C   C277      1.0  0.6411450824499273  0.5906591071715728  0.04847233955452887  1.0000
  C   C278      1.0  0.5835335596884854  0.6146593079268047  0.055049280650198505  1.0000
  C   C279      1.0  0.6499322129265075  0.6612645563906611  0.033308595670314974  1.0000
  C   C280      1.0  0.6605503245734098  0.6587443322221547  0.06930574594137277  1.0000
  H   H325      1.0  0.6787649423595556  0.602047319731375  0.046002691266855134  1.0000
  H   H326      1.0  0.6215395133481552  0.5691793330169858  0.035150935033235145  1.0000
  H   H327      1.0  0.6294030411658705  0.5673025901936802  0.061904535436256486  1.0000
  H   H328      1.0  0.5764418656671555  0.6443941565340167  0.05682324471363268  1.0000
  H   H329      1.0  0.5617766349646707  0.592035482897342  0.04238150515448179  1.0000
  H   H330      1.0  0.5708516960490223  0.593575277517922  0.06916554760129247  1.0000
  H   H331      1.0  0.6303092078649476  0.6418213621503335  0.019586805033272814  1.0000
  H   H332      1.0  0.6877200446557706  0.6740177338910371  0.030262254383162598  1.0000
  H   H333      1.0  0.6455872254479842  0.6927034446867089  0.03518079926971882  1.0000
  H   H334      1.0  0.6545009473298115  0.6886861637968454  0.07262776165994225  1.0000
  H   H335      1.0  0.6986645749329657  0.6732557717662487  0.06687359455503986  1.0000
  H   H336      1.0  0.650775500970632  0.6367679441120896  0.08316131715646022  1.0000
  N   N17       1.0  0.9685906864435935  0.6438723152189151  0.4622659212011817  1.0000
  C   C281      1.0  0.9865828062694739  0.6110589807835208  0.4584730307091465  1.0000
  C   C282      1.0  0.9178472460630704  0.6170943191992387  0.4662838403560768  1.0000
  C   C283      1.0  0.9775213409716689  0.6735943919575483  0.44423343001653853  1.0000
  C   C284      1.0  0.9925482991771372  0.6738916599657645  0.47997932245715436  1.0000
  H   H337      1.0  0.024741615899584568  0.630273216168262  0.4551697019662847  1.0000
  H   H338      1.0  0.9694802142136095  0.5880697010198707  0.44510309777861123  1.0000
  H   H339      1.0  0.980828362943731  0.5880345027807354  0.4717218902586652  1.0000
  H   H340      1.0  0.9098294424276399  0.5941332490306849  0.47976842743839315  1.0000
  H   H341      1.0  0.9033038688063876  0.640977504121503  0.46919344642662897  1.0000
  H   H342      1.0  0.8988831244465887  0.5942922468422679  0.45312212312654643  1.0000
  H   H343      1.0  0.9610316999027444  0.652301119100088  0.43038194301386645  1.0000
  H   H344      1.0  0.015446007807471185  0.6944375689182031  0.44103970148758403  1.0000
  H   H345      1.0  0.9647302668511825  0.6991342749695658  0.44646414226092157  1.0000
  H   H346      1.0  0.9805403967113452  0.6998283173020399  0.48300141517932693  1.0000
  H   H347      1.0  0.03097515665376349  0.694596467879132  0.47740200837900443  1.0000
  H   H348      1.0  0.9865119142419106  0.6528585490935043  0.49394474493661134  1.0000
  N   N18       1.0  0.5679042854826738  0.6312583408707841  0.6609424655603916  1.0000
  C   C285      1.0  0.6057953256114909  0.6443511222452435  0.6458418193073929  1.0000
  C   C286      1.0  0.5880952809271334  0.6432191242956378  0.6815001537237434  1.0000
  C   C287      1.0  0.5350332295702298  0.5803705905644608  0.6594416924862762  1.0000
  C   C288      1.0  0.5427448409903382  0.6572557808290124  0.6569211886564413  1.0000
  H   H349      1.0  0.6258775450657841  0.6258068415651176  0.6485175148768989  1.0000
  H   H350      1.0  0.6308558614257676  0.6826012543763247  0.6462589531696  1.0000
  H   H351      1.0  0.5919161654372189  0.6355962308751654  0.6301572899552627  1.0000
  H   H352      1.0  0.5605966413905955  0.6344762549658318  0.6932961676061548  1.0000
  H   H353      1.0  0.6071631711343084  0.6240843169911463  0.6851532451540933  1.0000
  H   H354      1.0  0.6133372244528764  0.6814711412367758  0.6828677450680113  1.0000
  H   H355      1.0  0.5058511016742187  0.5691215880755075  0.6705743468909056  1.0000
  H   H356      1.0  0.5528066625869881  0.5595439339409636  0.6622348367704946  1.0000
  H   H357      1.0  0.5194104417901068  0.5707304389463291  0.6440099581825068  1.0000
  H   H358      1.0  0.5665935773479959  0.6957722325989856  0.657790676712917  1.0000
  H   H359      1.0  0.5140804718759937  0.6485184797344777  0.6680945762698731  1.0000
  H   H360      1.0  0.5269408608762289  0.649110235871493  0.6415303709280178  1.0000
  N   N19       1.0  0.0650481933284157  0.9342970475794773  0.12683525459022507  1.0000
  C   C289      1.0  0.02665601411771145  0.9347250141274334  0.1155564768584953  1.0000
  C   C290      1.0  0.0737865382646921  0.8972488644828035  0.1184785693120301  1.0000
  C   C291      1.0  0.05191925755342373  0.9248173240474228  0.14849238428586878  1.0000
  C   C292      1.0  0.10783921787344825  0.9803551178024777  0.12485379599277054  1.0000
  H   H361      1.0  0.01869998756936386  0.9619074138991599  0.12163734635195131  1.0000
  H   H362      1.0  0.9938782600755622  0.9003666167295761  0.11657566097453592  1.0000
  H   H363      1.0  0.03548338279105234  0.9423523647004509  0.09918926925411323  1.0000
  H   H364      1.0  0.10242818126492433  0.8958691515912988  0.12674366009247812  1.0000
  H   H365      1.0  0.042093730682635305  0.8620252498407037  0.11968432483699543  1.0000
  H   H366      1.0  0.08391990567555956  0.903342459236035  0.10215562588092245  1.0000
  H   H367      1.0  0.02070425978163626  0.8897080660870366  0.15066209665375493  1.0000
  H   H368      1.0  0.04383731690347945  0.9514287171160725  0.15511977629774654  1.0000
  H   H369      1.0  0.08082402004184792  0.9261459031859569  0.15764731633344312  1.0000
  H   H370      1.0  0.13728424430004002  0.9816581519276849  0.13356784715967826  1.0000
  H   H371      1.0  0.10240419580725796  0.009119846628571127  0.1309525577266123  1.0000
  H   H372      1.0  0.11916682437944054  0.9886931315407217  0.10875000310219667  1.0000
  N   N20       1.0  0.2959863238715332  0.0411048985018001  0.5105917128119977  1.0000
  C   C293      1.0  0.29392866703025994  0.07477820102735899  0.5251345800781552  1.0000
  C   C294      1.0  0.25096652300541916  0.015602874165173919  0.4998555181903705  1.0000
  C   C295      1.0  0.30495287238554203  0.007212716380438744  0.5215874172926573  1.0000
  C   C296      1.0  0.3339858074129411  0.06667597502400735  0.49570977139197764  1.0000
  H   H373      1.0  0.26565843733697814  0.05669415966946101  0.5366007982334948  1.0000
  H   H374      1.0  0.2870504103216649  0.10075294068124241  0.5173261480645036  1.0000
  H   H375      1.0  0.32728780468487595  0.09505109241663612  0.533496078090396  1.0000
  H   H376      1.0  0.25112418684839377  0.9897601409819338  0.4887884620095256  1.0000
  H   H377      1.0  0.22146706105707192  0.9959630424598378  0.510637612551982  1.0000
  H   H378      1.0  0.2430446849315491  0.04004277504069087  0.4913528717432743  1.0000
  H   H379      1.0  0.30644029626326985  0.9811839160499137  0.5110109150164335  1.0000
  H   H380      1.0  0.2772648062779178  0.9873880222882947  0.5330639274289969  1.0000
  H   H381      1.0  0.3390484651981256  0.025015252184119374  0.5295616641714246  1.0000
  H   H382      1.0  0.36859943623992275  0.08569359756198458  0.5032405519160992  1.0000
  H   H383      1.0  0.32879270793472914  0.09291618798110979  0.4872223359547404  1.0000
  H   H384      1.0  0.33629826650185474  0.04225790405971397  0.48445844622506806  1.0000
  N   N21       1.0  0.4722844243000491  0.788909070632311  0.8350189136609091  1.0000
  C   C297      1.0  0.522121687388736  0.8241001391601802  0.837342702818615  1.0000
  C   C298      1.0  0.4680792894724013  0.743727834346453  0.8283913422791949  1.0000
  C   C299      1.0  0.45104337658343807  0.8052463754190866  0.8197124685633956  1.0000
  C   C300      1.0  0.44798476862502995  0.7826392623119488  0.8546846802749996  1.0000
  H   H385      1.0  0.5396384636063651  0.8128580317393759  0.8485777813621801  1.0000
  H   H386      1.0  0.5268590013541459  0.8588919012607598  0.8420864362939194  1.0000
  H   H387      1.0  0.5413630161481459  0.8296308698913966  0.8228046766373264  1.0000
  H   H388      1.0  0.43102103051437257  0.7162550112021895  0.8263301831676675  1.0000
  H   H389      1.0  0.4865382783863362  0.7472631543450364  0.8137113147479201  1.0000
  H   H390      1.0  0.4838681108158222  0.7304767901597969  0.8395951914749136  1.0000
  H   H391      1.0  0.4686173822481618  0.8104638519253593  0.8046813492675244  1.0000
  H   H392      1.0  0.4543325929793553  0.8397003067506712  0.8240664159396303  1.0000
  H   H393      1.0  0.41339586091796676  0.7797632218342102  0.8175521046159552  1.0000
  H   H394      1.0  0.41028812945786924  0.7561650765853117  0.8535142129808211  1.0000
  H   H395      1.0  0.45049734392188073  0.8161169108570762  0.8600939862260817  1.0000
  H   H396      1.0  0.4633490864719775  0.7704799113065931  0.8665641936576994  1.0000
  N   N22       1.0  0.12838226453068358  0.4417678375189567  0.06893888556377437  1.0000
  C   C301      1.0  0.11927281612499607  0.4769548911702317  0.0790954642843384  1.0000
  C   C302      1.0  0.08554301346548687  0.39549242843721183  0.06938057993316514  1.0000
  C   C303      1.0  0.16611705246179165  0.4388607380538209  0.07963544717274017  1.0000
  C   C304      1.0  0.14263083226295303  0.4556861059102254  0.047645135612450526  1.0000
  H   H397      1.0  0.09059128105759084  0.47976472933500786  0.07162078476145235  1.0000
  H   H398      1.0  0.15076604533384308  0.5124035196113618  0.07886482381152816  1.0000
  H   H399      1.0  0.10907809417010883  0.46789070873845057  0.09529517412226043  1.0000
  H   H400      1.0  0.09144140552710844  0.36805977186284117  0.06200510401267988  1.0000
  H   H401      1.0  0.07357710105822313  0.38414090024069597  0.08523349349675718  1.0000
  H   H402      1.0  0.05648835596808088  0.3962928650901643  0.06122339769010271  1.0000
  H   H403      1.0  0.17475202947581936  0.4134590994309388  0.07208857713214531  1.0000
  H   H404      1.0  0.15657246560648042  0.4280307964388036  0.09571531295136342  1.0000
  H   H405      1.0  0.19883528304198217  0.47334411504531615  0.07978619627398255  1.0000
  H   H406      1.0  0.1761601698517552  0.4894173553540996  0.04673571340400481  1.0000
  H   H407      1.0  0.11588113683191947  0.46006056688089586  0.03923939631646721  1.0000
  H   H408      1.0  0.14797247545743786  0.4289041308147664  0.03933330687067192  1.0000
  N   N23       1.0  0.6608078993526869  0.21241905076092946  0.5195696634176136  1.0000
  C   C305      1.0  0.6186810601535258  0.18940889047224851  0.5067905788611835  1.0000
  C   C306      1.0  0.7004675183614198  0.24724450105262963  0.5073523484601864  1.0000
  C   C307      1.0  0.6719509211025112  0.17682366160057672  0.5272462138770437  1.0000
  C   C308      1.0  0.6520501765829005  0.23612448481249573  0.536890802852958  1.0000
  H   H409      1.0  0.587776369957929  0.16409916130126512  0.5157069605462669  1.0000
  H   H410      1.0  0.6232046159185305  0.1695366649071501  0.49400253458668825  1.0000
  H   H411      1.0  0.6100047272123017  0.21525518866732052  0.500171470061191  1.0000
  H   H412      1.0  0.7333768659191371  0.26422223779978354  0.5162275859299478  1.0000
  H   H413      1.0  0.7069135665938125  0.230516589120757  0.4938859690439228  1.0000
  H   H414      1.0  0.6938117480985504  0.27527159574078475  0.5016717469044927  1.0000
  H   H415      1.0  0.7037557558657294  0.1929289604164742  0.536821155327394  1.0000
  H   H416      1.0  0.6782075333529657  0.15784912663882744  0.5146172619551606  1.0000
  H   H417      1.0  0.6428303927597621  0.1499845922025326  0.5365716396940108  1.0000
  H   H418      1.0  0.6832376052318183  0.2542370637653063  0.5467718962533366  1.0000
  H   H419      1.0  0.6226042246384388  0.21050958867701502  0.5465022609387676  1.0000
  H   H420      1.0  0.6426518417121082  0.2626104584714976  0.5316782002045277  1.0000
  N   N24       1.0  0.22804462841160858  0.35167490642581906  0.1674195429424942  1.0000
  C   C309      1.0  0.20085086518495554  0.3016526340514802  0.17301106066701508  1.0000
  C   C310      1.0  0.24739245817692695  0.38071309912510676  0.1858513981375912  1.0000
  C   C311      1.0  0.19742249460090797  0.3659230625577289  0.1570412382556345  1.0000
  C   C312      1.0  0.2667250235957608  0.3586384048433055  0.15370706595810396  1.0000
  H   H421      1.0  0.18733575229412064  0.2789617969098007  0.15929970758208323  1.0000
  H   H422      1.0  0.17026627366647296  0.2945297361655987  0.18275132099797325  1.0000
  H   H423      1.0  0.22260948183176807  0.2899874966727295  0.1812860951324226  1.0000
  H   H424      1.0  0.21925841864329895  0.37624256383576915  0.19662996101624663  1.0000
  H   H425      1.0  0.2713344541163196  0.3715325624237123  0.1939034751243892  1.0000
  H   H426      1.0  0.26783753358053275  0.41871250531316184  0.18198677991750492  1.0000
  H   H427      1.0  0.21710640265449085  0.4031516611622662  0.1522326915871182  1.0000
  H   H428      1.0  0.16817904674765413  0.36186025385450316  0.16700171923562018  1.0000
  H   H429      1.0  0.18210395472563973  0.3448134419760002  0.14312110444219175  1.0000
  H   H430      1.0  0.28891412807103606  0.39622665940973123  0.14982021430835496  1.0000
  H   H431      1.0  0.2536438894596515  0.33899961407930107  0.13920911653007492  1.0000
  H   H432      1.0  0.28973114190370264  0.34673074282332067  0.1606631917960594  1.0000
  N   N25       1.0  0.08827054854609928  0.3724653541918843  0.4595286952426554  1.0000
  C   C313      1.0  0.07417147865582319  0.39820529713366876  0.47393826533312866  1.0000
  C   C314      1.0  0.07166030417168479  0.3743260201217855  0.4390036925237628  1.0000
  C   C315      1.0  0.0676184413211871  0.32304406842207695  0.46595749728600666  1.0000
  C   C316      1.0  0.1396755675411112  0.3943703003537575  0.45915144006594116  1.0000
  H   H433      1.0  0.0862618369814554  0.3978857327876025  0.48958681968087747  1.0000
  H   H434      1.0  0.03552662182051747  0.3825830280922876  0.47459469468573307  1.0000
  H   H435      1.0  0.08837609990764372  0.4354385698153438  0.46932044879082596  1.0000
  H   H436      1.0  0.0808904056563351  0.35464814903025915  0.4277091217375648  1.0000
  H   H437      1.0  0.03317130714970107  0.3583967962487192  0.4388135631779377  1.0000
  H   H438      1.0  0.08609179421832325  0.4110823037062485  0.43367185942318254  1.0000
  H   H439      1.0  0.028829028122647093  0.3054927174148647  0.4664622429607405  1.0000
  H   H440      1.0  0.07945305842262496  0.32003929940099307  0.4813307277709083  1.0000
  H   H441      1.0  0.07679083920340335  0.30231710761448843  0.4552112718417044  1.0000
  H   H442      1.0  0.15137115247902844  0.37578730816664085  0.4483596994427202  1.0000
  H   H443      1.0  0.15347203924051578  0.3936008226631641  0.4743958522756061  1.0000
  H   H444      1.0  0.1562193628781745  0.43169042508708066  0.4543333024123049  1.0000
  N   N26       1.0  0.9408798639451452  0.029442253397041675  0.4405337073804286  1.0000
  C   C317      1.0  0.9191724288676812  0.04964544000077273  0.4541155128838146  1.0000
  C   C318      1.0  0.991774322789803  0.053681240500941134  0.4439501299301119  1.0000
  C   C319      1.0  0.9318025181776429  0.035576280427639544  0.41918709263329607  1.0000
  C   C320      1.0  0.9209582383037832  0.9789327045684121  0.4448543072663001  1.0000
  H   H445      1.0  0.8805462702805545  0.030958137464245198  0.45262913987518794  1.0000
  H   H446      1.0  0.9320344650502218  0.08727272975106783  0.450693899406494  1.0000
  H   H447      1.0  0.9272685615078331  0.04778117457517988  0.47034347827167566  1.0000
  H   H448      1.0  0.009220576344018959  0.03839670813915759  0.4344346468488029  1.0000
  H   H449      1.0  0.008300968216649272  0.09171766168934661  0.44048493595174965  1.0000
  H   H450      1.0  0.9997087492718196  0.05031000888655135  0.4599821382314521  1.0000
  H   H451      1.0  0.9478643287432711  0.020782066745245187  0.4085684381357425  1.0000
  H   H452      1.0  0.9465529089354149  0.07338135034024884  0.4154380233532095  1.0000
  H   H453      1.0  0.8937066920226325  0.017745805685412508  0.4160544905961964  1.0000
  H   H454      1.0  0.9273780154303662  0.9730755768031149  0.46081937997135597  1.0000
  H   H455      1.0  0.9372090770820338  0.9627667220500732  0.43511029341345786  1.0000
  H   H456      1.0  0.8826256444802844  0.9592234342875127  0.4423806891204861  1.0000
  N   N27       1.0  0.827377829441001  0.9110952775510799  0.1831428237598389  1.0000
  C   C321      1.0  0.8222391072141038  0.9382658377598218  0.1665634563245386  1.0000
  C   C322      1.0  0.8109620623227005  0.8624519230858706  0.17612420757953795  1.0000
  C   C323      1.0  0.7995240398658968  0.9109221648398232  0.2009259529181914  1.0000
  C   C324      1.0  0.8769868377508793  0.9328028679800322  0.1889175685644279  1.0000
  H   H457      1.0  0.8350122294671884  0.9753466671451514  0.17112219134295664  1.0000
  H   H458      1.0  0.78518481164815  0.9230911183772317  0.1619010627776562  1.0000
  H   H459      1.0  0.8425658188750941  0.9387669265909752  0.1528400480359887  1.0000
  H   H460      1.0  0.8147017914238397  0.8408738223085875  0.1881195502359427  1.0000
  H   H461      1.0  0.7736183148400507  0.8448163904245014  0.17161436202467004  1.0000
  H   H462      1.0  0.8313233962948939  0.8615428969619682  0.16266830249222605  1.0000
  H   H463      1.0  0.8029993287702472  0.8910331332415876  0.21376134966943836  1.0000
  H   H464      1.0  0.7618164821027219  0.8946682755266421  0.19719490187264638  1.0000
  H   H465      1.0  0.8111605155467425  0.9472350809759427  0.20652989129751909  1.0000
  H   H466      1.0  0.890299781582859  0.968808874865822  0.19515272950829934  1.0000
  H   H467      1.0  0.8991445182635694  0.9355963252463402  0.1756077041350475  1.0000
  H   H468      1.0  0.8826903464534547  0.9120838720456927  0.20070340483058868  1.0000
  N   N28       1.0  0.7584346007422567  0.5105528064456502  0.9951922105908847  1.0000
  C   C325      1.0  0.7672686008181099  0.5504548153803168  0.9821057514961958  1.0000
  C   C326      1.0  0.7089475732061792  0.4861671949797404  0.0016461753520300437  1.0000
  C   C327      1.0  0.7888101698232536  0.5281020908452224  0.01320458525579804  1.0000
  C   C328      1.0  0.7687527508159542  0.4776570311233123  0.9837285680541633  1.0000
  H   H469      1.0  0.8041083480648361  0.5692142255970604  0.9766871397581626  1.0000
  H   H470      1.0  0.7603996347331264  0.5762704708105184  0.9903198540423094  1.0000
  H   H471      1.0  0.7446836748908092  0.5388259060085044  0.968459550456966  1.0000
  H   H472      1.0  0.700013042984628  0.5101991205737882  0.010203566468902192  1.0000
  H   H473      1.0  0.6853564799983882  0.47247924116288986  0.9882907749502254  1.0000
  H   H474      1.0  0.7009876356086628  0.4559369297378152  0.011656050752792746  1.0000
  H   H475      1.0  0.7832704646066129  0.49907609171738704  0.023499187101145846  1.0000
  H   H476      1.0  0.7822730434614621  0.553391041193456  0.022127475427980103  1.0000
  H   H477      1.0  0.8264454285364461  0.5468718078548904  0.00874337539654757  1.0000
  H   H478      1.0  0.760067121642952  0.4458125519969537  0.9927187705052393  1.0000
  H   H479      1.0  0.8064335132473639  0.4942709507555894  0.9796648994412424  1.0000
  H   H480      1.0  0.7486956647158816  0.46617370951070974  0.9692920249177192  1.0000
  N   N29       1.0  0.3487248750241177  0.094142613637453  0.23046469654996957  1.0000
  C   C329      1.0  0.3184240891351233  0.11543342569872239  0.2330218248786949  1.0000
  C   C330      1.0  0.3960866468605251  0.1300958777143725  0.22406325432783208  1.0000
  C   C331      1.0  0.3286876873642076  0.05691020495695639  0.21485407994896666  1.0000
  C   C332      1.0  0.35154511953386547  0.07371795208556525  0.2499253886633214  1.0000
  H   H481      1.0  0.33224540377316947  0.1435879709472003  0.24476056375760313  1.0000
  H   H482      1.0  0.28244224158553743  0.08871008410101498  0.23785886219137345  1.0000
  H   H483      1.0  0.3150886506588132  0.13083548217278168  0.21858682263889537  1.0000
  H   H484      1.0  0.3954153829001085  0.14604757011411612  0.20933326219774567  1.0000
  H   H485      1.0  0.41241961684226675  0.15878519199308613  0.23549682458776977  1.0000
  H   H486      1.0  0.4194466606227789  0.11456140990082249  0.22211576874713054  1.0000
  H   H487      1.0  0.3257812622867868  0.07085422639167126  0.19995132760500386  1.0000
  H   H488      1.0  0.2930065291373922  0.029234123372997863  0.21929078355076623  1.0000
  H   H489      1.0  0.3505265435503156  0.03984117401564464  0.21256071627920092  1.0000
  H   H490      1.0  0.37342723606525613  0.056506877708773905  0.24846083574515845  1.0000
  H   H491      1.0  0.31632066911628876  0.04677763409593016  0.2553061774070806  1.0000
  H   H492      1.0  0.3670296671095843  0.1008222620231191  0.26204546499712367  1.0000
  N   N30       1.0  0.20896344012685364  0.9868264500317819  0.7290223985151719  1.0000
  C   C333      1.0  0.23883183815815245  0.979069293809206  0.7143476934587224  1.0000
  C   C334      1.0  0.2270463854299205  0.03773066945853884  0.7316139858423081  1.0000
  C   C335      1.0  0.2092889109024063  0.9659066917056838  0.7487546744826232  1.0000
  C   C336      1.0  0.16066893413482286  0.9646936969924408  0.7213568435040376  1.0000
  H   H493      1.0  0.2263156271780835  0.9411074167397204  0.7118614359327944  1.0000
  H   H494      1.0  0.27547539856404857  0.9953795390819179  0.7197335390625119  1.0000
  H   H495      1.0  0.24021443142855858  0.9952757484026561  0.6994028105334172  1.0000
  H   H496      1.0  0.20439059973691975  0.04506380776032052  0.7418974529535375  1.0000
  H   H497      1.0  0.26280921069081997  0.05530036277025425  0.7380909955950574  1.0000
  H   H498      1.0  0.2295024969402537  0.055137998229743156  0.7168711602087957  1.0000
  H   H499      1.0  0.24486314831778433  0.9831722283116706  0.7554765199115252  1.0000
  H   H500      1.0  0.19771715937878587  0.9279040020675998  0.747268989450414  1.0000
  H   H501      1.0  0.18567710062916198  0.9694810094799584  0.759980201065625  1.0000
  H   H502      1.0  0.1458632335054535  0.9262296277634883  0.7192368263819077  1.0000
  H   H503      1.0  0.15918240435801678  0.9798383895145963  0.7065267744873628  1.0000
  H   H504      1.0  0.13732221563421665  0.9700251527688517  0.7321490856119163  1.0000
  N   N31       1.0  0.7042109686927973  0.9112127556915074  0.5442080412788957  1.0000
  C   C337      1.0  0.676846970315993  0.9227584461033022  0.5587841049937993  1.0000
  C   C338      1.0  0.6758078973589342  0.8621455595298447  0.5372370813802669  1.0000
  C   C339      1.0  0.7467724271901885  0.9170199837325473  0.5541666892708821  1.0000
  C   C340      1.0  0.7173830103045369  0.9428873048322051  0.5265880867326213  1.0000
  H   H505      1.0  0.663759012916151  0.8977646465989897  0.5717250505234822  1.0000
  H   H506      1.0  0.6458932324120439  0.9212855005201549  0.5514195748074957  1.0000
  H   H507      1.0  0.6978560555343317  0.9586500656581353  0.5651848419397106  1.0000
  H   H508      1.0  0.6444674237977207  0.8568334388682488  0.5288293882688458  1.0000
  H   H509      1.0  0.6961451366169483  0.8514229517075782  0.5270272291946144  1.0000
  H   H510      1.0  0.6634590736690382  0.8373284905660034  0.5502188483495474  1.0000
  H   H511      1.0  0.73794528807917  0.8924197920619832  0.567103994691843  1.0000
  H   H512      1.0  0.7686763643559198  0.9532377579585009  0.5601067950220462  1.0000
  H   H513      1.0  0.7687432314678195  0.9096294805205116  0.5434421005645311  1.0000
  H   H514      1.0  0.737787156242681  0.934874647379769  0.5152213224251334  1.0000
  H   H515      1.0  0.7389992278873297  0.9802165362379709  0.531276730899662  1.0000
  H   H516      1.0  0.6858672305910981  0.939380405401719  0.5188080830219116  1.0000
  N   N32       1.0  0.9577557455056294  0.19791912129791306  0.187768603970177  1.0000
  C   C341      1.0  0.9811232760694114  0.2477398129095337  0.18166483855436813  1.0000
  C   C342      1.0  0.9192414351123727  0.18843176653764646  0.20210060409283045  1.0000
  C   C343      1.0  0.9918066889086165  0.18759958609258143  0.19766041754006022  1.0000
  C   C344      1.0  0.9388547785915536  0.16777517849516463  0.1695978834852652  1.0000
  H   H517      1.0  0.956358045247701  0.256852963477788  0.1742525199433186  1.0000
  H   H518      1.0  0.010196203153110421  0.2559749408961336  0.17073402876295463  1.0000
  H   H519      1.0  0.9959178086779226  0.2716775011827608  0.19496436003444856  1.0000
  H   H520      1.0  0.9018423816089345  0.15159834084823273  0.20750531060967797  1.0000
  H   H521      1.0  0.9320200988255825  0.21147904286353364  0.2157492910683113  1.0000
  H   H522      1.0  0.8919628386520876  0.19415170604674584  0.1949320721256321  1.0000
  H   H523      1.0  0.9753641777176966  0.15018582514244808  0.20234388170972034  1.0000
  H   H524      1.0  0.0066956641405113634  0.20941859065391863  0.21151196003160805  1.0000
  H   H525      1.0  0.02131306305660363  0.19426172452188384  0.18723681228803304  1.0000
  H   H526      1.0  0.9203010147177064  0.12998888777815984  0.17370782708538707  1.0000
  H   H527      1.0  0.9672192468871154  0.17335397104883232  0.15865027203704188  1.0000
  H   H528      1.0  0.9136592303794479  0.17511149153508368  0.16149370290678539  1.0000
  N   N33       1.0  0.7280898467152193  0.9315400376137865  0.7111339969730781  1.0000
  C   C345      1.0  0.6811975009416021  0.9116360382014309  0.7020612443467432  1.0000
  C   C346      1.0  0.7301260070773508  0.8960140336856087  0.724072964947485  1.0000
  C   C347      1.0  0.737639347155596  0.9730593352058922  0.7235911986813479  1.0000
  C   C348      1.0  0.7635074571750834  0.9453918202047585  0.6948079663887788  1.0000
  H   H529      1.0  0.6775276416274644  0.9380705223193804  0.6929918842502261  1.0000
  H   H530      1.0  0.6531871241222268  0.8982491159501833  0.7138864380256269  1.0000
  H   H531      1.0  0.6739176014547441  0.881753840911557  0.6917479812023424  1.0000
  H   H532      1.0  0.7027042178159403  0.8834638506497897  0.7361065925316129  1.0000
  H   H533      1.0  0.7250804394437966  0.8650121880660648  0.715092769213583  1.0000
  H   H534      1.0  0.7642964304498749  0.9104977027438351  0.7319324762567209  1.0000
  H   H535      1.0  0.7725000525659578  0.9885421567538283  0.7309251967580649  1.0000
  H   H536      1.0  0.7116510546408863  0.9636944632913118  0.736107085840113  1.0000
  H   H537      1.0  0.7365419804954634  0.0007854772369533246  0.7144150895471794  1.0000
  H   H538      1.0  0.7629234437375032  0.9721277079764825  0.6847178391093621  1.0000
  H   H539      1.0  0.7571923495638804  0.9147051793476755  0.6851410252910222  1.0000
  H   H540      1.0  0.79927665739388  0.960393884493917  0.7011549549041214  1.0000
  N   N34       1.0  0.37127174649839356  0.4172205041245479  0.5563211391989589  1.0000
  C   C349      1.0  0.3310366280356233  0.4255569280907365  0.5565941748928979  1.0000
  C   C350      1.0  0.4141645260973198  0.46070249786409845  0.5505184521336107  1.0000
  C   C351      1.0  0.3628168745019052  0.37952193710355314  0.5416139412536161  1.0000
  C   C352      1.0  0.3771290991069106  0.4028041827079949  0.5767134165777789  1.0000
  H   H541      1.0  0.29832647621736863  0.39325502766693826  0.5610611749447029  1.0000
  H   H542      1.0  0.3253857735399126  0.4364110163559635  0.5414248746601497  1.0000
  H   H543      1.0  0.336410250350512  0.45370355559333114  0.567644556353095  1.0000
  H   H544      1.0  0.4228336078584193  0.4893908671368412  0.5617845101339404  1.0000
  H   H545      1.0  0.44488116021759044  0.45501135065881154  0.5496994745256772  1.0000
  H   H546      1.0  0.4107520009155046  0.4734911620032739  0.5354197940633204  1.0000
  H   H547      1.0  0.3932475234212886  0.3733878573420871  0.5407342108123503  1.0000
  H   H548      1.0  0.3568397608999219  0.3883701942441167  0.5260954559847811  1.0000
  H   H549      1.0  0.33179900058865525  0.3456280126204778  0.5460733975816974  1.0000
  H   H550      1.0  0.40689197880718636  0.3957971815569946  0.5768529844857564  1.0000
  H   H551      1.0  0.34547039908169525  0.3701631362863717  0.5816997848673549  1.0000
  H   H552      1.0  0.38416322621379684  0.4304276939203882  0.5882844677743618  1.0000
  N   N35       1.0  0.22482229154330424  0.14498799664032702  0.8386263505578807  1.0000
  C   C353      1.0  0.18068540217192733  0.12995977775714662  0.8276693753017614  1.0000
  C   C354      1.0  0.24857677203339765  0.1962794152206158  0.8419078007161458  1.0000
  C   C355      1.0  0.2553226451623774  0.13253996970049722  0.8265335454732595  1.0000
  C   C356      1.0  0.2145072279419926  0.1210283890392463  0.8584427608713593  1.0000
  H   H553      1.0  0.15639406632715144  0.13805467276399885  0.8365029731813787  1.0000
  H   H554      1.0  0.16204653813287556  0.09153619274736847  0.8248369993794253  1.0000
  H   H555      1.0  0.18679978828795393  0.14722335990828092  0.812636360338322  1.0000
  H   H556      1.0  0.2565821063581888  0.2154733659146075  0.8272644263781217  1.0000
  H   H557      1.0  0.22644519865119883  0.20645755579972214  0.8511819131712686  1.0000
  H   H558      1.0  0.282385457044833  0.20908775986688574  0.8499381537432561  1.0000
  H   H559      1.0  0.2625100188710512  0.14854892979414577  0.8111747024389304  1.0000
  H   H560      1.0  0.23893600017946998  0.09390491258192386  0.8244018012462175  1.0000
  H   H561      1.0  0.28954629583957575  0.14457413024203686  0.8340423991898052  1.0000
  H   H562      1.0  0.19064066061573723  0.12873739586855285  0.8678208111890466  1.0000
  H   H563      1.0  0.24687806864178738  0.13203307006268236  0.867305185929733  1.0000
  H   H564      1.0  0.19707488758114106  0.0822490808060365  0.8565014081441249  1.0000
  N   N36       1.0  0.5604653399565348  0.16427265180395256  0.7927564393390955  1.0000
  C   C357      1.0  0.545790179658242  0.17145453031538738  0.7726336073036529  1.0000
  C   C358      1.0  0.6118973002766552  0.19096847120774907  0.7940021852921271  1.0000
  C   C359      1.0  0.5441131858357355  0.11379622345053408  0.7955883658231513  1.0000
  C   C360      1.0  0.5399599993072354  0.1808896909997293  0.8086884641923251  1.0000
  H   H565      1.0  0.5072714576419992  0.15222083884513182  0.7714420374955477  1.0000
  H   H566      1.0  0.5594734939828403  0.1583105137102363  0.7601467460441441  1.0000
  H   H567      1.0  0.5572174082226558  0.20907943075801771  0.7698646202771177  1.0000
  H   H568      1.0  0.6242174054414201  0.18623752033814744  0.8089915641313483  1.0000
  H   H569      1.0  0.6282944111101454  0.17932820855747522  0.7820817835231528  1.0000
  H   H570      1.0  0.6252318945938377  0.22918370420565837  0.7918970303716798  1.0000
  H   H571      1.0  0.5054446846700898  0.09257400402779248  0.7944495253310604  1.0000
  H   H572      1.0  0.5541944721772011  0.10667874979518244  0.8106354498475539  1.0000
  H   H573      1.0  0.5586859699728947  0.10005498199498253  0.7837095410207353  1.0000
  H   H574      1.0  0.5503658813122869  0.17638762597403335  0.8241316535897087  1.0000
  H   H575      1.0  0.5011188037409874  0.16149413523721456  0.808134793235664  1.0000
  H   H576      1.0  0.5507752906352086  0.21865468398582188  0.8067145041133142  1.0000
