data_image0
_chemical_formula_structural       HFeS2FeS2FeSFeS2FeS2FeSHCFeS3HFeS2FeCSFeSNSHSH5SH2C2FeCH4SHSC5H4CHCHC6H4C6HNH2C6H4CH3C2H4C4HCH4NHCNHC2H4CHSHCHCH2CH3CH3FeH5C2HSH2CH2CH3C2H4C2HCHCHFeCSCNCNHC3H2C2H6CHC2H3NH2FeH4CHSHFeS2HCH3S2FeSFeSCFe2CS2FeS2FeS2FeSFeS3H2S2H2SFeCS3CSNSFeSFeSNH2Fe2S2C6SHC7H4C6H7C3H4C6H4C6H4CH4SCNHCH2CNHC2HSH4FeH2C6H3CHNC4H11FeH3C3S2H2FeHSFeHCH2CH2FeH2CSNC4H12NC4H13NC4H12C3FeHCHS2HCHCH2FeSCHCH3CHSHC2HSHNCH2SHCH2SH5SHFeSFeSFeS2Fe2S2FeS2FeCFeS3FeS3HS2NFeSHCSCFeS2H3FeSHSHSFeS2FeSFeS3C3FeH3CFeC4H5FeHCSC6H4C2H3C6H4C6H4C6H7C3H2NHC6HSH2C3H4SHC2HC2HC3NH2NC4H12SH2CH5C2FeH2CNH2CFeHCHCFeCHC2H4CHSH4CSH2CHCFeH3C2HCH2SC2NC4H12SHS2CH2NHC2H5FeNC2H2CHCH4SHCH4C2H2C2HCHCH3SH5C2HCH2SH3FeS2FeS2FeSFeS3HCHFeHSC2HSFeS2FeS2FeSFeS3FeS2HFeSCSH2C3H8C6H11C6H4C6H4C4HCH4C6H15C2HSH3FeH2CSCHC2HCH3CHCH3C3HCHCHC2NH2NCNC4H2CH3C2H3N2C4H11C3H2C2H8NHC2NCHCH4C2H7NHCH6C2H2SCFeS2FeH2FeHSNS2CFeSHFeSHFeSFeS3FeS2FeS2Fe2S3FeS2FeS2FeSFeS3HCHCH2FeHC6H4C3HC4NHC7H4C7H6NC6H4S2H6C2H6C2H2NC4H12CNC3HC3HCHCH2CHCNHC2H2NH3C2HCHCHCH3CHCH6SH4CH6NH2CH5CH3C2H6NC4H6NHCH4CH3SCHCHSHCH12SFeSFeSHFe2S2FeS2FeS2FeSFeS3FeS2FeSFeSFeS4C2SH2FeHC3HC2H2C3HNH3C4H3C6H4C6H4C6H4CH3C7H4CHCH4SC3HCH2CSCHNH6C2HCNC4H12SH4CH3CHCH3CHNC4H13CH3CHNC2HFeHCHC3H11SH5NSNHCH2SH3CH4CH2CH2SCFeS2FeS2FeSFeS3HCHSHFeS2FeSFeS2HSHCHFeSHFeS2FeS2FeSFeS3HC2H3C6H4C6H7C3FeH2C6H4C2H3CHCH2C6H4C2NC4H3C6H9SC2HCNHSHCH2C2H4C2H4SHCH8CHCHC2HNCSHCH3FeCH5CNHSHC3NC4H14C2HNH2SH3CNHC3H3C2HC2SH9CH2NH3CNSH3FeH4C2HFeS2NSFeHFeS2FeS2FeS2FeSFeS3FeS2FeCFe2S2HFeS2FeHSFeHFeHS2HC2HCHCH2CHC2H2S2C2HSC3H4CHC6H4C6H5SC3HCH2SC6H4NC4H12NC4H15CH2CH2CH2CNC4H14NSH3C2H2C3HCFeNC4H21C2H2SHCH2NH5NSH2FeS2CSFeSFeS2CHCFeS2FeSHSC3SFeS2FeSFeS3FeS2FeS2FeSFeS3CFeSHNFeS2C6H4C6H4C4H3SC2H2C6H7CH3C2S2H2C6H4CHFeHC2H3CFeC4HCH2C6H6NC4H12NHCHSCNCH4CHC2HNC4H12NC4H13CH10C2NH3C2H2CNCHNH4NHCSCHCHNCH6CHCH4FeCSH3C2FeH2SH2FeH3C2HFeH2SH2CH2CHCH7CSH3CHCSH2CH3CFeS2FeS2FeSFeS3NFeS2C2HCFeSH2FeS2FeH3FeS2H3SH2C2H2SCHSHCH3NH2SCH4C2H2CHSC6H5C7H4C5H2C6H4C6HCHNC4H14SH3Fe2H2CNH3SHC3S2CH2FeCHC3H4CNC4H13CH3CHCNHSH2SHSCNCHFeCHCH2SHCH3CH2CHC5H3CH7FeCH10CH4FeS2FeSH2SC2FeS2FeSHFeSFeS3CSH2FeSHSHSHC7H4C6H4C3H2NCFeC6H6FeC4NH2C2H3SHCH6NH2CHNCH2CSCHSH2CHNC4H3SH2SH2CH3CH6NH6NCNC4H12FeCH3CHCHSH9FeC2H4C2HC2H2CHCH2CH3NSHC2HFeSFeS2FeSFeS4HCFeS2FeS2FeSFeS3HSHFeS2FeSFe2S3FeSHFeS2FeSFeS3NHSHC6H4FeHCH2C6H4C6H6CH2CHC6H4C5FeH3SHSH2CH3NC6H4C2HC2H3CH8SHC2H2NSCFeHC3H3C2NC2H3CH3CHNC4H12CH5NC4H12FeCHCHCFeHCHCH4NC4H10C2HNCHCH2C2H2SHCH4CHC3S2H3C4H3NH5C2SH4SC2HC4SC2H2CSHCFeS2FeSFeS2FeS3CFeSFeS4FeH2FeS2FeSHSFeHSFeS2FeSCS2FeCSFeS2C2SFeS2FeS2C6H4C2HCNCH2CHC3H3C6H5C7H4CFeHSC6H4C4H2C6H4C6H3CSH2SH2CH3CH4NC4H12NC4H12NHC3NFeH2N2H5CHCHFeH3CSFeHNC4HFeH7CH5SH2CH3SH7SNH6CHSH2SCHCSH2SH2CH6SH2C2H3CHCH3C2HC3HFeHSFeS2HFeHS3CFeS2FeS2FeSFeS3H2C2S2C6H4C7H3C6H4C6H5C3H3CH3C5H2CFeC5H4SHCHSNH4FeNC4H12C2H3CHC2HFeCH2NHNH8CSH2CHS2H2CH3C2HCH4C2NC4H11CSHCH7SC2H2CHCH2CHCH6C3H3FeSFeS2FeSFeS3H2FeS2FeS2Fe2S3HFeS3H3FeS4H2NHC4HNH2C7H3C6H5CHC7H4CH2CHC6H6NC4H16CHNH2C3HSHNC4H13SHCH2CH3CNH3C2SH3CH3FeC2H3CHCH4CH7CH3C2H4NH3C2FeSFeS2HS2FeSCFe2H2SHFeS2FeS2FeSFeS4FeSHSHFeS2FeS2FeSH2SH3SH4CHC6H4C4H3C2H2C6H4C6H7C2HSH3C2HCH2CSHCH2CSH2C6H4C3FeNH2CNHC6H5NC4H2NH6CFeHFeH2CH2SCSFeNSHFeH2CNC4H12C3H6SC4HFeHCH3CH2CHCH4C2H4CH7CHFeH2CSH2C2NSH4CH2SHSFeH2CHCSFeS2FeS2FeSFeS3FeHS2H2FeS2FeS2FeSFeS4FeS2FeS2FeSFeS3H2C2H2C2H4CH5CHCHC8H4C6H4C6H4C6H4CHCHC2H2C5H10SCH3CNH2CH4NHC4HN2C4H13C4H2NC2H6FeCH2C2H4C4H3CH8CH6C3H2CH3CHCHNCH8CH2CHCH3NSFeS2FeSFeHFeS2NHFeS2FeSFeCFeCS2FeSFeS2FeNFeS2HFeS2FeS2FeSFeS3CHC3H4C7H4C6H4CH2C4SH5C2H3C6H5CNC4H13C2H4CNH2C2H5C2SHCHCH3C2H3SH5C3H3CSH4C3HCH2SNCH10CH2SCSCH3NCH2SH3CHNCHCHCFeS2HFeSCSH2FeS2FeS2FeSFeS3H3CHCSHFeS2FeS2FeSFeS2FeS2FeNH2FeCS2H3C2H3CHCNC5H3C3H2C5H4CHSHC2H4C6H4C6H4CH2NHCH4C6H4C3H2NHCFeH2CH4SH3C2HSHNC4H14NC4HSH12NH3FeH5CH4SCHSH2CH2NCHCH2CSC3H5FeHSH5C3HC2HC2H4FeS2FeS2FeSFeS3CSH2CSHNHSHFeSHFeSFeSFeS2FeS2FeS2FeSFeS3HC6H4C4NC6H4SH2C3H2C6H4C2HC3H7C6H4C4HCH6CH3CNC4H3CH9C2H2CH6CH6CH3C4H3CHCSHSH2CHSHNHC2H8CFeH3CHCH2C3HSCHCHSC2FeHNH5CSNC2H4NH2CH3CH6C2H2C2SHSCHSHSFeHFeH3NHFeS2FeS2FeSFeS3C3SC2SHS2HSFeH7C6H4C6H4C4HCH4CSFeC2HC6H4CH3C2HCH2CFeCNCNCH2SH4SH2CSH2CHSHCHSHFeSH3CH2NH2FeHCHCSNHCHCHC2H2CH3CH4CHCNH3SCH3CHCHCH11CH2CHC2H6SHCHSH2CFeS2FeS2FeSFeS3FeSCFeSHFeSHSFeS2FeSFeSFeS3FeS2FeS2FeHFeS5HFeS2C3HC2H3C6HSH5CNC6H4C6H4C6H4C3H2CSH8C6H4SFeH3C4H4CH2CH2C2H2NH3FeC2NC4H12SH4C2HCHCH3C2H4NHNC4H12NCHC2H7NH2NC2H9C2H2SNHCH4SFeCH2C3H4FeH2CHCH6CH2SH2C2H3NCHCHCHCFeC3H2CHCNH2C2FeS2FeS2FeSFeS3FeS2FeS2FeSFeS3FeSFeS2FeSFeS3FeS2HFeS2HFeS2FeS2FeHFeS3HSC2HCH2C6H4C6H6CH2C2FeHC3H2C6H4C6H3NHCHC8H4CNC2H2C9H6CH2CH3SCH6NC4H12NC4H19CHSFeC2HCHCH8CH3CH5CHNH2C6HCH10C6H2CHCHCHCNC2H4NHCH5CHSH5CHCH2N2CH2CFe2S2FeS2FeS2FeSFeS3H2SH4FeSHSHS2HFeSHSHCH3SFeS2H3CHSHC9H7SH6C6H4C6NH2C6H5C6H4CHFeH8FeSCH2C2H2C2HSHNHC2HCH4NH2NC4H11NC4H2CH2CH8CH2CNH2CH2CH3C2H5CHCSHCFeH2NH4C2H2CHSHC2SHC3H2
_chemical_formula_sum              "H3072 Fe384 S768 C1920 N192"
_cell_length_a       60.7974
_cell_length_b       61.3447
_cell_length_c       96.1839
_cell_angle_alpha    79.1713
_cell_angle_beta     79.3447
_cell_angle_gamma    79.5521

_space_group_name_H-M_alt    "P 1"
_space_group_IT_number       1

loop_
  _space_group_symop_operation_xyz
  'x, y, z'

loop_
  _atom_site_type_symbol
  _atom_site_label
  _atom_site_symmetry_multiplicity
  _atom_site_fract_x
  _atom_site_fract_y
  _atom_site_fract_z
  _atom_site_occupancy
  H   H1        1.0  0.15739  0.21073  0.15339  1.0000
  Fe  Fe1       1.0  0.32016  0.12134  0.17318  1.0000
  S   S1        1.0  0.30595  0.09178  0.18716  1.0000
  S   S2        1.0  0.29987  0.15490  0.16573  1.0000
  Fe  Fe2       1.0  0.36925  0.09956  0.17368  1.0000
  S   S3        1.0  0.35844  0.06861  0.18790  1.0000
  S   S4        1.0  0.40729  0.09952  0.16791  1.0000
  Fe  Fe3       1.0  0.33255  0.07075  0.17341  1.0000
  S   S5        1.0  0.33260  0.03754  0.16553  1.0000
  Fe  Fe4       1.0  0.33309  0.09223  0.20021  1.0000
  S   S6        1.0  0.34500  0.10057  0.15845  1.0000
  S   S7        1.0  0.34572  0.12291  0.18704  1.0000
  Fe  Fe5       1.0  0.18189  0.21694  0.19147  1.0000
  S   S8        1.0  0.14442  0.22451  0.19911  1.0000
  S   S9        1.0  0.19785  0.18042  0.19402  1.0000
  Fe  Fe6       1.0  0.18583  0.26613  0.18074  1.0000
  S   S10       1.0  0.14886  0.27735  0.18750  1.0000
  H   H2        1.0  0.39786  0.30814  0.12284  1.0000
  C   C1        1.0  0.45880  0.14020  0.12120  1.0000
  Fe  Fe7       1.0  0.14342  0.24797  0.17817  1.0000
  S   S11       1.0  0.11977  0.25296  0.16157  1.0000
  S   S12       1.0  0.19099  0.24357  0.20159  1.0000
  S   S13       1.0  0.18036  0.23850  0.17001  1.0000
  H   H3        1.0  0.06224  0.26731  0.12122  1.0000
  Fe  Fe8       1.0  0.04682  0.18160  0.13268  1.0000
  S   S14       1.0  0.02604  0.21440  0.12505  1.0000
  S   S15       1.0  0.06955  0.17708  0.14975  1.0000
  Fe  Fe9       1.0  0.02897  0.15625  0.11292  1.0000
  C   C2        1.0  0.29070  0.13973  0.20751  1.0000
  S   S16       1.0  0.03062  0.12226  0.10612  1.0000
  Fe  Fe10      1.0  0.03721  0.20463  0.10317  1.0000
  S   S17       1.0  0.05355  0.22523  0.08324  1.0000
  N   N1        1.0  0.06887  0.30132  0.11417  1.0000
  S   S18       1.0  0.05974  0.17296  0.11063  1.0000
  H   H4        1.0  0.44669  0.10768  0.20134  1.0000
  S   S19       1.0  0.02701  0.00247  0.03668  1.0000
  H   H5        1.0  0.28459  0.05093  0.16189  1.0000
  H   H6        1.0  0.13936  0.19344  0.14932  1.0000
  H   H7        1.0  0.20146  0.17669  0.14732  1.0000
  H   H8        1.0  0.03546  0.31101  0.10853  1.0000
  H   H9        1.0  0.24758  0.17446  0.22370  1.0000
  S   S20       1.0  0.45063  0.18952  0.15187  1.0000
  H   H10       1.0  0.31653  0.98578  0.13666  1.0000
  H   H11       1.0  0.03939  0.18332  0.07874  1.0000
  C   C3        1.0  0.19201  0.17661  0.15839  1.0000
  C   C4        1.0  0.15732  0.19462  0.14963  1.0000
  Fe  Fe11      1.0  0.15352  0.25294  0.20778  1.0000
  C   C5        1.0  0.04475  0.31100  0.11747  1.0000
  H   H12       1.0  0.15683  0.19102  0.17781  1.0000
  H   H13       1.0  0.39956  0.12512  0.19177  1.0000
  H   H14       1.0  0.46010  0.10529  0.10768  1.0000
  H   H15       1.0  0.41474  0.13789  0.20157  1.0000
  S   S21       1.0  0.01812  0.16144  0.13589  1.0000
  H   H16       1.0  0.16412  0.16118  0.18150  1.0000
  S   S22       1.0  0.32574  0.08770  0.22461  1.0000
  C   C6        1.0  0.02184  0.28762  0.08925  1.0000
  C   C7        1.0  0.02725  0.26416  0.09045  1.0000
  C   C8        1.0  0.04644  0.25457  0.08197  1.0000
  C   C9        1.0  0.06026  0.26852  0.07235  1.0000
  C   C10       1.0  0.05508  0.29200  0.07135  1.0000
  H   H17       1.0  0.30924  0.15832  0.22479  1.0000
  H   H18       1.0  0.01641  0.25353  0.09782  1.0000
  H   H19       1.0  0.07509  0.26117  0.06573  1.0000
  H   H20       1.0  0.00460  0.15203  0.08541  1.0000
  C   C11       1.0  0.46476  0.29718  0.97781  1.0000
  H   H21       1.0  0.10054  0.16870  0.06510  1.0000
  C   C12       1.0  0.99869  0.02486  0.00039  1.0000
  H   H22       1.0  0.29678  0.17987  0.21190  1.0000
  C   C13       1.0  0.08251  0.19883  0.15314  1.0000
  C   C14       1.0  0.08370  0.21896  0.14356  1.0000
  C   C15       1.0  0.09502  0.23542  0.14635  1.0000
  C   C16       1.0  0.10514  0.23203  0.15876  1.0000
  C   C17       1.0  0.10365  0.21209  0.16846  1.0000
  C   C18       1.0  0.09255  0.19550  0.16559  1.0000
  H   H23       1.0  0.07612  0.22166  0.13393  1.0000
  H   H24       1.0  0.09615  0.25075  0.13879  1.0000
  H   H25       1.0  0.11094  0.20950  0.17819  1.0000
  H   H26       1.0  0.09151  0.18008  0.17312  1.0000
  C   C19       1.0  0.27119  0.16162  0.17312  1.0000
  C   C20       1.0  0.25846  0.14497  0.18045  1.0000
  C   C21       1.0  0.23585  0.15093  0.18665  1.0000
  C   C22       1.0  0.22592  0.17356  0.18565  1.0000
  C   C23       1.0  0.23850  0.19021  0.17814  1.0000
  C   C24       1.0  0.26107  0.18422  0.17186  1.0000
  H   H27       1.0  0.26597  0.12749  0.18123  1.0000
  N   N2        1.0  0.06570  0.16687  0.06446  1.0000
  H   H28       1.0  0.23095  0.20771  0.17726  1.0000
  H   H29       1.0  0.27082  0.19717  0.16612  1.0000
  C   C25       1.0  0.41902  0.12471  0.16329  1.0000
  C   C26       1.0  0.44263  0.12364  0.16161  1.0000
  C   C27       1.0  0.45257  0.14338  0.15809  1.0000
  C   C28       1.0  0.43891  0.16434  0.15629  1.0000
  C   C29       1.0  0.41529  0.16540  0.15820  1.0000
  C   C30       1.0  0.40536  0.14566  0.16164  1.0000
  H   H30       1.0  0.45324  0.10746  0.16311  1.0000
  H   H31       1.0  0.47074  0.14246  0.15692  1.0000
  H   H32       1.0  0.40462  0.18158  0.15689  1.0000
  H   H33       1.0  0.38715  0.14670  0.16295  1.0000
  C   C31       1.0  0.25700  0.16462  0.21528  1.0000
  H   H34       1.0  0.25984  0.17659  0.20509  1.0000
  H   H35       1.0  0.18351  0.30658  0.19651  1.0000
  H   H36       1.0  0.08320  0.19545  0.06083  1.0000
  C   C32       1.0  0.47380  0.26008  0.10852  1.0000
  C   C33       1.0  0.45475  0.27690  0.10814  1.0000
  H   H37       1.0  0.48360  0.13497  0.09558  1.0000
  H   H38       1.0  0.47368  0.24573  0.11699  1.0000
  H   H39       1.0  0.44010  0.27538  0.11636  1.0000
  H   H40       1.0  0.34096  0.00212  0.14873  1.0000
  C   C34       1.0  0.27760  0.02696  0.14993  1.0000
  C   C35       1.0  0.29162  0.03674  0.15642  1.0000
  C   C36       1.0  0.31452  0.02771  0.15620  1.0000
  C   C37       1.0  0.32325  0.00916  0.14907  1.0000
  H   H41       1.0  0.25981  0.03378  0.15047  1.0000
  C   C38       1.0  0.07025  0.16364  0.04929  1.0000
  H   H42       1.0  0.08046  0.18084  0.07880  1.0000
  H   H43       1.0  0.06230  0.27720  0.10247  1.0000
  H   H44       1.0  0.17439  0.15356  0.14309  1.0000
  H   H45       1.0  0.42515  0.11657  0.22507  1.0000
  N   N3        1.0  0.47832  0.12252  0.11824  1.0000
  H   H46       1.0  0.38662  0.13232  0.20887  1.0000
  C   C39       1.0  0.00461  0.13486  0.08422  1.0000
  N   N4        1.0  0.41218  0.10306  0.20967  1.0000
  H   H47       1.0  0.39517  0.08557  0.19850  1.0000
  C   C40       1.0  0.45457  0.29555  0.09717  1.0000
  C   C41       1.0  0.01567  0.09502  0.09131  1.0000
  H   H48       1.0  0.02952  0.17268  0.06522  1.0000
  H   H49       1.0  0.20042  0.16218  0.16543  1.0000
  H   H50       1.0  0.19427  0.30187  0.21311  1.0000
  H   H51       1.0  0.44686  0.13443  0.13089  1.0000
  C   C42       1.0  0.00682  0.98545  0.00975  1.0000
  H   H52       1.0  0.28052  0.12778  0.20529  1.0000
  S   S23       1.0  0.00731  0.18732  0.10398  1.0000
  H   H53       1.0  0.09869  0.29418  0.12428  1.0000
  C   C43       1.0  0.49151  0.11736  0.13023  1.0000
  H   H54       1.0  0.04267  0.19772  0.06075  1.0000
  C   C44       1.0  0.43474  0.09574  0.20170  1.0000
  H   H55       1.0  0.08252  0.13387  0.07201  1.0000
  H   H56       1.0  0.47359  0.31151  0.07801  1.0000
  C   C45       1.0  0.07059  0.27793  0.11172  1.0000
  H   H57       1.0  0.99734  0.98803  0.02054  1.0000
  H   H58       1.0  0.38203  0.30814  0.10894  1.0000
  H   H59       1.0  0.05271  0.13561  0.07199  1.0000
  C   C46       1.0  0.39689  0.08687  0.20962  1.0000
  H   H60       1.0  0.16821  0.29256  0.21232  1.0000
  H   H61       1.0  0.02476  0.98710  0.00981  1.0000
  H   H62       1.0  0.48184  0.29051  0.98077  1.0000
  Fe  Fe12      1.0  0.99462  0.02480  0.04409  1.0000
  H   H63       1.0  0.46428  0.15559  0.12315  1.0000
  H   H64       1.0  0.48432  0.08830  0.11455  1.0000
  H   H65       1.0  0.45285  0.28579  0.98407  1.0000
  H   H66       1.0  0.37958  0.09191  0.21533  1.0000
  H   H67       1.0  0.45879  0.09568  0.12661  1.0000
  C   C47       1.0  0.47002  0.10203  0.11670  1.0000
  C   C48       1.0  0.99307  0.13023  0.07394  1.0000
  H   H68       1.0  0.00685  0.29496  0.09576  1.0000
  S   S24       1.0  0.26727  0.99505  0.13636  1.0000
  H   H69       1.0  0.34809  0.12744  0.21689  1.0000
  H   H70       1.0  0.47238  0.31456  0.99971  1.0000
  C   C49       1.0  0.17848  0.30635  0.20825  1.0000
  H   H71       1.0  0.14766  0.15255  0.15469  1.0000
  H   H72       1.0  0.07273  0.29151  0.13638  1.0000
  C   C50       1.0  0.28628  0.00823  0.14296  1.0000
  H   H73       1.0  0.07017  0.18002  0.04195  1.0000
  H   H74       1.0  0.06236  0.14663  0.08537  1.0000
  H   H75       1.0  0.16638  0.19580  0.13842  1.0000
  C   C51       1.0  0.38036  0.31108  0.12020  1.0000
  C   C52       1.0  0.16575  0.15416  0.15430  1.0000
  H   H76       1.0  0.44232  0.07882  0.20663  1.0000
  H   H77       1.0  0.17345  0.13914  0.16123  1.0000
  H   H78       1.0  0.29468  0.15148  0.19737  1.0000
  H   H79       1.0  0.05719  0.15498  0.04679  1.0000
  C   C53       1.0  0.41429  0.10401  0.22461  1.0000
  C   C54       1.0  0.30936  0.99973  0.14230  1.0000
  H   H80       1.0  0.22609  0.13796  0.19233  1.0000
  C   C55       1.0  0.03581  0.30159  0.07979  1.0000
  H   H81       1.0  0.13798  0.17340  0.17501  1.0000
  C   C56       1.0  0.29283  0.16748  0.22173  1.0000
  H   H82       1.0  0.19417  0.19213  0.16208  1.0000
  Fe  Fe13      1.0  0.48774  0.19014  0.14291  1.0000
  C   C57       1.0  0.15613  0.17517  0.17398  1.0000
  S   S25       1.0  0.21122  0.28920  0.17001  1.0000
  C   C58       1.0  0.04330  0.18070  0.06737  1.0000
  N   N5        1.0  0.27861  0.15185  0.21925  1.0000
  C   C59       1.0  0.47355  0.29724  0.08653  1.0000
  N   N6        1.0  0.16781  0.17515  0.15907  1.0000
  H   H83       1.0  0.02447  0.08126  0.09799  1.0000
  C   C60       1.0  0.40289  0.12557  0.20269  1.0000
  C   C61       1.0  0.08332  0.17840  0.06738  1.0000
  C   C62       1.0  0.00387  0.09038  0.08113  1.0000
  H   H84       1.0  0.06590  0.30267  0.06400  1.0000
  H   H85       1.0  0.40325  0.06974  0.21490  1.0000
  C   C63       1.0  0.01597  0.11725  0.09297  1.0000
  C   C64       1.0  0.06586  0.14479  0.07383  1.0000
  H   H86       1.0  0.30697  0.12983  0.21020  1.0000
  H   H87       1.0  0.44295  0.31138  0.00266  1.0000
  H   H88       1.0  0.08703  0.15325  0.04670  1.0000
  H   H89       1.0  0.46758  0.98837  0.07972  1.0000
  H   H90       1.0  0.24569  0.15325  0.21364  1.0000
  H   H91       1.0  0.09780  0.30812  0.09823  1.0000
  C   C65       1.0  0.08048  0.30152  0.12636  1.0000
  H   H92       1.0  0.43365  0.09473  0.19042  1.0000
  C   C66       1.0  0.49261  0.28039  0.08690  1.0000
  C   C67       1.0  0.00984  0.99779  0.98419  1.0000
  H   H93       1.0  0.37107  0.29804  0.12726  1.0000
  H   H94       1.0  0.00993  0.98569  0.06629  1.0000
  H   H95       1.0  0.00356  0.07319  0.08006  1.0000
  N   N7        1.0  0.99712  0.00194  0.99834  1.0000
  H   H96       1.0  0.07120  0.31503  0.09175  1.0000
  H   H97       1.0  0.08853  0.26996  0.10935  1.0000
  Fe  Fe14      1.0  0.99818  0.19369  0.12676  1.0000
  H   H98       1.0  0.48133  0.11048  0.14040  1.0000
  H   H99       1.0  0.44901  0.14521  0.11211  1.0000
  H   H100      1.0  0.03604  0.30128  0.12724  1.0000
  H   H101      1.0  0.01653  0.02715  0.00011  1.0000
  C   C68       1.0  0.07960  0.31485  0.10113  1.0000
  H   H102      1.0  0.02807  0.99919  0.98335  1.0000
  S   S26       1.0  0.43053  0.31656  0.09730  1.0000
  H   H103      1.0  0.16669  0.31637  0.17257  1.0000
  Fe  Fe15      1.0  0.09249  0.04282  0.42300  1.0000
  S   S27       1.0  0.12310  0.02194  0.43132  1.0000
  S   S28       1.0  0.09455  0.07927  0.41378  1.0000
  H   H104      1.0  0.26374  0.12314  0.23082  1.0000
  C   C69       1.0  0.35534  0.13422  0.23670  1.0000
  H   H105      1.0  0.01293  0.21250  0.28312  1.0000
  H   H106      1.0  0.00768  0.18467  0.28279  1.0000
  H   H107      1.0  0.01854  0.15931  0.39475  1.0000
  S   S29       1.0  0.06766  0.02977  0.44167  1.0000
  S   S30       1.0  0.08903  0.01817  0.40939  1.0000
  Fe  Fe16      1.0  0.45741  0.00109  0.43847  1.0000
  S   S31       1.0  0.41947  0.00745  0.44316  1.0000
  Fe  Fe17      1.0  0.46037  0.05000  0.42567  1.0000
  S   S32       1.0  0.42271  0.06020  0.42983  1.0000
  C   C70       1.0  0.29876  0.00098  0.41133  1.0000
  Fe  Fe18      1.0  0.42460  0.03800  0.45116  1.0000
  Fe  Fe19      1.0  0.42138  0.02866  0.42140  1.0000
  C   C71       1.0  0.37399  0.01065  0.39144  1.0000
  S   S33       1.0  0.46237  0.03037  0.44771  1.0000
  S   S34       1.0  0.45917  0.01974  0.41594  1.0000
  Fe  Fe20      1.0  0.37368  0.15111  0.31208  1.0000
  S   S35       1.0  0.33815  0.15980  0.32305  1.0000
  S   S36       1.0  0.40010  0.14724  0.32677  1.0000
  Fe  Fe21      1.0  0.35663  0.14459  0.28491  1.0000
  S   S37       1.0  0.31995  0.15255  0.29437  1.0000
  S   S38       1.0  0.36756  0.14127  0.26134  1.0000
  Fe  Fe22      1.0  0.33101  0.18048  0.30219  1.0000
  S   S39       1.0  0.31462  0.21688  0.29951  1.0000
  Fe  Fe23      1.0  0.33069  0.13086  0.31438  1.0000
  S   S40       1.0  0.31051  0.10807  0.33113  1.0000
  S   S41       1.0  0.36724  0.17400  0.29165  1.0000
  S   S42       1.0  0.36666  0.12077  0.30448  1.0000
  H   H108      1.0  0.01873  0.18251  0.40361  1.0000
  H   H109      1.0  0.02954  0.18855  0.29200  1.0000
  S   S43       1.0  0.30687  0.99332  0.37547  1.0000
  S   S44       1.0  0.32371  0.00261  0.33285  1.0000
  H   H110      1.0  0.17373  0.04718  0.36937  1.0000
  H   H111      1.0  0.01183  0.26429  0.36905  1.0000
  S   S45       1.0  0.48859  0.18867  0.36400  1.0000
  Fe  Fe24      1.0  0.46970  0.22153  0.35489  1.0000
  C   C72       1.0  0.34646  0.12240  0.22836  1.0000
  S   S46       1.0  0.45205  0.22400  0.33556  1.0000
  S   S47       1.0  0.01159  0.17503  0.34414  1.0000
  S   S48       1.0  0.40011  0.03061  0.40402  1.0000
  C   C73       1.0  0.00966  0.16038  0.43047  1.0000
  S   S49       1.0  0.45434  0.23201  0.37620  1.0000
  N   N8        1.0  0.00549  0.15419  0.41717  1.0000
  S   S50       1.0  0.16858  0.26967  0.31307  1.0000
  Fe  Fe25      1.0  0.14487  0.29468  0.32511  1.0000
  S   S51       1.0  0.11113  0.28747  0.33844  1.0000
  Fe  Fe26      1.0  0.19527  0.27745  0.32391  1.0000
  S   S52       1.0  0.21795  0.24708  0.33371  1.0000
  N   N9        1.0  0.29127  0.98626  0.42475  1.0000
  H   H112      1.0  0.48955  0.98531  0.47117  1.0000
  H   H113      1.0  0.29926  0.99005  0.30963  1.0000
  Fe  Fe27      1.0  0.17669  0.29919  0.29635  1.0000
  Fe  Fe28      1.0  0.02786  0.20414  0.34629  1.0000
  S   S53       1.0  0.05360  0.21721  0.32791  1.0000
  S   S54       1.0  0.03280  0.19081  0.36908  1.0000
  C   C74       1.0  0.17288  0.28420  0.26176  1.0000
  C   C75       1.0  0.14976  0.28276  0.26489  1.0000
  C   C76       1.0  0.13920  0.27524  0.25517  1.0000
  C   C77       1.0  0.15170  0.26869  0.24239  1.0000
  C   C78       1.0  0.17508  0.26897  0.23967  1.0000
  C   C79       1.0  0.18551  0.27706  0.24918  1.0000
  S   S55       1.0  0.20517  0.30547  0.30651  1.0000
  H   H114      1.0  0.12112  0.27500  0.25741  1.0000
  C   C80       1.0  0.00244  0.21090  0.31162  1.0000
  C   C81       1.0  0.09791  0.26573  0.33545  1.0000
  C   C82       1.0  0.08497  0.25394  0.34709  1.0000
  C   C83       1.0  0.07189  0.23852  0.34492  1.0000
  C   C84       1.0  0.07146  0.23495  0.33105  1.0000
  C   C85       1.0  0.08501  0.24613  0.31944  1.0000
  C   C86       1.0  0.09826  0.26144  0.32163  1.0000
  H   H115      1.0  0.08509  0.25676  0.35784  1.0000
  H   H116      1.0  0.06202  0.22951  0.35396  1.0000
  H   H117      1.0  0.08491  0.24332  0.30868  1.0000
  H   H118      1.0  0.10810  0.27050  0.31258  1.0000
  C   C87       1.0  0.28846  0.22515  0.30983  1.0000
  C   C88       1.0  0.27711  0.20960  0.31978  1.0000
  C   C89       1.0  0.25580  0.21670  0.32746  1.0000
  C   C90       1.0  0.24565  0.23925  0.32507  1.0000
  C   C91       1.0  0.25735  0.25488  0.31545  1.0000
  C   C92       1.0  0.27871  0.24783  0.30786  1.0000
  H   H119      1.0  0.28459  0.19208  0.32143  1.0000
  H   H120      1.0  0.24686  0.20458  0.33500  1.0000
  H   H121      1.0  0.24977  0.27236  0.31372  1.0000
  H   H122      1.0  0.28753  0.25995  0.30024  1.0000
  H   H123      1.0  0.48696  0.09015  0.44923  1.0000
  H   H124      1.0  0.02714  0.12213  0.41922  1.0000
  H   H125      1.0  0.02733  0.15378  0.43243  1.0000
  C   C93       1.0  0.35335  0.12788  0.25164  1.0000
  C   C94       1.0  0.34168  0.11004  0.25824  1.0000
  C   C95       1.0  0.33301  0.09806  0.24986  1.0000
  H   H126      1.0  0.30251  0.01704  0.41344  1.0000
  H   H127      1.0  0.45702  0.98667  0.39452  1.0000
  H   H128      1.0  0.34006  0.10497  0.26974  1.0000
  H   H129      1.0  0.32456  0.08389  0.25501  1.0000
  C   C96       1.0  0.41491  0.16854  0.32887  1.0000
  C   C97       1.0  0.41860  0.18681  0.31804  1.0000
  C   C98       1.0  0.42998  0.20365  0.32025  1.0000
  C   C99       1.0  0.43817  0.20221  0.33319  1.0000
  C   C100      1.0  0.43499  0.18366  0.34389  1.0000
  C   C101      1.0  0.42344  0.16691  0.34172  1.0000
  H   H130      1.0  0.41284  0.18786  0.30791  1.0000
  H   H131      1.0  0.43260  0.21780  0.31185  1.0000
  H   H132      1.0  0.44119  0.18233  0.35391  1.0000
  H   H133      1.0  0.42094  0.15273  0.35011  1.0000
  C   C102      1.0  0.31425  0.07890  0.33113  1.0000
  C   C103      1.0  0.30342  0.06535  0.34285  1.0000
  C   C104      1.0  0.30636  0.04197  0.34348  1.0000
  C   C105      1.0  0.32007  0.03195  0.33233  1.0000
  C   C106      1.0  0.33087  0.04549  0.32056  1.0000
  C   C107      1.0  0.32804  0.06893  0.31997  1.0000
  H   H134      1.0  0.29266  0.07299  0.35149  1.0000
  H   H135      1.0  0.29769  0.03177  0.35249  1.0000
  H   H136      1.0  0.34142  0.03786  0.31186  1.0000
  H   H137      1.0  0.33638  0.07927  0.31086  1.0000
  C   C108      1.0  0.47717  0.10185  0.41043  1.0000
  H   H138      1.0  0.03920  0.15753  0.40618  1.0000
  H   H139      1.0  0.48628  0.10599  0.46330  1.0000
  H   H140      1.0  0.01207  0.16580  0.31395  1.0000
  H   H141      1.0  0.44147  0.10026  0.41606  1.0000
  S   S56       1.0  0.24608  0.99617  0.39470  1.0000
  C   C109      1.0  0.00921  0.12945  0.41827  1.0000
  N   N10       1.0  0.99564  0.19653  0.30292  1.0000
  H   H142      1.0  0.47127  0.12479  0.43482  1.0000
  C   C110      1.0  0.46001  0.12984  0.44457  1.0000
  H   H143      1.0  0.43003  0.14152  0.41152  1.0000
  H   H144      1.0  0.28557  0.00523  0.40421  1.0000
  C   C111      1.0  0.44774  0.13442  0.40957  1.0000
  N   N11       1.0  0.45479  0.11000  0.45527  1.0000
  H   H145      1.0  0.35431  0.99472  0.38090  1.0000
  C   C112      1.0  0.20216  0.99874  0.40819  1.0000
  C   C113      1.0  0.27013  0.99765  0.43228  1.0000
  H   H146      1.0  0.02666  0.08273  0.39231  1.0000
  S   S57       1.0  0.99479  0.22605  0.35194  1.0000
  H   H147      1.0  0.25641  0.00138  0.42552  1.0000
  H   H148      1.0  0.29004  0.12561  0.23573  1.0000
  H   H149      1.0  0.14980  0.31451  0.23250  1.0000
  H   H150      1.0  0.37457  0.02520  0.38313  1.0000
  Fe  Fe29      1.0  0.06666  0.00307  0.42871  1.0000
  H   H151      1.0  0.04171  0.26074  0.36897  1.0000
  H   H152      1.0  0.39749  0.10883  0.23105  1.0000
  C   C114      1.0  0.04057  0.11369  0.38610  1.0000
  C   C115      1.0  0.05795  0.12503  0.38731  1.0000
  C   C116      1.0  0.07452  0.11436  0.39583  1.0000
  C   C117      1.0  0.07385  0.09230  0.40304  1.0000
  C   C118      1.0  0.05665  0.08092  0.40166  1.0000
  C   C119      1.0  0.04008  0.09159  0.39321  1.0000
  H   H153      1.0  0.05860  0.14199  0.38171  1.0000
  H   H154      1.0  0.08788  0.12320  0.39683  1.0000
  H   H155      1.0  0.05592  0.06394  0.40722  1.0000
  C   C120      1.0  0.17970  0.99450  0.41050  1.0000
  H   H156      1.0  0.42176  0.08744  0.23010  1.0000
  N   N12       1.0  0.15444  0.05731  0.38884  1.0000
  C   C121      1.0  0.13754  0.04229  0.38995  1.0000
  C   C122      1.0  0.15830  0.05875  0.40335  1.0000
  C   C123      1.0  0.14585  0.07995  0.38166  1.0000
  C   C124      1.0  0.17595  0.04825  0.38044  1.0000
  H   H157      1.0  0.13464  0.04022  0.37922  1.0000
  H   H158      1.0  0.12092  0.04904  0.39582  1.0000
  H   H159      1.0  0.14299  0.02528  0.39579  1.0000
  H   H160      1.0  0.17079  0.07013  0.40295  1.0000
  H   H161      1.0  0.14234  0.06527  0.41004  1.0000
  H   H162      1.0  0.16480  0.04200  0.40909  1.0000
  H   H163      1.0  0.12965  0.08720  0.38785  1.0000
  H   H164      1.0  0.14242  0.07949  0.37076  1.0000
  H   H165      1.0  0.15816  0.09179  0.38058  1.0000
  H   H166      1.0  0.18258  0.03099  0.38547  1.0000
  H   H167      1.0  0.18929  0.05890  0.37960  1.0000
  Fe  Fe30      1.0  0.48583  0.24718  0.37534  1.0000
  H   H168      1.0  0.27262  0.01386  0.43491  1.0000
  H   H169      1.0  0.06493  0.03060  0.47189  1.0000
  H   H170      1.0  0.99824  0.12145  0.42771  1.0000
  C   C125      1.0  0.47620  0.09624  0.45888  1.0000
  C   C126      1.0  0.33581  0.10387  0.23486  1.0000
  C   C127      1.0  0.02196  0.30010  0.37739  1.0000
  S   S58       1.0  0.13717  0.26232  0.22960  1.0000
  S   S59       1.0  0.18653  0.29632  0.27250  1.0000
  H   H171      1.0  0.13982  0.28825  0.27451  1.0000
  H   H172      1.0  0.46882  0.14087  0.44890  1.0000
  Fe  Fe31      1.0  0.01342  0.16371  0.36750  1.0000
  H   H173      1.0  0.03074  0.26576  0.35234  1.0000
  S   S60       1.0  0.48613  0.07308  0.41604  1.0000
  Fe  Fe32      1.0  0.09797  0.00665  0.44900  1.0000
  H   H174      1.0  0.36412  0.14818  0.23156  1.0000
  C   C128      1.0  0.36247  0.99341  0.39016  1.0000
  H   H175      1.0  0.42453  0.12775  0.46595  1.0000
  H   H176      1.0  0.16759  0.00112  0.41897  1.0000
  C   C129      1.0  0.02774  0.27034  0.36327  1.0000
  H   H177      1.0  0.31304  0.99709  0.43652  1.0000
  H   H178      1.0  0.20710  0.00891  0.41479  1.0000
  Fe  Fe33      1.0  0.11790  0.99618  0.41903  1.0000
  H   H179      1.0  0.26477  0.14393  0.24155  1.0000
  H   H180      1.0  0.00712  0.17897  0.42988  1.0000
  C   C130      1.0  0.38496  0.00904  0.40329  1.0000
  S   S61       1.0  0.01832  0.12683  0.37660  1.0000
  N   N13       1.0  0.35455  0.22361  0.32953  1.0000
  C   C131      1.0  0.37099  0.22284  0.33927  1.0000
  C   C132      1.0  0.36607  0.21270  0.31714  1.0000
  C   C133      1.0  0.34544  0.24719  0.32441  1.0000
  C   C134      1.0  0.33573  0.21162  0.33724  1.0000
  H   H181      1.0  0.36293  0.23067  0.34887  1.0000
  H   H182      1.0  0.38539  0.23184  0.33381  1.0000
  H   H183      1.0  0.37847  0.20522  0.34308  1.0000
  H   H184      1.0  0.35466  0.21395  0.30917  1.0000
  H   H185      1.0  0.38100  0.22065  0.31145  1.0000
  H   H186      1.0  0.37190  0.19453  0.32051  1.0000
  H   H187      1.0  0.33291  0.24815  0.31708  1.0000
  H   H188      1.0  0.35913  0.25669  0.31838  1.0000
  H   H189      1.0  0.33667  0.25602  0.33347  1.0000
  H   H190      1.0  0.32339  0.21135  0.33004  1.0000
  H   H191      1.0  0.32623  0.21975  0.34644  1.0000
  H   H192      1.0  0.34203  0.19387  0.34151  1.0000
  N   N14       1.0  0.37342  0.08704  0.35109  1.0000
  C   C135      1.0  0.37449  0.07987  0.36654  1.0000
  C   C136      1.0  0.35754  0.10826  0.34898  1.0000
  C   C137      1.0  0.36544  0.06954  0.34546  1.0000
  C   C138      1.0  0.39617  0.09060  0.34331  1.0000
  H   H193      1.0  0.38646  0.06397  0.36854  1.0000
  H   H194      1.0  0.35761  0.07693  0.37272  1.0000
  H   H195      1.0  0.38032  0.09278  0.37115  1.0000
  H   H196      1.0  0.35622  0.11391  0.33744  1.0000
  H   H197      1.0  0.34011  0.10632  0.35464  1.0000
  H   H198      1.0  0.36318  0.12205  0.35283  1.0000
  H   H199      1.0  0.36447  0.07447  0.33380  1.0000
  H   H200      1.0  0.34815  0.06668  0.35095  1.0000
  H   H201      1.0  0.37686  0.05320  0.34690  1.0000
  H   H202      1.0  0.39587  0.09640  0.33163  1.0000
  H   H203      1.0  0.40863  0.07493  0.34451  1.0000
  H   H204      1.0  0.40269  0.10374  0.34729  1.0000
  H   H205      1.0  0.01950  0.20411  0.31463  1.0000
  N   N15       1.0  0.22209  0.23121  0.28721  1.0000
  C   C139      1.0  0.23073  0.23096  0.27183  1.0000
  C   C140      1.0  0.23360  0.21145  0.29591  1.0000
  C   C141      1.0  0.19742  0.23075  0.28993  1.0000
  C   C142      1.0  0.22665  0.25185  0.29122  1.0000
  H   H206      1.0  0.22221  0.24576  0.26510  1.0000
  H   H207      1.0  0.22767  0.21559  0.26839  1.0000
  H   H208      1.0  0.24927  0.23154  0.26942  1.0000
  H   H209      1.0  0.23059  0.19547  0.29326  1.0000
  H   H210      1.0  0.25225  0.21140  0.29424  1.0000
  H   H211      1.0  0.22742  0.21141  0.30758  1.0000
  H   H212      1.0  0.19061  0.22972  0.30156  1.0000
  H   H213      1.0  0.19320  0.21604  0.28631  1.0000
  H   H214      1.0  0.18807  0.24619  0.28425  1.0000
  H   H215      1.0  0.24512  0.25240  0.28974  1.0000
  H   H216      1.0  0.21942  0.25318  0.30257  1.0000
  H   H217      1.0  0.21912  0.26715  0.28458  1.0000
  C   C143      1.0  0.45422  0.11104  0.41224  1.0000
  C   C144      1.0  0.02121  0.16383  0.40491  1.0000
  C   C145      1.0  0.99514  0.17363  0.31112  1.0000
  Fe  Fe34      1.0  0.47477  0.19975  0.38524  1.0000
  H   H218      1.0  0.45299  0.08878  0.44024  1.0000
  C   C146      1.0  0.44084  0.11741  0.46834  1.0000
  H   H219      1.0  0.47300  0.08124  0.46701  1.0000
  S   S62       1.0  0.03371  0.99473  0.42501  1.0000
  S   S63       1.0  0.45575  0.17785  0.40322  1.0000
  H   H220      1.0  0.43610  0.08255  0.45740  1.0000
  C   C147      1.0  0.01215  0.19551  0.28960  1.0000
  H   H221      1.0  0.31442  0.99273  0.40523  1.0000
  C   C148      1.0  0.44218  0.09648  0.44925  1.0000
  H   H222      1.0  0.20341  0.27813  0.24666  1.0000
  H   H223      1.0  0.45091  0.05073  0.47341  1.0000
  Fe  Fe35      1.0  0.99830  0.21064  0.37468  1.0000
  S   S64       1.0  0.17097  0.30047  0.33732  1.0000
  C   C149      1.0  0.46410  0.14866  0.40456  1.0000
  H   H224      1.0  0.44441  0.14024  0.44101  1.0000
  C   C150      1.0  0.27404  0.13547  0.23244  1.0000
  H   H225      1.0  0.42702  0.10683  0.44511  1.0000
  H   H226      1.0  0.00323  0.22826  0.30575  1.0000
  H   H227      1.0  0.18502  0.26354  0.23006  1.0000
  C   C151      1.0  0.21828  0.98973  0.39748  1.0000
  H   H228      1.0  0.01064  0.30319  0.34372  1.0000
  S   S65       1.0  0.40464  0.04550  0.47243  1.0000
  H   H229      1.0  0.00535  0.12425  0.40859  1.0000
  C   C152      1.0  0.00780  0.30678  0.35489  1.0000
  C   C153      1.0  0.38415  0.99015  0.41398  1.0000
  H   H230      1.0  0.03555  0.29115  0.38363  1.0000
  S   S66       1.0  0.48877  0.28202  0.37925  1.0000
  H   H231      1.0  0.05241  0.29750  0.34409  1.0000
  N   N16       1.0  0.02642  0.29480  0.36266  1.0000
  C   C154      1.0  0.48696  0.13943  0.40193  1.0000
  H   H232      1.0  0.44977  0.12766  0.47321  1.0000
  H   H233      1.0  0.26391  0.98702  0.44245  1.0000
  S   S67       1.0  0.99314  0.22793  0.39409  1.0000
  H   H234      1.0  0.00566  0.29505  0.38333  1.0000
  C   C155      1.0  0.04808  0.30193  0.35510  1.0000
  H   H235      1.0  0.06248  0.29369  0.36085  1.0000
  H   H236      1.0  0.39222  0.98899  0.42326  1.0000
  S   S68       1.0  0.10628  0.99795  0.47160  1.0000
  H   H237      1.0  0.99803  0.15347  0.43997  1.0000
  H   H238      1.0  0.28425  0.17700  0.23050  1.0000
  H   H239      1.0  0.45015  0.00451  0.47587  1.0000
  H   H240      1.0  0.03014  0.26497  0.57966  1.0000
  H   H241      1.0  0.21002  0.24007  0.72615  1.0000
  S   S69       1.0  0.07873  0.04072  0.54891  1.0000
  H   H242      1.0  0.42883  0.25732  0.66755  1.0000
  Fe  Fe36      1.0  0.08651  0.00612  0.56107  1.0000
  S   S70       1.0  0.02530  0.03986  0.56355  1.0000
  Fe  Fe37      1.0  0.04853  0.02926  0.54412  1.0000
  S   S71       1.0  0.03795  0.03740  0.52226  1.0000
  Fe  Fe38      1.0  0.05653  0.04861  0.56938  1.0000
  S   S72       1.0  0.06275  0.08143  0.57443  1.0000
  S   S73       1.0  0.29675  0.30384  0.68635  1.0000
  Fe  Fe39      1.0  0.00876  0.17792  0.61518  1.0000
  Fe  Fe40      1.0  0.19719  0.13219  0.67968  1.0000
  S   S74       1.0  0.16561  0.13646  0.69591  1.0000
  S   S75       1.0  0.21427  0.09701  0.67675  1.0000
  Fe  Fe41      1.0  0.19786  0.18232  0.67174  1.0000
  S   S76       1.0  0.16577  0.19058  0.68682  1.0000
  S   S77       1.0  0.21458  0.21124  0.65846  1.0000
  Fe  Fe42      1.0  0.18110  0.16267  0.70253  1.0000
  C   C156      1.0  0.44707  0.99056  0.48485  1.0000
  Fe  Fe43      1.0  0.15285  0.16388  0.67894  1.0000
  S   S78       1.0  0.11656  0.16437  0.67606  1.0000
  S   S79       1.0  0.21402  0.15598  0.68787  1.0000
  S   S80       1.0  0.18350  0.15801  0.66227  1.0000
  Fe  Fe44      1.0  0.21148  0.02345  0.61996  1.0000
  S   S81       1.0  0.19800  0.05935  0.62313  1.0000
  S   S82       1.0  0.23755  0.01944  0.60040  1.0000
  S   S83       1.0  0.06664  0.01439  0.58192  1.0000
  H   H243      1.0  0.16056  0.02239  0.49761  1.0000
  S   S84       1.0  0.48174  0.22020  0.60347  1.0000
  S   S85       1.0  0.03559  0.19125  0.59805  1.0000
  N   N17       1.0  0.14006  0.02389  0.51826  1.0000
  Fe  Fe45      1.0  0.04414  0.20648  0.61552  1.0000
  S   S86       1.0  0.08015  0.20786  0.61787  1.0000
  H   H244      1.0  0.48263  0.99535  0.55528  1.0000
  C   C157      1.0  0.02126  0.29858  0.56861  1.0000
  S   S87       1.0  0.01893  0.19118  0.63301  1.0000
  C   C158      1.0  0.01876  0.27588  0.57301  1.0000
  Fe  Fe46      1.0  0.30691  0.27246  0.67626  1.0000
  S   S88       1.0  0.31337  0.29078  0.65374  1.0000
  S   S89       1.0  0.29010  0.24148  0.68472  1.0000
  H   H245      1.0  0.00583  0.21515  0.66012  1.0000
  H   H246      1.0  0.04066  0.16419  0.57390  1.0000
  H   H247      1.0  0.00246  0.16395  0.58794  1.0000
  Fe  Fe47      1.0  0.34907  0.28880  0.65756  1.0000
  S   S90       1.0  0.37962  0.28453  0.64025  1.0000
  H   H248      1.0  0.06980  0.11943  0.58500  1.0000
  S   S91       1.0  0.34342  0.26785  0.67921  1.0000
  H   H249      1.0  0.06153  0.24445  0.66596  1.0000
  S   S92       1.0  0.46066  0.04279  0.56179  1.0000
  Fe  Fe48      1.0  0.39505  0.04821  0.56884  1.0000
  S   S93       1.0  0.41326  0.07778  0.55877  1.0000
  S   S94       1.0  0.35681  0.05040  0.57079  1.0000
  Fe  Fe49      1.0  0.43637  0.05308  0.54588  1.0000
  S   S95       1.0  0.45281  0.05927  0.52264  1.0000
  Fe  Fe50      1.0  0.43618  0.06511  0.57551  1.0000
  S   S96       1.0  0.44925  0.08141  0.59128  1.0000
  S   S97       1.0  0.41594  0.03753  0.58651  1.0000
  S   S98       1.0  0.46069  0.20347  0.64409  1.0000
  C   C159      1.0  0.46089  0.10682  0.58790  1.0000
  C   C160      1.0  0.46259  0.12042  0.57445  1.0000
  C   C161      1.0  0.14529  0.98654  0.56260  1.0000
  Fe  Fe51      1.0  0.21832  0.99318  0.59738  1.0000
  H   H250      1.0  0.19805  0.23156  0.68522  1.0000
  H   H251      1.0  0.10451  0.03676  0.51949  1.0000
  H   H252      1.0  0.46141  0.00742  0.50477  1.0000
  C   C162      1.0  0.41831  0.04880  0.48641  1.0000
  Fe  Fe52      1.0  0.25579  0.99195  0.61482  1.0000
  C   C163      1.0  0.45139  0.05492  0.49510  1.0000
  C   C164      1.0  0.43909  0.05514  0.50895  1.0000
  C   C165      1.0  0.41639  0.05204  0.51154  1.0000
  C   C166      1.0  0.40597  0.04914  0.50024  1.0000
  H   H253      1.0  0.22118  0.24503  0.68669  1.0000
  H   H254      1.0  0.46900  0.05721  0.49310  1.0000
  H   H255      1.0  0.40673  0.05234  0.52217  1.0000
  H   H256      1.0  0.38825  0.04723  0.50224  1.0000
  H   H257      1.0  0.37878  0.98807  0.60076  1.0000
  Fe  Fe53      1.0  0.99500  0.22247  0.62668  1.0000
  H   H258      1.0  0.38085  0.26353  0.69756  1.0000
  C   C167      1.0  0.08671  0.00864  0.48556  1.0000
  S   S99       1.0  0.99907  0.23867  0.57351  1.0000
  C   C168      1.0  0.40186  0.26180  0.64175  1.0000
  C   C169      1.0  0.42228  0.26313  0.63229  1.0000
  C   C170      1.0  0.44050  0.24550  0.63313  1.0000
  C   C171      1.0  0.43838  0.22624  0.64335  1.0000
  C   C172      1.0  0.41798  0.22487  0.65289  1.0000
  C   C173      1.0  0.39973  0.24261  0.65208  1.0000
  H   H259      1.0  0.42405  0.27796  0.62429  1.0000
  H   H260      1.0  0.45620  0.24688  0.62584  1.0000
  H   H261      1.0  0.41620  0.20995  0.66079  1.0000
  H   H262      1.0  0.38391  0.24132  0.65928  1.0000
  C   C174      1.0  0.33890  0.03452  0.58385  1.0000
  C   C175      1.0  0.34442  0.02549  0.59746  1.0000
  H   H263      1.0  0.07867  0.00433  0.52202  1.0000
  H   H264      1.0  0.35968  0.02886  0.60039  1.0000
  H   H265      1.0  0.14248  0.14228  0.65241  1.0000
  C   C176      1.0  0.23783  0.21853  0.66425  1.0000
  C   C177      1.0  0.24454  0.23968  0.65893  1.0000
  C   C178      1.0  0.26130  0.24676  0.66466  1.0000
  C   C179      1.0  0.27150  0.23258  0.67565  1.0000
  C   C180      1.0  0.26556  0.21109  0.68041  1.0000
  C   C181      1.0  0.24877  0.20411  0.67478  1.0000
  H   H266      1.0  0.23625  0.25088  0.65070  1.0000
  H   H267      1.0  0.26586  0.26335  0.66087  1.0000
  H   H268      1.0  0.27369  0.19992  0.68873  1.0000
  H   H269      1.0  0.24420  0.18764  0.67870  1.0000
  C   C182      1.0  0.10700  0.17638  0.65973  1.0000
  C   C183      1.0  0.08586  0.17266  0.65759  1.0000
  C   C184      1.0  0.07774  0.18178  0.64465  1.0000
  C   C185      1.0  0.09051  0.19503  0.63386  1.0000
  C   C186      1.0  0.11177  0.19853  0.63595  1.0000
  C   C187      1.0  0.12006  0.18916  0.64884  1.0000
  H   H270      1.0  0.07581  0.16255  0.66594  1.0000
  H   H271      1.0  0.06167  0.17845  0.64300  1.0000
  H   H272      1.0  0.12180  0.20868  0.62761  1.0000
  H   H273      1.0  0.13643  0.19203  0.65038  1.0000
  C   C188      1.0  0.21035  0.08657  0.66169  1.0000
  C   C189      1.0  0.21280  0.06330  0.66201  1.0000
  C   C190      1.0  0.20928  0.05464  0.65019  1.0000
  C   C191      1.0  0.20347  0.06927  0.63797  1.0000
  C   C192      1.0  0.20168  0.09249  0.63751  1.0000
  C   C193      1.0  0.20518  0.10111  0.64930  1.0000
  H   H274      1.0  0.21700  0.05195  0.67154  1.0000
  H   H275      1.0  0.21063  0.03670  0.65068  1.0000
  H   H276      1.0  0.19762  0.10385  0.62796  1.0000
  H   H277      1.0  0.20407  0.11901  0.64878  1.0000
  H   H278      1.0  0.15969  0.11671  0.65857  1.0000
  H   H279      1.0  0.45668  0.11553  0.56571  1.0000
  H   H280      1.0  0.02262  0.14252  0.55340  1.0000
  C   C194      1.0  0.47971  0.14715  0.58350  1.0000
  C   C195      1.0  0.20355  0.24253  0.69154  1.0000
  C   C196      1.0  0.13656  0.00018  0.52050  1.0000
  H   H281      1.0  0.39290  0.24839  0.68300  1.0000
  H   H282      1.0  0.17180  0.21904  0.70738  1.0000
  N   N18       1.0  0.03226  0.23326  0.66164  1.0000
  H   H283      1.0  0.46536  0.02723  0.59110  1.0000
  C   C197      1.0  0.04544  0.09705  0.58710  1.0000
  C   C198      1.0  0.05317  0.11567  0.59002  1.0000
  C   C199      1.0  0.03957  0.12946  0.59940  1.0000
  C   C200      1.0  0.01799  0.12491  0.60586  1.0000
  C   C201      1.0  0.01033  0.10608  0.60312  1.0000
  C   C202      1.0  0.02402  0.09215  0.59375  1.0000
  H   H284      1.0  0.04594  0.14347  0.60173  1.0000
  S   S100      1.0  0.02094  0.23884  0.61037  1.0000
  H   H285      1.0  0.01792  0.07782  0.59156  1.0000
  H   H286      1.0  0.06579  0.21565  0.66367  1.0000
  C   C203      1.0  0.07568  0.01012  0.51110  1.0000
  C   C204      1.0  0.05698  0.02630  0.50828  1.0000
  C   C205      1.0  0.09036  0.00116  0.49977  1.0000
  H   H287      1.0  0.22859  0.24925  0.71009  1.0000
  H   H288      1.0  0.16460  0.04440  0.50644  1.0000
  H   H289      1.0  0.04938  0.22555  0.64110  1.0000
  H   H290      1.0  0.21475  0.20150  0.71950  1.0000
  S   S101      1.0  0.35088  0.30336  0.70628  1.0000
  H   H291      1.0  0.39304  0.28426  0.66669  1.0000
  C   C206      1.0  0.00688  0.31288  0.55981  1.0000
  C   C207      1.0  0.05319  0.22917  0.66811  1.0000
  H   H292      1.0  0.12616  0.09995  0.67055  1.0000
  C   C208      1.0  0.33021  0.01202  0.60728  1.0000
  C   C209      1.0  0.30411  0.01774  0.59033  1.0000
  H   H293      1.0  0.00023  0.25505  0.66283  1.0000
  C   C210      1.0  0.00309  0.99488  0.53405  1.0000
  C   C211      1.0  0.39714  0.25671  0.69129  1.0000
  C   C212      1.0  0.16129  0.02675  0.50823  1.0000
  N   N19       1.0  0.00979  0.17021  0.56499  1.0000
  H   H294      1.0  0.02251  0.24315  0.64073  1.0000
  H   H295      1.0  0.38389  0.00445  0.58315  1.0000
  N   N20       1.0  0.42340  0.18791  0.61171  1.0000
  C   C213      1.0  0.41702  0.21088  0.61528  1.0000
  C   C214      1.0  0.44088  0.17519  0.62020  1.0000
  C   C215      1.0  0.43246  0.18912  0.59626  1.0000
  C   C216      1.0  0.40325  0.17642  0.61510  1.0000
  H   H296      1.0  0.40398  0.22108  0.60902  1.0000
  H   H297      1.0  0.43190  0.21994  0.61298  1.0000
  H   H298      1.0  0.41005  0.21062  0.62685  1.0000
  H   H299      1.0  0.45652  0.18309  0.61769  1.0000
  H   H300      1.0  0.43493  0.17451  0.63192  1.0000
  H   H301      1.0  0.44581  0.15765  0.61798  1.0000
  H   H302      1.0  0.44783  0.19752  0.59333  1.0000
  H   H303      1.0  0.41983  0.19869  0.58949  1.0000
  H   H304      1.0  0.43746  0.17209  0.59318  1.0000
  H   H305      1.0  0.38966  0.18563  0.60894  1.0000
  H   H306      1.0  0.39608  0.17513  0.62671  1.0000
  H   H307      1.0  0.40749  0.15907  0.61246  1.0000
  S   S102      1.0  0.99999  0.14313  0.61679  1.0000
  H   H308      1.0  0.28867  0.01473  0.58743  1.0000
  H   H309      1.0  0.10368  0.09955  0.66080  1.0000
  C   C217      1.0  0.46867  0.11350  0.59912  1.0000
  H   H310      1.0  0.21131  0.19901  0.70181  1.0000
  H   H311      1.0  0.42605  0.29908  0.69155  1.0000
  H   H312      1.0  0.16724  0.24665  0.71213  1.0000
  H   H313      1.0  0.13165  0.12788  0.62607  1.0000
  H   H314      1.0  0.01052  0.18240  0.54247  1.0000
  C   C218      1.0  0.43220  0.26496  0.67642  1.0000
  C   C219      1.0  0.06793  0.02472  0.48277  1.0000
  Fe  Fe54      1.0  0.33379  0.30039  0.68778  1.0000
  H   H315      1.0  0.14973  0.98885  0.52619  1.0000
  H   H316      1.0  0.10851  0.12555  0.66485  1.0000
  C   C220      1.0  0.14165  0.03016  0.53211  1.0000
  N   N21       1.0  0.20224  0.23251  0.70683  1.0000
  H   H317      1.0  0.31389  0.03813  0.57001  1.0000
  H   H318      1.0  0.44309  0.27799  0.67145  1.0000
  C   C221      1.0  0.31008  0.00797  0.60372  1.0000
  Fe  Fe55      1.0  0.43922  0.01622  0.57168  1.0000
  H   H319      1.0  0.04971  0.22394  0.67993  1.0000
  C   C222      1.0  0.05303  0.03341  0.49412  1.0000
  H   H320      1.0  0.23456  0.21139  0.70439  1.0000
  C   C223      1.0  0.12081  0.03842  0.51216  1.0000
  Fe  Fe56      1.0  0.03720  0.00489  0.57432  1.0000
  C   C224      1.0  0.03794  0.23940  0.64593  1.0000
  H   H321      1.0  0.17687  0.22238  0.72449  1.0000
  C   C225      1.0  0.31847  0.03095  0.58045  1.0000
  C   C226      1.0  0.00216  0.26721  0.56836  1.0000
  H   H322      1.0  0.03318  0.19828  0.66090  1.0000
  H   H323      1.0  0.47305  0.15092  0.56186  1.0000
  H   H324      1.0  0.11987  0.99774  0.52715  1.0000
  H   H325      1.0  0.03851  0.04584  0.49188  1.0000
  C   C227      1.0  0.15020  0.12544  0.64973  1.0000
  H   H326      1.0  0.15429  0.08084  0.65240  1.0000
  S   S103      1.0  0.23063  0.99734  0.63472  1.0000
  H   H327      1.0  0.15553  0.09233  0.63376  1.0000
  H   H328      1.0  0.42572  0.27281  0.70362  1.0000
  H   H329      1.0  0.17608  0.01575  0.51246  1.0000
  H   H330      1.0  0.43274  0.99739  0.49266  1.0000
  C   C228      1.0  0.47190  0.14048  0.57230  1.0000
  S   S104      1.0  0.41682  0.02453  0.55477  1.0000
  H   H331      1.0  0.16795  0.01286  0.58370  1.0000
  H   H332      1.0  0.01170  0.24780  0.67930  1.0000
  C   C229      1.0  0.39807  0.29180  0.67503  1.0000
  H   H333      1.0  0.13135  0.08000  0.64318  1.0000
  C   C230      1.0  0.21636  0.21015  0.70819  1.0000
  Fe  Fe57      1.0  0.48934  0.20456  0.62534  1.0000
  H   H334      1.0  0.16260  0.12813  0.63975  1.0000
  H   H335      1.0  0.11894  0.03394  0.50177  1.0000
  H   H336      1.0  0.13105  0.01175  0.57601  1.0000
  C   C231      1.0  0.12022  0.12513  0.63650  1.0000
  C   C232      1.0  0.44116  0.05134  0.48393  1.0000
  H   H337      1.0  0.10680  0.11604  0.63498  1.0000
  C   C233      1.0  0.01132  0.14643  0.56341  1.0000
  H   H338      1.0  0.11188  0.14199  0.63896  1.0000
  H   H339      1.0  0.01831  0.13491  0.57249  1.0000
  S   S105      1.0  0.05802  0.99392  0.55443  1.0000
  C   C234      1.0  0.17848  0.23016  0.71298  1.0000
  C   C235      1.0  0.01628  0.25178  0.66745  1.0000
  N   N22       1.0  0.27185  0.06710  0.62000  1.0000
  C   C236      1.0  0.29579  0.06630  0.61317  1.0000
  C   C237      1.0  0.25711  0.08077  0.60993  1.0000
  C   C238      1.0  0.26829  0.07716  0.63321  1.0000
  C   C239      1.0  0.26616  0.04410  0.62365  1.0000
  H   H340      1.0  0.30738  0.05547  0.62025  1.0000
  H   H341      1.0  0.30087  0.08332  0.61053  1.0000
  H   H342      1.0  0.29887  0.05929  0.60298  1.0000
  H   H343      1.0  0.23891  0.08167  0.61470  1.0000
  H   H344      1.0  0.26089  0.09827  0.60688  1.0000
  H   H345      1.0  0.25922  0.07345  0.59992  1.0000
  H   H346      1.0  0.27918  0.06726  0.64102  1.0000
  H   H347      1.0  0.25044  0.07775  0.63869  1.0000
  H   H348      1.0  0.27209  0.09467  0.63089  1.0000
  H   H349      1.0  0.27691  0.03311  0.63119  1.0000
  H   H350      1.0  0.26871  0.03606  0.61393  1.0000
  H   H351      1.0  0.24816  0.04403  0.62869  1.0000
  S   S106      1.0  0.19050  0.99960  0.61556  1.0000
  H   H352      1.0  0.03453  0.30507  0.57194  1.0000
  S   S107      1.0  0.21359  0.98818  0.57558  1.0000
  S   S108      1.0  0.17979  0.17199  0.72445  1.0000
  C   C240      1.0  0.99997  0.18501  0.55296  1.0000
  H   H353      1.0  0.44212  0.25157  0.68329  1.0000
  H   H354      1.0  0.35249  0.98860  0.57703  1.0000
  N   N23       1.0  0.41088  0.27466  0.68472  1.0000
  H   H355      1.0  0.20045  0.26423  0.71373  1.0000
  C   C241      1.0  0.14629  0.00120  0.57197  1.0000
  C   C242      1.0  0.21066  0.24717  0.71458  1.0000
  H   H356      1.0  0.14355  0.04814  0.53098  1.0000
  H   H357      1.0  0.12284  0.05645  0.51024  1.0000
  H   H358      1.0  0.02363  0.26768  0.66494  1.0000
  H   H359      1.0  0.40658  0.98589  0.59057  1.0000
  H   H360      1.0  0.40812  0.30522  0.66943  1.0000
  Fe  Fe58      1.0  0.00975  0.22211  0.59474  1.0000
  N   N24       1.0  0.13284  0.11255  0.64801  1.0000
  C   C243      1.0  0.14394  0.09048  0.64419  1.0000
  C   C244      1.0  0.11707  0.10921  0.66164  1.0000
  H   H361      1.0  0.49019  0.99363  0.50215  1.0000
  H   H362      1.0  0.15630  0.01985  0.53688  1.0000
  C   C245      1.0  0.02155  0.21269  0.66501  1.0000
  H   H363      1.0  0.38225  0.30001  0.68098  1.0000
  C   C246      1.0  0.41601  0.28522  0.69611  1.0000
  H   H364      1.0  0.33478  0.00477  0.61771  1.0000
  H   H365      1.0  0.04667  0.25444  0.64294  1.0000
  H   H366      1.0  0.19269  0.25917  0.69000  1.0000
  H   H367      1.0  0.99872  0.20307  0.55391  1.0000
  S   S109      1.0  0.29314  0.99026  0.61612  1.0000
  H   H368      1.0  0.12629  0.02740  0.54011  1.0000
  C   C247      1.0  0.16710  0.00171  0.57639  1.0000
  H   H369      1.0  0.40015  0.29254  0.70259  1.0000
  H   H370      1.0  0.46747  0.10310  0.60956  1.0000
  H   H371      1.0  0.40619  0.24352  0.69873  1.0000
  H   H372      1.0  0.46931  0.03266  0.60795  1.0000
  C   C248      1.0  0.99518  0.17427  0.57863  1.0000
  C   C249      1.0  0.03267  0.17519  0.56501  1.0000
  H   H373      1.0  0.01679  0.20769  0.67677  1.0000
  H   H374      1.0  0.03557  0.98454  0.51237  1.0000
  C   C250      1.0  0.47808  0.13351  0.59695  1.0000
  C   C251      1.0  0.33662  0.29681  0.72392  1.0000
  H   H375      1.0  0.01289  0.00117  0.54076  1.0000
  C   C252      1.0  0.47609  0.02168  0.59965  1.0000
  H   H376      1.0  0.00264  0.00720  0.52395  1.0000
  C   C253      1.0  0.18686  0.98811  0.57103  1.0000
  H   H377      1.0  0.04413  0.17245  0.55484  1.0000
  H   H378      1.0  0.47351  0.00414  0.60439  1.0000
  H   H379      1.0  0.03209  0.19297  0.56635  1.0000
  S   S110      1.0  0.49052  0.17300  0.58031  1.0000
  H   H380      1.0  0.30433  0.29726  0.71767  1.0000
  H   H381      1.0  0.13699  0.99435  0.51016  1.0000
  H   H382      1.0  0.48415  0.13834  0.60564  1.0000
  H   H383      1.0  0.38976  0.98661  0.56167  1.0000
  H   H384      1.0  0.47932  0.01352  0.48789  1.0000
  C   C254      1.0  0.47496  0.99983  0.49681  1.0000
  C   C255      1.0  0.38834  0.98778  0.58974  1.0000
  H   H385      1.0  0.10451  0.98828  0.50197  1.0000
  C   C256      1.0  0.31359  0.29499  0.72653  1.0000
  H   H386      1.0  0.49243  0.05302  0.57875  1.0000
  H   H387      1.0  0.99441  0.14205  0.56323  1.0000
  S   S111      1.0  0.12006  0.98373  0.55710  1.0000
  H   H388      1.0  0.99319  0.19213  0.58005  1.0000
  H   H389      1.0  0.99367  0.10238  0.60814  1.0000
  H   H390      1.0  0.43665  0.10281  0.47665  1.0000
  Fe  Fe59      1.0  0.16101  0.12217  0.83121  1.0000
  S   S112      1.0  0.17221  0.08946  0.82275  1.0000
  S   S113      1.0  0.13148  0.12460  0.84931  1.0000
  Fe  Fe60      1.0  0.20152  0.14257  0.81401  1.0000
  S   S114      1.0  0.21641  0.11130  0.80464  1.0000
  S   S115      1.0  0.21520  0.17532  0.80574  1.0000
  Fe  Fe61      1.0  0.18108  0.11062  0.80138  1.0000
  S   S116      1.0  0.17812  0.09918  0.78086  1.0000
  Fe  Fe62      1.0  0.20660  0.09242  0.82668  1.0000
  S   S117      1.0  0.23093  0.06237  0.83524  1.0000
  S   S118      1.0  0.16642  0.14313  0.80937  1.0000
  S   S119      1.0  0.19515  0.12397  0.83647  1.0000
  H   H391      1.0  0.06299  0.21262  0.87278  1.0000
  C   C257      1.0  0.31418  0.28759  0.75230  1.0000
  H   H392      1.0  0.20711  0.16374  0.77960  1.0000
  Fe  Fe63      1.0  0.46295  0.21228  0.86956  1.0000
  H   H393      1.0  0.21551  0.05001  0.81202  1.0000
  S   S120      1.0  0.42811  0.20905  0.86600  1.0000
  C   C258      1.0  0.42144  0.28112  0.89164  1.0000
  C   C259      1.0  0.43073  0.27424  0.86722  1.0000
  H   H394      1.0  0.05432  0.24659  0.85499  1.0000
  S   S121      1.0  0.46739  0.22157  0.89025  1.0000
  Fe  Fe64      1.0  0.30602  0.27999  0.82023  1.0000
  S   S122      1.0  0.33132  0.29050  0.80117  1.0000
  S   S123      1.0  0.28298  0.30251  0.83469  1.0000
  Fe  Fe65      1.0  0.31335  0.23134  0.81446  1.0000
  S   S124      1.0  0.33931  0.23812  0.79493  1.0000
  S   S125      1.0  0.30351  0.19693  0.82315  1.0000
  Fe  Fe66      1.0  0.35257  0.25760  0.80848  1.0000
  S   S126      1.0  0.38974  0.25690  0.80905  1.0000
  Fe  Fe67      1.0  0.31568  0.27018  0.78954  1.0000
  S   S127      1.0  0.29898  0.28335  0.76983  1.0000
  S   S128      1.0  0.32814  0.24860  0.82842  1.0000
  S   S129      1.0  0.28881  0.26186  0.80826  1.0000
  Fe  Fe68      1.0  0.02108  0.20553  0.86816  1.0000
  S   S130      1.0  0.02521  0.19022  0.89066  1.0000
  S   S131      1.0  0.04776  0.20284  0.84852  1.0000
  H   H395      1.0  0.20944  0.06681  0.79550  1.0000
  Fe  Fe69      1.0  0.00984  0.22405  0.89653  1.0000
  S   S132      1.0  0.02769  0.23602  0.91194  1.0000
  C   C260      1.0  0.48284  0.20533  0.82427  1.0000
  S   S133      1.0  0.00816  0.23985  0.87376  1.0000
  H   H396      1.0  0.11714  0.15985  0.82645  1.0000
  H   H397      1.0  0.22336  0.13992  0.75397  1.0000
  C   C261      1.0  0.05509  0.26438  0.91614  1.0000
  C   C262      1.0  0.03886  0.26155  0.90820  1.0000
  C   C263      1.0  0.03168  0.27915  0.89773  1.0000
  H   H398      1.0  0.03235  0.30945  0.97108  1.0000
  H   H399      1.0  0.06099  0.25068  0.92410  1.0000
  H   H400      1.0  0.11155  0.21900  0.86213  1.0000
  H   H401      1.0  0.09044  0.22126  0.85096  1.0000
  H   H402      1.0  0.46872  0.21796  0.82048  1.0000
  H   H403      1.0  0.06047  0.29108  0.94455  1.0000
  H   H404      1.0  0.01912  0.27722  0.89160  1.0000
  H   H405      1.0  0.24349  0.14380  0.78770  1.0000
  C   C264      1.0  0.41766  0.22283  0.85021  1.0000
  C   C265      1.0  0.43006  0.23691  0.83975  1.0000
  C   C266      1.0  0.42137  0.24727  0.82715  1.0000
  C   C267      1.0  0.40017  0.24374  0.82498  1.0000
  C   C268      1.0  0.38786  0.22956  0.83543  1.0000
  C   C269      1.0  0.39655  0.21920  0.84801  1.0000
  H   H406      1.0  0.44631  0.23985  0.84130  1.0000
  H   H407      1.0  0.43099  0.25818  0.81909  1.0000
  H   H408      1.0  0.37184  0.22620  0.83371  1.0000
  H   H409      1.0  0.38696  0.20813  0.85598  1.0000
  H   H410      1.0  0.42842  0.29723  0.88876  1.0000
  H   H411      1.0  0.08366  0.21149  0.88408  1.0000
  H   H412      1.0  0.01987  0.30720  0.92908  1.0000
  H   H413      1.0  0.46023  0.19020  0.80751  1.0000
  H   H414      1.0  0.26890  0.14081  0.77487  1.0000
  H   H415      1.0  0.29453  0.21664  0.84800  1.0000
  H   H416      1.0  0.16649  0.02797  0.80506  1.0000
  C   C270      1.0  0.24019  0.18046  0.81046  1.0000
  C   C271      1.0  0.25186  0.16518  0.82031  1.0000
  C   C272      1.0  0.27159  0.17016  0.82393  1.0000
  C   C273      1.0  0.27976  0.19032  0.81764  1.0000
  C   C274      1.0  0.26825  0.20538  0.80762  1.0000
  C   C275      1.0  0.24848  0.20049  0.80409  1.0000
  H   H417      1.0  0.24559  0.14966  0.82524  1.0000
  H   H418      1.0  0.28046  0.15842  0.83168  1.0000
  H   H419      1.0  0.27452  0.22083  0.80261  1.0000
  H   H420      1.0  0.23955  0.21233  0.79642  1.0000
  C   C276      1.0  0.17772  0.11950  0.76524  1.0000
  C   C277      1.0  0.17412  0.14242  0.76603  1.0000
  C   C278      1.0  0.17429  0.15832  0.75342  1.0000
  C   C279      1.0  0.04015  0.29963  0.89556  1.0000
  C   C280      1.0  0.33731  0.28908  0.74972  1.0000
  C   C281      1.0  0.18140  0.11259  0.75177  1.0000
  H   H421      1.0  0.17089  0.14791  0.77636  1.0000
  H   H422      1.0  0.17112  0.17604  0.75412  1.0000
  H   H423      1.0  0.27701  0.19556  0.85549  1.0000
  H   H424      1.0  0.34652  0.28684  0.75862  1.0000
  C   C282      1.0  0.22149  0.03598  0.84075  1.0000
  C   C283      1.0  0.19857  0.03411  0.84222  1.0000
  C   C284      1.0  0.19166  0.01285  0.84507  1.0000
  C   C285      1.0  0.47486  0.28639  0.91952  1.0000
  H   H425      1.0  0.02421  0.28164  0.94145  1.0000
  C   C286      1.0  0.23732  0.01638  0.84290  1.0000
  H   H426      1.0  0.18615  0.04904  0.84108  1.0000
  H   H427      1.0  0.33791  0.98903  0.91250  1.0000
  H   H428      1.0  0.43553  0.26781  0.89482  1.0000
  H   H429      1.0  0.25508  0.01767  0.84185  1.0000
  C   C287      1.0  0.10922  0.14735  0.84896  1.0000
  C   C288      1.0  0.09424  0.15029  0.86167  1.0000
  C   C289      1.0  0.07567  0.16762  0.86173  1.0000
  C   C290      1.0  0.07163  0.18177  0.84898  1.0000
  C   C291      1.0  0.08684  0.17915  0.83631  1.0000
  C   C292      1.0  0.10568  0.16203  0.83630  1.0000
  H   H430      1.0  0.09705  0.13905  0.87151  1.0000
  H   H431      1.0  0.06436  0.16976  0.87161  1.0000
  H   H432      1.0  0.08389  0.19017  0.82642  1.0000
  H   H433      1.0  0.38073  0.99969  0.89136  1.0000
  H   H434      1.0  0.10478  0.24332  0.88124  1.0000
  H   H435      1.0  0.20764  0.17774  0.76144  1.0000
  H   H436      1.0  0.38006  0.29651  0.88445  1.0000
  H   H437      1.0  0.45369  0.16158  0.83744  1.0000
  H   H438      1.0  0.18481  0.12304  0.72879  1.0000
  H   H439      1.0  0.07843  0.26175  0.88404  1.0000
  H   H440      1.0  0.09866  0.26804  0.86831  1.0000
  H   H441      1.0  0.44254  0.19070  0.83276  1.0000
  H   H442      1.0  0.25721  0.16762  0.78027  1.0000
  H   H443      1.0  0.04574  0.11117  0.85286  1.0000
  H   H444      1.0  0.02974  0.13476  0.84327  1.0000
  C   C293      1.0  0.25283  0.15215  0.77765  1.0000
  C   C294      1.0  0.40315  0.25475  0.88384  1.0000
  H   H445      1.0  0.28447  0.28957  0.74261  1.0000
  S   S134      1.0  0.48402  0.28175  0.87715  1.0000
  H   H446      1.0  0.45950  0.18204  0.84680  1.0000
  H   H447      1.0  0.36626  0.29532  0.73360  1.0000
  H   H448      1.0  0.40065  0.31084  0.87196  1.0000
  Fe  Fe70      1.0  0.49023  0.24450  0.87633  1.0000
  H   H449      1.0  0.23347  0.04489  0.79563  1.0000
  H   H450      1.0  0.17395  0.01158  0.84578  1.0000
  C   C295      1.0  0.46665  0.30931  0.91949  1.0000
  S   S135      1.0  0.48391  0.23672  0.85565  1.0000
  C   C296      1.0  0.17829  0.15143  0.73995  1.0000
  H   H451      1.0  0.22331  0.12765  0.77239  1.0000
  C   C297      1.0  0.47640  0.29148  0.89371  1.0000
  C   C298      1.0  0.18176  0.12851  0.73914  1.0000
  H   H452      1.0  0.47850  0.10814  0.89875  1.0000
  C   C299      1.0  0.06273  0.25599  0.86083  1.0000
  H   H453      1.0  0.02115  0.14763  0.88026  1.0000
  H   H454      1.0  0.07673  0.28652  0.91970  1.0000
  H   H455      1.0  0.47794  0.27559  0.92946  1.0000
  C   C300      1.0  0.39419  0.29448  0.87539  1.0000
  H   H456      1.0  0.47123  0.16096  0.81193  1.0000
  C   C301      1.0  0.46756  0.31421  0.89377  1.0000
  H   H457      1.0  0.38698  0.29115  0.86628  1.0000
  H   H458      1.0  0.24906  0.12465  0.75981  1.0000
  H   H459      1.0  0.25625  0.18492  0.75486  1.0000
  C   C302      1.0  0.25199  0.16894  0.75293  1.0000
  C   C303      1.0  0.38214  0.99113  0.90251  1.0000
  C   C304      1.0  0.05592  0.30269  0.90376  1.0000
  H   H460      1.0  0.34397  0.98527  0.89400  1.0000
  C   C305      1.0  0.01715  0.29983  0.94067  1.0000
  H   H461      1.0  0.01900  0.10844  0.84837  1.0000
  C   C306      1.0  0.06382  0.28475  0.91380  1.0000
  H   H462      1.0  0.06961  0.26974  0.85290  1.0000
  C   C307      1.0  0.02930  0.14228  0.86984  1.0000
  C   C308      1.0  0.23036  0.99505  0.84599  1.0000
  N   N25       1.0  0.41235  0.27616  0.87953  1.0000
  H   H463      1.0  0.46098  0.98524  0.91060  1.0000
  H   H464      1.0  0.18409  0.09488  0.75108  1.0000
  N   N26       1.0  0.08070  0.24101  0.86797  1.0000
  C   C309      1.0  0.23352  0.13650  0.76289  1.0000
  N   N27       1.0  0.20120  0.03339  0.79888  1.0000
  C   C310      1.0  0.17784  0.03970  0.80610  1.0000
  C   C311      1.0  0.21040  0.01052  0.80538  1.0000
  C   C312      1.0  0.21556  0.04946  0.80054  1.0000
  C   C313      1.0  0.20096  0.03396  0.78347  1.0000
  H   H465      1.0  0.17046  0.05696  0.80150  1.0000
  H   H466      1.0  0.17735  0.03945  0.81775  1.0000
  C   C314      1.0  0.20752  0.99324  0.84680  1.0000
  H   H467      1.0  0.22778  0.00494  0.79997  1.0000
  H   H468      1.0  0.19954  0.99798  0.80489  1.0000
  H   H469      1.0  0.46577  0.29610  0.96624  1.0000
  C   C315      1.0  0.47480  0.17829  0.81140  1.0000
  C   C316      1.0  0.05260  0.30901  0.94393  1.0000
  H   H470      1.0  0.38908  0.25554  0.89302  1.0000
  H   H471      1.0  0.19390  0.05102  0.77833  1.0000
  H   H472      1.0  0.19035  0.02195  0.78181  1.0000
  N   N28       1.0  0.23906  0.15746  0.76594  1.0000
  N   N29       1.0  0.25935  0.22952  0.85385  1.0000
  C   C317      1.0  0.25248  0.22802  0.84014  1.0000
  C   C318      1.0  0.24064  0.22500  0.86568  1.0000
  C   C319      1.0  0.26465  0.25228  0.85330  1.0000
  C   C320      1.0  0.27967  0.21279  0.85622  1.0000
  H   H473      1.0  0.26626  0.23123  0.83102  1.0000
  H   H474      1.0  0.23731  0.24047  0.83790  1.0000
  H   H475      1.0  0.24852  0.21100  0.84006  1.0000
  H   H476      1.0  0.24517  0.22611  0.87620  1.0000
  H   H477      1.0  0.22503  0.23727  0.86416  1.0000
  H   H478      1.0  0.23639  0.20787  0.86636  1.0000
  H   H479      1.0  0.24991  0.26551  0.85132  1.0000
  H   H480      1.0  0.27876  0.25607  0.84447  1.0000
  H   H481      1.0  0.26997  0.25417  0.86342  1.0000
  H   H482      1.0  0.28455  0.21242  0.86685  1.0000
  H   H483      1.0  0.44445  0.26037  0.86999  1.0000
  C   C321      1.0  0.09803  0.23091  0.85710  1.0000
  C   C322      1.0  0.30238  0.29064  0.74068  1.0000
  C   C323      1.0  0.47968  0.27744  0.90664  1.0000
  H   H484      1.0  0.47320  0.99087  0.97496  1.0000
  H   H485      1.0  0.24216  0.17304  0.74384  1.0000
  C   C324      1.0  0.07075  0.22298  0.87828  1.0000
  C   C325      1.0  0.09116  0.25410  0.87570  1.0000
  H   H486      1.0  0.03215  0.09761  0.87839  1.0000
  H   H487      1.0  0.26818  0.15824  0.74943  1.0000
  H   H488      1.0  0.04936  0.26390  0.86873  1.0000
  H   H489      1.0  0.40820  0.28239  0.90125  1.0000
  H   H490      1.0  0.37466  0.00345  0.90988  1.0000
  H   H491      1.0  0.40057  0.98671  0.90330  1.0000
  H   H492      1.0  0.10618  0.24395  0.84922  1.0000
  H   H493      1.0  0.05724  0.22996  0.88644  1.0000
  N   N30       1.0  0.47823  0.18215  0.82550  1.0000
  H   H494      1.0  0.22132  0.18770  0.77357  1.0000
  C   C326      1.0  0.02422  0.30106  0.96446  1.0000
  C   C327      1.0  0.01505  0.10698  0.87690  1.0000
  N   N31       1.0  0.01648  0.12694  0.86564  1.0000
  C   C328      1.0  0.02822  0.11997  0.85193  1.0000
  H   H495      1.0  0.04688  0.13408  0.87108  1.0000
  C   C329      1.0  0.21787  0.17234  0.77027  1.0000
  H   H496      1.0  0.03151  0.28293  0.96598  1.0000
  H   H497      1.0  0.41641  0.24057  0.88711  1.0000
  H   H498      1.0  0.21154  0.00978  0.81687  1.0000
  H   H499      1.0  0.99856  0.30118  0.94431  1.0000
  C   C330      1.0  0.34845  0.29388  0.73555  1.0000
  C   C331      1.0  0.48784  0.11379  0.90559  1.0000
  H   H500      1.0  0.48402  0.14808  0.89474  1.0000
  H   H501      1.0  0.48646  0.25985  0.90669  1.0000
  H   H502      1.0  0.43858  0.28984  0.86387  1.0000
  H   H503      1.0  0.39660  0.25022  0.87484  1.0000
  H   H504      1.0  0.21833  0.02959  0.77762  1.0000
  H   H505      1.0  0.00584  0.30247  0.96885  1.0000
  H   H506      1.0  0.03040  0.15775  0.86171  1.0000
  N   N32       1.0  0.02803  0.31130  0.94919  1.0000
  H   H507      1.0  0.00501  0.09522  0.87430  1.0000
  C   C332      1.0  0.45760  0.17895  0.83606  1.0000
  H   H508      1.0  0.42453  0.27070  0.85780  1.0000
  H   H509      1.0  0.48523  0.20881  0.83477  1.0000
  H   H510      1.0  0.00670  0.11183  0.88744  1.0000
  H   H511      1.0  0.28666  0.31073  0.79601  1.0000
  H   H512      1.0  0.03410  0.31336  0.88766  1.0000
  H   H513      1.0  0.49006  0.18064  0.80318  1.0000
  C   C333      1.0  0.49102  0.13641  0.90327  1.0000
  C   C334      1.0  0.99342  0.13864  0.86393  1.0000
  H   H514      1.0  0.99383  0.15355  0.85531  1.0000
  H   H515      1.0  0.00301  0.01017  0.97537  1.0000
  S   S136      1.0  0.49162  0.18356  0.86994  1.0000
  C   C335      1.0  0.17916  0.32722  0.16800  1.0000
  Fe  Fe71      1.0  0.19699  0.58181  0.17725  1.0000
  S   S137      1.0  0.19891  0.60753  0.15747  1.0000
  S   S138      1.0  0.21158  0.54490  0.17762  1.0000
  Fe  Fe72      1.0  0.17010  0.61634  0.19564  1.0000
  H   H516      1.0  0.08646  0.42625  0.00459  1.0000
  H   H517      1.0  0.02164  0.40770  0.00548  1.0000
  Fe  Fe73      1.0  0.16210  0.61913  0.16488  1.0000
  H   H518      1.0  0.26983  0.59455  0.14156  1.0000
  S   S139      1.0  0.15377  0.61921  0.21847  1.0000
  N   N33       1.0  0.14351  0.55334  0.14735  1.0000
  S   S140      1.0  0.15984  0.59199  0.18410  1.0000
  S   S141      1.0  0.20722  0.60376  0.19056  1.0000
  C   C336      1.0  0.14408  0.33242  0.20576  1.0000
  Fe  Fe74      1.0  0.43088  0.34712  0.08002  1.0000
  S   S142      1.0  0.39961  0.36138  0.07010  1.0000
  H   H519      1.0  0.05537  0.45477  0.99555  1.0000
  Fe  Fe75      1.0  0.45500  0.38650  0.06537  1.0000
  S   S143      1.0  0.42586  0.40423  0.05413  1.0000
  H   H520      1.0  0.42846  0.34626  0.97807  1.0000
  Fe  Fe76      1.0  0.40386  0.39441  0.07512  1.0000
  S   S144      1.0  0.37678  0.41966  0.08543  1.0000
  Fe  Fe77      1.0  0.42379  0.36991  0.04989  1.0000
  S   S145      1.0  0.41398  0.36409  0.02952  1.0000
  S   S146      1.0  0.43317  0.37957  0.08669  1.0000
  S   S147      1.0  0.45486  0.35273  0.05940  1.0000
  Fe  Fe78      1.0  0.08964  0.36612  0.04131  1.0000
  S   S148      1.0  0.05172  0.37193  0.04420  1.0000
  S   S149      1.0  0.11167  0.35897  0.02042  1.0000
  Fe  Fe79      1.0  0.09087  0.37783  0.07073  1.0000
  S   S150      1.0  0.05290  0.38507  0.07555  1.0000
  S   S151      1.0  0.10857  0.37926  0.08930  1.0000
  Fe  Fe80      1.0  0.05366  0.35365  0.06659  1.0000
  Fe  Fe81      1.0  0.05434  0.40272  0.05289  1.0000
  S   S152      1.0  0.03457  0.43547  0.04362  1.0000
  S   S153      1.0  0.09156  0.34511  0.06315  1.0000
  S   S154      1.0  0.09235  0.39818  0.04864  1.0000
  Fe  Fe82      1.0  0.21830  0.45748  0.12447  1.0000
  S   S155      1.0  0.23656  0.44487  0.10419  1.0000
  S   S156      1.0  0.21761  0.49478  0.12442  1.0000
  Fe  Fe83      1.0  0.20223  0.41293  0.13692  1.0000
  S   S157      1.0  0.21918  0.39695  0.11794  1.0000
  S   S158      1.0  0.17919  0.39359  0.15402  1.0000
  Fe  Fe84      1.0  0.24883  0.41362  0.11853  1.0000
  S   S159      1.0  0.28120  0.39027  0.11239  1.0000
  Fe  Fe85      1.0  0.20593  0.42890  0.10480  1.0000
  S   S160      1.0  0.19558  0.42535  0.08402  1.0000
  S   S161      1.0  0.23302  0.42704  0.13902  1.0000
  S   S162      1.0  0.18642  0.44409  0.12371  1.0000
  H   H521      1.0  0.03277  0.57534  0.05716  1.0000
  C   C337      1.0  0.01390  0.45092  0.05489  1.0000
  H   H522      1.0  0.03099  0.53286  0.07934  1.0000
  C   C338      1.0  0.06839  0.34668  0.99613  1.0000
  H   H523      1.0  0.24133  0.57873  0.17051  1.0000
  H   H524      1.0  0.44653  0.64039  0.09083  1.0000
  Fe  Fe86      1.0  0.20578  0.63065  0.17121  1.0000
  H   H525      1.0  0.02202  0.43092  0.07471  1.0000
  C   C339      1.0  0.13087  0.39513  0.08688  1.0000
  C   C340      1.0  0.14578  0.39781  0.07395  1.0000
  C   C341      1.0  0.16526  0.40774  0.07305  1.0000
  C   C342      1.0  0.16996  0.41496  0.08506  1.0000
  C   C343      1.0  0.15465  0.41295  0.09785  1.0000
  C   C344      1.0  0.13511  0.40320  0.09870  1.0000
  H   H526      1.0  0.14266  0.39164  0.06477  1.0000
  H   H527      1.0  0.17694  0.40939  0.06309  1.0000
  H   H528      1.0  0.15793  0.41878  0.10710  1.0000
  H   H529      1.0  0.12332  0.40164  0.10861  1.0000
  C   C345      1.0  0.07768  0.34951  0.00791  1.0000
  C   C346      1.0  0.09944  0.35522  0.00588  1.0000
  C   C347      1.0  0.11172  0.35823  0.99195  1.0000
  H   H530      1.0  0.06821  0.34682  0.01861  1.0000
  C   C348      1.0  0.16123  0.33131  0.11895  1.0000
  C   C349      1.0  0.17238  0.35047  0.16471  1.0000
  C   C350      1.0  0.18835  0.36465  0.15829  1.0000
  C   C351      1.0  0.21118  0.35555  0.15527  1.0000
  N   N34       1.0  0.16563  0.32813  0.21155  1.0000
  H   H531      1.0  0.22360  0.36642  0.15034  1.0000
  C   C352      1.0  0.20206  0.31813  0.16538  1.0000
  C   C353      1.0  0.34967  0.41210  0.09213  1.0000
  C   C354      1.0  0.34472  0.39131  0.09076  1.0000
  C   C355      1.0  0.32346  0.38513  0.09680  1.0000
  C   C356      1.0  0.30693  0.39967  0.10423  1.0000
  C   C357      1.0  0.31150  0.42081  0.10521  1.0000
  C   C358      1.0  0.33289  0.42696  0.09922  1.0000
  H   H532      1.0  0.35728  0.37993  0.08510  1.0000
  H   H533      1.0  0.31980  0.36896  0.09573  1.0000
  H   H534      1.0  0.29881  0.43217  0.11089  1.0000
  H   H535      1.0  0.33654  0.44315  0.10025  1.0000
  C   C359      1.0  0.00861  0.54889  0.04845  1.0000
  C   C360      1.0  0.45380  0.39298  0.98705  1.0000
  C   C361      1.0  0.46182  0.39215  0.99994  1.0000
  C   C362      1.0  0.44938  0.38388  0.01309  1.0000
  C   C363      1.0  0.42890  0.37636  0.01338  1.0000
  C   C364      1.0  0.42065  0.37764  0.00052  1.0000
  C   C365      1.0  0.43304  0.38602  0.98737  1.0000
  H   H536      1.0  0.19325  0.37201  0.10327  1.0000
  H   H537      1.0  0.45583  0.38296  0.02298  1.0000
  H   H538      1.0  0.40468  0.37207  0.00073  1.0000
  H   H539      1.0  0.33617  0.35393  0.12019  1.0000
  H   H540      1.0  0.04686  0.41546  0.98235  1.0000
  H   H541      1.0  0.46202  0.43392  0.04873  1.0000
  N   N35       1.0  0.01078  0.55016  0.06333  1.0000
  C   C366      1.0  0.21346  0.53108  0.16275  1.0000
  C   C367      1.0  0.21431  0.50765  0.16496  1.0000
  C   C368      1.0  0.21574  0.49617  0.15335  1.0000
  C   C369      1.0  0.21678  0.50804  0.13938  1.0000
  C   C370      1.0  0.21641  0.53142  0.13717  1.0000
  C   C371      1.0  0.21453  0.54294  0.14879  1.0000
  H   H542      1.0  0.21363  0.49834  0.17573  1.0000
  H   H543      1.0  0.21605  0.47817  0.15520  1.0000
  H   H544      1.0  0.21736  0.54070  0.12638  1.0000
  H   H545      1.0  0.21417  0.56092  0.14691  1.0000
  S   S163      1.0  0.14127  0.62157  0.14722  1.0000
  S   S164      1.0  0.02932  0.33081  0.07947  1.0000
  H   H546      1.0  0.05166  0.34199  0.99783  1.0000
  H   H547      1.0  0.12858  0.36259  0.99029  1.0000
  H   H548      1.0  0.29114  0.44047  0.06476  1.0000
  H   H549      1.0  0.25467  0.44896  0.05552  1.0000
  H   H550      1.0  0.23511  0.42900  0.06033  1.0000
  H   H551      1.0  0.17192  0.54746  0.13079  1.0000
  C   C372      1.0  0.06122  0.41338  0.98842  1.0000
  C   C373      1.0  0.36796  0.33750  0.13681  1.0000
  H   H552      1.0  0.07844  0.33270  0.10249  1.0000
  H   H553      1.0  0.04398  0.38744  0.01224  1.0000
  H   H554      1.0  0.24833  0.61108  0.15221  1.0000
  H   H555      1.0  0.06807  0.42112  0.02135  1.0000
  H   H556      1.0  0.27585  0.61904  0.14720  1.0000
  H   H557      1.0  0.13586  0.52655  0.16451  1.0000
  C   C374      1.0  0.34555  0.33696  0.11866  1.0000
  C   C375      1.0  0.25965  0.57193  0.16842  1.0000
  H   H558      1.0  0.07195  0.64982  0.12656  1.0000
  H   H559      1.0  0.14710  0.33312  0.19394  1.0000
  N   N36       1.0  0.42885  0.45753  0.08658  1.0000
  C   C376      1.0  0.42367  0.48182  0.08730  1.0000
  C   C377      1.0  0.41516  0.44504  0.09875  1.0000
  C   C378      1.0  0.45318  0.44967  0.08720  1.0000
  C   C379      1.0  0.42339  0.45355  0.07301  1.0000
  H   H560      1.0  0.43392  0.49161  0.07824  1.0000
  H   H561      1.0  0.42751  0.48547  0.09742  1.0000
  H   H562      1.0  0.40549  0.48834  0.08669  1.0000
  H   H563      1.0  0.41848  0.42669  0.09828  1.0000
  H   H564      1.0  0.41888  0.44741  0.10921  1.0000
  H   H565      1.0  0.39668  0.45054  0.09859  1.0000
  H   H566      1.0  0.45797  0.43160  0.08603  1.0000
  H   H567      1.0  0.45781  0.45169  0.09749  1.0000
  H   H568      1.0  0.46399  0.45930  0.07845  1.0000
  H   H569      1.0  0.40493  0.45802  0.07251  1.0000
  H   H570      1.0  0.42823  0.43557  0.07182  1.0000
  H   H571      1.0  0.43251  0.46354  0.06356  1.0000
  C   C380      1.0  0.99471  0.45815  0.07845  1.0000
  N   N37       1.0  0.45724  0.32052  0.98052  1.0000
  C   C381      1.0  0.03666  0.40555  0.01095  1.0000
  C   C382      1.0  0.49080  0.42652  0.05983  1.0000
  C   C383      1.0  0.08066  0.34972  0.98220  1.0000
  H   H572      1.0  0.16889  0.57294  0.14857  1.0000
  C   C384      1.0  0.38148  0.35062  0.11197  1.0000
  C   C385      1.0  0.15634  0.56301  0.15569  1.0000
  C   C386      1.0  0.04309  0.44356  0.00150  1.0000
  H   H573      1.0  0.42649  0.38719  0.97751  1.0000
  C   C387      1.0  0.99992  0.46955  0.04866  1.0000
  H   H574      1.0  0.38529  0.33540  0.13960  1.0000
  C   C388      1.0  0.10233  0.35564  0.98013  1.0000
  H   H575      1.0  0.16995  0.36295  0.20706  1.0000
  H   H576      1.0  0.02466  0.55112  0.04099  1.0000
  C   C389      1.0  0.02892  0.53236  0.06815  1.0000
  H   H577      1.0  0.15519  0.32348  0.13010  1.0000
  C   C390      1.0  0.16291  0.36596  0.12682  1.0000
  N   N38       1.0  0.05353  0.41969  0.00284  1.0000
  H   H578      1.0  0.00416  0.53237  0.04764  1.0000
  C   C391      1.0  0.27008  0.60417  0.17522  1.0000
  C   C392      1.0  0.11405  0.63748  0.14717  1.0000
  H   H579      1.0  0.04278  0.32876  0.11916  1.0000
  H   H580      1.0  0.26394  0.56109  0.17850  1.0000
  N   N39       1.0  0.17586  0.34818  0.11880  1.0000
  H   H581      1.0  0.34564  0.33501  0.10736  1.0000
  H   H582      1.0  0.14483  0.57462  0.16239  1.0000
  H   H583      1.0  0.02825  0.44681  0.99574  1.0000
  C   C393      1.0  0.21803  0.33234  0.15895  1.0000
  C   C394      1.0  0.47683  0.46364  0.04799  1.0000
  H   H584      1.0  0.27185  0.38607  0.08210  1.0000
  C   C395      1.0  0.19580  0.33728  0.12564  1.0000
  H   H585      1.0  0.30093  0.56984  0.15244  1.0000
  C   C396      1.0  0.18643  0.64250  0.22228  1.0000
  H   H586      1.0  0.39914  0.34895  0.11413  1.0000
  C   C397      1.0  0.15932  0.53826  0.13845  1.0000
  H   H587      1.0  0.16877  0.36529  0.09809  1.0000
  H   H588      1.0  0.03702  0.44873  0.01225  1.0000
  H   H589      1.0  0.03051  0.40987  0.02189  1.0000
  C   C398      1.0  0.01126  0.44521  0.06982  1.0000
  H   H590      1.0  0.19064  0.32918  0.13685  1.0000
  C   C399      1.0  0.07313  0.41624  0.01051  1.0000
  H   H591      1.0  0.24500  0.39265  0.07553  1.0000
  H   H592      1.0  0.06939  0.39552  0.98911  1.0000
  H   H593      1.0  0.24024  0.44351  0.07356  1.0000
  H   H594      1.0  0.46458  0.47461  0.04200  1.0000
  H   H595      1.0  0.13383  0.34864  0.20813  1.0000
  H   H596      1.0  0.02508  0.51534  0.06789  1.0000
  S   S165      1.0  0.00512  0.62954  0.10038  1.0000
  H   H597      1.0  0.19426  0.34544  0.09765  1.0000
  H   H598      1.0  0.48151  0.64224  0.10023  1.0000
  H   H599      1.0  0.01729  0.57439  0.07506  1.0000
  H   H600      1.0  0.07388  0.42378  0.98195  1.0000
  C   C400      1.0  0.26670  0.60427  0.15058  1.0000
  H   H601      1.0  0.45111  0.33878  0.99824  1.0000
  H   H602      1.0  0.38280  0.34817  0.10066  1.0000
  H   H603      1.0  0.35938  0.35469  0.13844  1.0000
  H   H604      1.0  0.26173  0.56097  0.16012  1.0000
  H   H605      1.0  0.23206  0.64379  0.19273  1.0000
  H   H606      1.0  0.37314  0.36818  0.11274  1.0000
  N   N40       1.0  0.27355  0.59022  0.16380  1.0000
  H   H607      1.0  0.27989  0.61848  0.17203  1.0000
  H   H608      1.0  0.25016  0.40696  0.08886  1.0000
  C   C401      1.0  0.29771  0.58054  0.16098  1.0000
  H   H609      1.0  0.08105  0.39834  0.01204  1.0000
  H   H610      1.0  0.15467  0.35747  0.16692  1.0000
  H   H611      1.0  0.47783  0.39763  0.99975  1.0000
  H   H612      1.0  0.17314  0.37936  0.12669  1.0000
  H   H613      1.0  0.19549  0.34347  0.20921  1.0000
  C   C402      1.0  0.01629  0.57246  0.06391  1.0000
  H   H614      1.0  0.14601  0.33908  0.11384  1.0000
  H   H615      1.0  0.00180  0.47398  0.03711  1.0000
  H   H616      1.0  0.16896  0.52433  0.14516  1.0000
  C   C403      1.0  0.12710  0.54047  0.15731  1.0000
  C   C404      1.0  0.13128  0.57170  0.13804  1.0000
  H   H617      1.0  0.11705  0.53294  0.15140  1.0000
  H   H618      1.0  0.11501  0.55139  0.16424  1.0000
  H   H619      1.0  0.15028  0.53049  0.13205  1.0000
  H   H620      1.0  0.12164  0.56513  0.13138  1.0000
  H   H621      1.0  0.14316  0.58215  0.13069  1.0000
  H   H622      1.0  0.11906  0.58328  0.14447  1.0000
  N   N41       1.0  0.26726  0.41737  0.06765  1.0000
  C   C405      1.0  0.27774  0.40729  0.05474  1.0000
  C   C406      1.0  0.28449  0.42671  0.07280  1.0000
  C   C407      1.0  0.25822  0.39994  0.07897  1.0000
  C   C408      1.0  0.24859  0.43551  0.06407  1.0000
  H   H623      1.0  0.26516  0.40017  0.05054  1.0000
  H   H624      1.0  0.29183  0.39345  0.05709  1.0000
  H   H625      1.0  0.28487  0.41995  0.04600  1.0000
  H   H626      1.0  0.27745  0.43362  0.08289  1.0000
  H   H627      1.0  0.29918  0.41361  0.07513  1.0000
  H   H628      1.0  0.30339  0.56990  0.17077  1.0000
  N   N42       1.0  0.36883  0.33404  0.12192  1.0000
  H   H629      1.0  0.11000  0.62739  0.12761  1.0000
  C   C409      1.0  0.47530  0.44065  0.05184  1.0000
  H   H630      1.0  0.27505  0.59424  0.18539  1.0000
  H   H631      1.0  0.16572  0.54978  0.16298  1.0000
  H   H632      1.0  0.20627  0.32402  0.11978  1.0000
  H   H633      1.0  0.23577  0.32538  0.15683  1.0000
  C   C410      1.0  0.18342  0.35813  0.10382  1.0000
  H   H634      1.0  0.25203  0.61164  0.17765  1.0000
  H   H635      1.0  0.15742  0.35914  0.13824  1.0000
  H   H636      1.0  0.30858  0.59398  0.15744  1.0000
  S   S166      1.0  0.16905  0.64466  0.17692  1.0000
  C   C411      1.0  0.10235  0.63735  0.13591  1.0000
  H   H637      1.0  0.19105  0.64506  0.21074  1.0000
  C   C412      1.0  0.45585  0.32127  0.99594  1.0000
  H   H638      1.0  0.00314  0.58622  0.05997  1.0000
  S   S167      1.0  0.48768  0.39830  0.06634  1.0000
  H   H639      1.0  0.04550  0.53414  0.06120  1.0000
  C   C413      1.0  0.17920  0.34620  0.20496  1.0000
  H   H640      1.0  0.20686  0.34968  0.12608  1.0000
  H   H641      1.0  0.14741  0.37409  0.12226  1.0000
  H   H642      1.0  0.18344  0.34704  0.19312  1.0000
  H   H643      1.0  0.35852  0.32526  0.14460  1.0000
  H   H644      1.0  0.99280  0.45372  0.08999  1.0000
  H   H645      1.0  0.99511  0.56221  0.04446  1.0000
  H   H646      1.0  0.33562  0.32442  0.12573  1.0000
  H   H647      1.0  0.42192  0.31820  0.98221  1.0000
  H   H648      1.0  0.48445  0.63951  0.07492  1.0000
  H   H649      1.0  0.07956  0.31892  0.12846  1.0000
  H   H650      1.0  0.17045  0.31761  0.11300  1.0000
  H   H651      1.0  0.13359  0.31887  0.21045  1.0000
  S   S168      1.0  0.18125  0.59784  0.32532  1.0000
  Fe  Fe87      1.0  0.03678  0.52078  0.45423  1.0000
  S   S169      1.0  0.03620  0.48678  0.44893  1.0000
  Fe  Fe88      1.0  0.04151  0.54265  0.42271  1.0000
  S   S170      1.0  0.04140  0.51020  0.41511  1.0000
  H   H652      1.0  0.00501  0.39333  0.47046  1.0000
  Fe  Fe89      1.0  0.01322  0.50498  0.43339  1.0000
  Fe  Fe90      1.0  0.06465  0.49507  0.43115  1.0000
  S   S171      1.0  0.09422  0.46807  0.42592  1.0000
  S   S172      1.0  0.06706  0.52792  0.43757  1.0000
  Fe  Fe91      1.0  0.24089  0.48451  0.35165  1.0000
  S   S173      1.0  0.26287  0.45159  0.35746  1.0000
  S   S174      1.0  0.24699  0.50486  0.32960  1.0000
  Fe  Fe92      1.0  0.21208  0.48144  0.38077  1.0000
  S   S175      1.0  0.23138  0.44818  0.38892  1.0000
  S   S176      1.0  0.18503  0.50296  0.39368  1.0000
  Fe  Fe93      1.0  0.26253  0.46360  0.37828  1.0000
  S   S177      1.0  0.29401  0.45739  0.38917  1.0000
  Fe  Fe94      1.0  0.23003  0.43907  0.36739  1.0000
  S   S178      1.0  0.22428  0.40379  0.36583  1.0000
  S   S179      1.0  0.24316  0.49747  0.37154  1.0000
  S   S180      1.0  0.20804  0.47134  0.36020  1.0000
  Fe  Fe95      1.0  0.37026  0.52434  0.42255  1.0000
  S   S181      1.0  0.40086  0.53067  0.40627  1.0000
  S   S182      1.0  0.33598  0.52669  0.41502  1.0000
  Fe  Fe96      1.0  0.39654  0.52267  0.44737  1.0000
  S   S183      1.0  0.42897  0.52902  0.43278  1.0000
  Fe  Fe97      1.0  0.40702  0.55494  0.41948  1.0000
  S   S184      1.0  0.41792  0.58664  0.40536  1.0000
  Fe  Fe98      1.0  0.42082  0.50453  0.42059  1.0000
  S   S185      1.0  0.45007  0.48155  0.41023  1.0000
  S   S186      1.0  0.37477  0.55070  0.43503  1.0000
  S   S187      1.0  0.38986  0.49600  0.43599  1.0000
  S   S188      1.0  0.04486  0.57220  0.40478  1.0000
  C   C414      1.0  0.10763  0.63216  0.37343  1.0000
  C   C415      1.0  0.24558  0.60560  0.32242  1.0000
  S   S189      1.0  0.18212  0.36440  0.32117  1.0000
  H   H653      1.0  0.17014  0.63337  0.26375  1.0000
  H   H654      1.0  0.00219  0.51105  0.39943  1.0000
  Fe  Fe99      1.0  0.17883  0.32829  0.31914  1.0000
  H   H655      1.0  0.48948  0.50410  0.39937  1.0000
  C   C416      1.0  0.23638  0.58541  0.34626  1.0000
  C   C417      1.0  0.48167  0.44479  0.41681  1.0000
  C   C418      1.0  0.47965  0.55936  0.40279  1.0000
  H   H656      1.0  0.01082  0.54948  0.37458  1.0000
  C   C419      1.0  0.46725  0.37655  0.42626  1.0000
  C   C420      1.0  0.46191  0.45859  0.42191  1.0000
  H   H657      1.0  0.25308  0.58986  0.31804  1.0000
  H   H658      1.0  0.17644  0.32334  0.23219  1.0000
  C   C421      1.0  0.17452  0.63618  0.25221  1.0000
  C   C422      1.0  0.46128  0.43522  0.44530  1.0000
  C   C423      1.0  0.45184  0.45387  0.43621  1.0000
  H   H659      1.0  0.11820  0.63311  0.36260  1.0000
  N   N43       1.0  0.48073  0.54008  0.39538  1.0000
  H   H660      1.0  0.45321  0.43149  0.45630  1.0000
  H   H661      1.0  0.43661  0.46442  0.44024  1.0000
  H   H662      1.0  0.40524  0.55866  0.46685  1.0000
  C   C424      1.0  0.43642  0.60435  0.40786  1.0000
  C   C425      1.0  0.44211  0.62170  0.39666  1.0000
  C   C426      1.0  0.46167  0.61506  0.42144  1.0000
  C   C427      1.0  0.44624  0.60110  0.42029  1.0000
  H   H663      1.0  0.22937  0.49304  0.44677  1.0000
  H   H664      1.0  0.43459  0.62434  0.38701  1.0000
  H   H665      1.0  0.44191  0.58788  0.42902  1.0000
  C   C428      1.0  0.21276  0.39331  0.35312  1.0000
  C   C429      1.0  0.20084  0.40750  0.34292  1.0000
  C   C430      1.0  0.19162  0.39834  0.33326  1.0000
  C   C431      1.0  0.19385  0.37492  0.33379  1.0000
  C   C432      1.0  0.20542  0.36078  0.34417  1.0000
  C   C433      1.0  0.21480  0.36994  0.35375  1.0000
  H   H666      1.0  0.19863  0.42546  0.34253  1.0000
  H   H667      1.0  0.18255  0.40942  0.32534  1.0000
  H   H668      1.0  0.20725  0.34275  0.34476  1.0000
  H   H669      1.0  0.22374  0.35876  0.36170  1.0000
  C   C434      1.0  0.30650  0.47722  0.39534  1.0000
  C   C435      1.0  0.29768  0.50010  0.39373  1.0000
  C   C436      1.0  0.30718  0.51501  0.39961  1.0000
  C   C437      1.0  0.32588  0.50737  0.40692  1.0000
  C   C438      1.0  0.33504  0.48458  0.40821  1.0000
  C   C439      1.0  0.32532  0.46961  0.40253  1.0000
  H   H670      1.0  0.28346  0.50630  0.38805  1.0000
  H   H671      1.0  0.30005  0.53261  0.39848  1.0000
  H   H672      1.0  0.34935  0.47840  0.41384  1.0000
  H   H673      1.0  0.33235  0.45197  0.40380  1.0000
  C   C440      1.0  0.11936  0.47782  0.41679  1.0000
  C   C441      1.0  0.13899  0.46236  0.41379  1.0000
  C   C442      1.0  0.15916  0.46981  0.40636  1.0000
  C   C443      1.0  0.15982  0.49281  0.40216  1.0000
  C   C444      1.0  0.14030  0.50824  0.40532  1.0000
  C   C445      1.0  0.12005  0.50077  0.41247  1.0000
  H   H674      1.0  0.13865  0.44466  0.41749  1.0000
  H   H675      1.0  0.17434  0.45788  0.40429  1.0000
  H   H676      1.0  0.14077  0.52605  0.40216  1.0000
  H   H677      1.0  0.10502  0.51281  0.41469  1.0000
  C   C446      1.0  0.02358  0.59585  0.40355  1.0000
  H   H678      1.0  0.00438  0.58723  0.42444  1.0000
  H   H679      1.0  0.48953  0.44839  0.40575  1.0000
  H   H680      1.0  0.21978  0.51118  0.40892  1.0000
  C   C447      1.0  0.23710  0.48071  0.43944  1.0000
  C   C448      1.0  0.19931  0.57189  0.32579  1.0000
  C   C449      1.0  0.19623  0.55556  0.33801  1.0000
  C   C450      1.0  0.21091  0.53508  0.33922  1.0000
  C   C451      1.0  0.22857  0.53060  0.32810  1.0000
  C   C452      1.0  0.23157  0.54681  0.31577  1.0000
  C   C453      1.0  0.21699  0.56749  0.31462  1.0000
  H   H681      1.0  0.18255  0.55885  0.34666  1.0000
  H   H682      1.0  0.20843  0.52272  0.34877  1.0000
  H   H683      1.0  0.24517  0.54337  0.30710  1.0000
  H   H684      1.0  0.21931  0.57991  0.30508  1.0000
  C   C454      1.0  0.23831  0.62512  0.34268  1.0000
  H   H685      1.0  0.47640  0.51636  0.41486  1.0000
  C   C455      1.0  0.16069  0.32745  0.22726  1.0000
  H   H686      1.0  0.43412  0.33595  0.43937  1.0000
  H   H687      1.0  0.46532  0.37861  0.41479  1.0000
  H   H688      1.0  0.46917  0.61246  0.43109  1.0000
  H   H689      1.0  0.27527  0.59705  0.35008  1.0000
  S   S190      1.0  0.01160  0.53853  0.43991  1.0000
  C   C456      1.0  0.45747  0.63566  0.39781  1.0000
  C   C457      1.0  0.19166  0.64886  0.24567  1.0000
  C   C458      1.0  0.07053  0.64126  0.38705  1.0000
  H   H690      1.0  0.24655  0.63934  0.33613  1.0000
  C   C459      1.0  0.00899  0.63128  0.38966  1.0000
  H   H691      1.0  0.47384  0.57552  0.39608  1.0000
  H   H692      1.0  0.28045  0.58239  0.33501  1.0000
  C   C460      1.0  0.47777  0.33639  0.42773  1.0000
  S   S191      1.0  0.16510  0.64833  0.29480  1.0000
  C   C461      1.0  0.16304  0.62709  0.24377  1.0000
  H   H693      1.0  0.00893  0.43980  0.40027  1.0000
  N   N44       1.0  0.46214  0.35450  0.43421  1.0000
  H   H694      1.0  0.06997  0.62334  0.39195  1.0000
  H   H695      1.0  0.07518  0.52916  0.47055  1.0000
  H   H696      1.0  0.47605  0.33710  0.41632  1.0000
  H   H697      1.0  0.45145  0.55497  0.38532  1.0000
  H   H698      1.0  0.47469  0.31945  0.43353  1.0000
  H   H699      1.0  0.48284  0.35347  0.45022  1.0000
  C   C462      1.0  0.99439  0.44718  0.40712  1.0000
  C   C463      1.0  0.02496  0.61168  0.39097  1.0000
  H   H700      1.0  0.44563  0.53794  0.40231  1.0000
  C   C464      1.0  0.46503  0.35266  0.44933  1.0000
  N   N45       1.0  0.25175  0.44291  0.31540  1.0000
  C   C465      1.0  0.25480  0.42096  0.32487  1.0000
  C   C466      1.0  0.27075  0.45503  0.31522  1.0000
  C   C467      1.0  0.23022  0.45643  0.32076  1.0000
  C   C468      1.0  0.25118  0.43929  0.30071  1.0000
  H   H701      1.0  0.24140  0.41087  0.32468  1.0000
  H   H702      1.0  0.25404  0.42299  0.33624  1.0000
  H   H703      1.0  0.27139  0.41074  0.32159  1.0000
  H   H704      1.0  0.26876  0.47187  0.30838  1.0000
  H   H705      1.0  0.27168  0.45804  0.32613  1.0000
  H   H706      1.0  0.28732  0.44550  0.31114  1.0000
  H   H707      1.0  0.22771  0.47341  0.31413  1.0000
  H   H708      1.0  0.22995  0.45916  0.33190  1.0000
  H   H709      1.0  0.21542  0.44812  0.32073  1.0000
  H   H710      1.0  0.24886  0.45554  0.29329  1.0000
  H   H711      1.0  0.23698  0.43022  0.30047  1.0000
  H   H712      1.0  0.26716  0.42912  0.29632  1.0000
  S   S192      1.0  0.22034  0.63471  0.29383  1.0000
  H   H713      1.0  0.22584  0.46768  0.44119  1.0000
  H   H714      1.0  0.10824  0.61406  0.37813  1.0000
  H   H715      1.0  0.24009  0.62444  0.35406  1.0000
  H   H716      1.0  0.46074  0.33651  0.45578  1.0000
  C   C469      1.0  0.00556  0.59930  0.41467  1.0000
  H   H717      1.0  0.20954  0.51550  0.42709  1.0000
  H   H718      1.0  0.45428  0.36666  0.45443  1.0000
  H   H719      1.0  0.24269  0.56913  0.34224  1.0000
  C   C470      1.0  0.07419  0.63230  0.36327  1.0000
  H   H720      1.0  0.23861  0.58286  0.35770  1.0000
  C   C471      1.0  0.99644  0.46453  0.41428  1.0000
  H   H721      1.0  0.22737  0.60902  0.32124  1.0000
  H   H722      1.0  0.20627  0.49021  0.42131  1.0000
  H   H723      1.0  0.21784  0.58918  0.34589  1.0000
  C   C472      1.0  0.21799  0.50264  0.42029  1.0000
  H   H724      1.0  0.07485  0.61397  0.36719  1.0000
  N   N46       1.0  0.14985  0.41866  0.38009  1.0000
  C   C473      1.0  0.15998  0.39471  0.38111  1.0000
  C   C474      1.0  0.13940  0.42565  0.36692  1.0000
  C   C475      1.0  0.16767  0.43244  0.37954  1.0000
  C   C476      1.0  0.13238  0.42184  0.39276  1.0000
  H   H725      1.0  0.16869  0.38898  0.39066  1.0000
  H   H726      1.0  0.17286  0.39162  0.37157  1.0000
  H   H727      1.0  0.14698  0.38373  0.38181  1.0000
  H   H728      1.0  0.12584  0.41562  0.36696  1.0000
  H   H729      1.0  0.13171  0.44369  0.36576  1.0000
  H   H730      1.0  0.15215  0.42329  0.35717  1.0000
  H   H731      1.0  0.17660  0.42704  0.38902  1.0000
  H   H732      1.0  0.16056  0.45056  0.37926  1.0000
  H   H733      1.0  0.18071  0.43097  0.36986  1.0000
  H   H734      1.0  0.11839  0.41207  0.39338  1.0000
  H   H735      1.0  0.12469  0.43983  0.39254  1.0000
  H   H736      1.0  0.13966  0.41629  0.40288  1.0000
  H   H737      1.0  0.01255  0.47039  0.41301  1.0000
  C   C477      1.0  0.45798  0.53938  0.39228  1.0000
  H   H738      1.0  0.02087  0.31843  0.37737  1.0000
  H   H739      1.0  0.11577  0.64017  0.38020  1.0000
  H   H740      1.0  0.45776  0.52467  0.38709  1.0000
  C   C478      1.0  0.46735  0.63240  0.41021  1.0000
  H   H741      1.0  0.01038  0.64348  0.37995  1.0000
  N   N47       1.0  0.24019  0.49175  0.42432  1.0000
  C   C479      1.0  0.48843  0.51901  0.40465  1.0000
  C   C480      1.0  0.16896  0.63021  0.22879  1.0000
  H   H742      1.0  0.03847  0.60876  0.38221  1.0000
  Fe  Fe100     1.0  0.18903  0.62881  0.30963  1.0000
  H   H743      1.0  0.00614  0.32529  0.35433  1.0000
  C   C481      1.0  0.43854  0.35244  0.43352  1.0000
  H   H744      1.0  0.00611  0.57120  0.38551  1.0000
  C   C482      1.0  0.00703  0.55282  0.38581  1.0000
  C   C483      1.0  0.25527  0.50883  0.42245  1.0000
  C   C484      1.0  0.25047  0.47475  0.41504  1.0000
  H   H745      1.0  0.24844  0.52161  0.42959  1.0000
  H   H746      1.0  0.25747  0.51788  0.41124  1.0000
  H   H747      1.0  0.27250  0.50107  0.42487  1.0000
  H   H748      1.0  0.23977  0.46139  0.41627  1.0000
  H   H749      1.0  0.25280  0.48243  0.40353  1.0000
  H   H750      1.0  0.25360  0.47231  0.44274  1.0000
  H   H751      1.0  0.26747  0.46640  0.41754  1.0000
  H   H752      1.0  0.99600  0.54133  0.41402  1.0000
  H   H753      1.0  0.14968  0.61740  0.24885  1.0000
  H   H754      1.0  0.02181  0.54444  0.39117  1.0000
  H   H755      1.0  0.46741  0.55808  0.41298  1.0000
  S   S193      1.0  0.49160  0.39754  0.45175  1.0000
  H   H756      1.0  0.21992  0.62933  0.34189  1.0000
  H   H757      1.0  0.01821  0.42951  0.45956  1.0000
  H   H758      1.0  0.28194  0.61194  0.33220  1.0000
  H   H759      1.0  0.42634  0.36587  0.43838  1.0000
  H   H760      1.0  0.25384  0.61956  0.31555  1.0000
  N   N48       1.0  0.24823  0.60365  0.33757  1.0000
  S   S194      1.0  0.39572  0.51263  0.47150  1.0000
  N   N49       1.0  0.08411  0.64325  0.37256  1.0000
  H   H761      1.0  0.46163  0.64897  0.38911  1.0000
  C   C485      1.0  0.27257  0.59854  0.33879  1.0000
  H   H762      1.0  0.04755  0.32038  0.35407  1.0000
  H   H763      1.0  0.15160  0.34382  0.23016  1.0000
  S   S195      1.0  0.15088  0.32412  0.30760  1.0000
  H   H764      1.0  0.00989  0.40484  0.44392  1.0000
  H   H765      1.0  0.05613  0.63964  0.36283  1.0000
  H   H766      1.0  0.43578  0.35383  0.42224  1.0000
  C   C486      1.0  0.48099  0.42139  0.44021  1.0000
  H   H767      1.0  0.07753  0.64924  0.39440  1.0000
  H   H768      1.0  0.45592  0.39067  0.43095  1.0000
  H   H769      1.0  0.48489  0.37871  0.42663  1.0000
  H   H770      1.0  0.08329  0.63446  0.35206  1.0000
  C   C487      1.0  0.00014  0.43745  0.46041  1.0000
  H   H771      1.0  0.49124  0.55835  0.37459  1.0000
  H   H772      1.0  0.99530  0.44381  0.47083  1.0000
  C   C488      1.0  0.49129  0.42629  0.42595  1.0000
  H   H773      1.0  0.99905  0.45236  0.45176  1.0000
  H   H774      1.0  0.05270  0.64959  0.38674  1.0000
  S   S196      1.0  0.48695  0.64948  0.41201  1.0000
  C   C489      1.0  0.40885  0.57442  0.61383  1.0000
  Fe  Fe101     1.0  0.08776  0.53447  0.53942  1.0000
  S   S197      1.0  0.05295  0.53551  0.55217  1.0000
  S   S198      1.0  0.09694  0.53867  0.51534  1.0000
  Fe  Fe102     1.0  0.11088  0.52980  0.56604  1.0000
  S   S199      1.0  0.07761  0.53041  0.58106  1.0000
  S   S200      1.0  0.14606  0.53422  0.56888  1.0000
  Fe  Fe103     1.0  0.06920  0.50756  0.56737  1.0000
  S   S201      1.0  0.05462  0.47514  0.57553  1.0000
  Fe  Fe104     1.0  0.06402  0.55824  0.56454  1.0000
  S   S202      1.0  0.04465  0.59310  0.56602  1.0000
  S   S203      1.0  0.10362  0.50493  0.55365  1.0000
  S   S204      1.0  0.09760  0.55917  0.55055  1.0000
  H   H775      1.0  0.33772  0.46777  0.62226  1.0000
  C   C490      1.0  0.35324  0.55407  0.52807  1.0000
  H   H776      1.0  0.11293  0.61937  0.59907  1.0000
  S   S205      1.0  0.28543  0.35217  0.65210  1.0000
  H   H777      1.0  0.33113  0.44629  0.63723  1.0000
  Fe  Fe105     1.0  0.43540  0.55805  0.53325  1.0000
  S   S206      1.0  0.43741  0.52350  0.54625  1.0000
  S   S207      1.0  0.41993  0.57105  0.51298  1.0000
  Fe  Fe106     1.0  0.46024  0.57577  0.55319  1.0000
  S   S208      1.0  0.46507  0.54229  0.56740  1.0000
  Fe  Fe107     1.0  0.42894  0.54115  0.56548  1.0000
  S   S209      1.0  0.40344  0.53628  0.58560  1.0000
  S   S210      1.0  0.42366  0.57540  0.55245  1.0000
  H   H778      1.0  0.02996  0.63816  0.57184  1.0000
  S   S211      1.0  0.33496  0.62143  0.70287  1.0000
  H   H779      1.0  0.09278  0.44544  0.53475  1.0000
  C   C491      1.0  0.04669  0.53002  0.48756  1.0000
  H   H780      1.0  0.09190  0.61215  0.50435  1.0000
  Fe  Fe108     1.0  0.30877  0.62454  0.68861  1.0000
  S   S212      1.0  0.29136  0.59516  0.68798  1.0000
  H   H781      1.0  0.45146  0.55247  0.61354  1.0000
  Fe  Fe109     1.0  0.28763  0.50231  0.60657  1.0000
  S   S213      1.0  0.29941  0.50625  0.62653  1.0000
  S   S214      1.0  0.31419  0.49550  0.58742  1.0000
  Fe  Fe110     1.0  0.23776  0.50607  0.62063  1.0000
  S   S215      1.0  0.24638  0.51068  0.64164  1.0000
  S   S216      1.0  0.20107  0.50174  0.62124  1.0000
  Fe  Fe111     1.0  0.26975  0.53380  0.62823  1.0000
  S   S217      1.0  0.27501  0.56857  0.63050  1.0000
  Fe  Fe112     1.0  0.27524  0.48266  0.63783  1.0000
  S   S218      1.0  0.28651  0.45441  0.65513  1.0000
  S   S219      1.0  0.25910  0.53126  0.60739  1.0000
  S   S220      1.0  0.26539  0.47664  0.61774  1.0000
  H   H782      1.0  0.07963  0.58869  0.50204  1.0000
  C   C492      1.0  0.43861  0.59720  0.61026  1.0000
  C   C493      1.0  0.40318  0.52895  0.48269  1.0000
  H   H783      1.0  0.10251  0.46356  0.51869  1.0000
  H   H784      1.0  0.41252  0.56663  0.62474  1.0000
  H   H785      1.0  0.34418  0.39953  0.61599  1.0000
  C   C494      1.0  0.28937  0.58655  0.67178  1.0000
  C   C495      1.0  0.27932  0.56745  0.67234  1.0000
  C   C496      1.0  0.27561  0.56121  0.65971  1.0000
  C   C497      1.0  0.28151  0.57435  0.64645  1.0000
  C   C498      1.0  0.29172  0.59335  0.64588  1.0000
  C   C499      1.0  0.29600  0.59923  0.65846  1.0000
  H   H786      1.0  0.27414  0.55757  0.68261  1.0000
  H   H787      1.0  0.26766  0.54659  0.66026  1.0000
  H   H788      1.0  0.29640  0.60350  0.63563  1.0000
  H   H789      1.0  0.30410  0.61373  0.65785  1.0000
  C   C500      1.0  0.37875  0.52518  0.58549  1.0000
  C   C501      1.0  0.37855  0.50938  0.57675  1.0000
  C   C502      1.0  0.35857  0.50054  0.57722  1.0000
  C   C503      1.0  0.33882  0.50739  0.58646  1.0000
  C   C504      1.0  0.33903  0.52344  0.59498  1.0000
  C   C505      1.0  0.35898  0.53211  0.59460  1.0000
  H   H790      1.0  0.39389  0.50367  0.56987  1.0000
  H   H791      1.0  0.35851  0.48812  0.57060  1.0000
  H   H792      1.0  0.32377  0.52936  0.60181  1.0000
  H   H793      1.0  0.35899  0.54433  0.60139  1.0000
  H   H794      1.0  0.34621  0.59307  0.53828  1.0000
  H   H795      1.0  0.41108  0.60660  0.59043  1.0000
  H   H796      1.0  0.06687  0.47748  0.54363  1.0000
  C   C506      1.0  0.41443  0.55413  0.50142  1.0000
  C   C507      1.0  0.41119  0.53180  0.50625  1.0000
  C   C508      1.0  0.40523  0.51941  0.49696  1.0000
  Fe  Fe113     1.0  0.47326  0.52761  0.54691  1.0000
  H   H797      1.0  0.41282  0.52419  0.51716  1.0000
  H   H798      1.0  0.40226  0.50227  0.50080  1.0000
  C   C509      1.0  0.28798  0.38020  0.65256  1.0000
  C   C510      1.0  0.28066  0.39706  0.64164  1.0000
  C   C511      1.0  0.28091  0.41977  0.64209  1.0000
  C   C512      1.0  0.28788  0.42589  0.65367  1.0000
  C   C513      1.0  0.29568  0.40902  0.66445  1.0000
  C   C514      1.0  0.29592  0.38621  0.66385  1.0000
  H   H799      1.0  0.27468  0.39247  0.63282  1.0000
  H   H800      1.0  0.27552  0.43253  0.63355  1.0000
  H   H801      1.0  0.30124  0.41360  0.67342  1.0000
  H   H802      1.0  0.30154  0.37332  0.67235  1.0000
  C   C515      1.0  0.03206  0.46921  0.56827  1.0000
  C   C516      1.0  0.02775  0.44699  0.57026  1.0000
  H   H803      1.0  0.44918  0.49205  0.50245  1.0000
  H   H804      1.0  0.00735  0.42449  0.56567  1.0000
  H   H805      1.0  0.33725  0.56482  0.52548  1.0000
  C   C517      1.0  0.06418  0.48413  0.53238  1.0000
  H   H806      1.0  0.03809  0.43377  0.57639  1.0000
  C   C518      1.0  0.37985  0.54289  0.54475  1.0000
  H   H807      1.0  0.48086  0.47878  0.51706  1.0000
  H   H808      1.0  0.05171  0.44350  0.54192  1.0000
  C   C519      1.0  0.16099  0.52456  0.58356  1.0000
  C   C520      1.0  0.15137  0.51281  0.59649  1.0000
  C   C521      1.0  0.16384  0.50601  0.60796  1.0000
  C   C522      1.0  0.18600  0.51078  0.60657  1.0000
  C   C523      1.0  0.19552  0.52264  0.59367  1.0000
  C   C524      1.0  0.18302  0.52954  0.58225  1.0000
  H   H809      1.0  0.13444  0.50885  0.59762  1.0000
  H   H810      1.0  0.15635  0.49685  0.61792  1.0000
  H   H811      1.0  0.21254  0.52643  0.59248  1.0000
  H   H812      1.0  0.19058  0.53865  0.57228  1.0000
  C   C525      1.0  0.04173  0.60462  0.58188  1.0000
  C   C526      1.0  0.03413  0.62770  0.58167  1.0000
  N   N50       1.0  0.06633  0.46579  0.52398  1.0000
  C   C527      1.0  0.03731  0.62401  0.60683  1.0000
  C   C528      1.0  0.04468  0.60089  0.60708  1.0000
  C   C529      1.0  0.04684  0.59121  0.59466  1.0000
  C   C530      1.0  0.41222  0.56372  0.48719  1.0000
  H   H813      1.0  0.06430  0.46204  0.50245  1.0000
  H   H814      1.0  0.04864  0.59041  0.61694  1.0000
  H   H815      1.0  0.05213  0.57334  0.59502  1.0000
  C   C531      1.0  0.01037  0.44169  0.56419  1.0000
  C   C532      1.0  0.01224  0.61206  0.65837  1.0000
  C   C533      1.0  0.08462  0.53389  0.49028  1.0000
  C   C534      1.0  0.07729  0.53571  0.50478  1.0000
  C   C535      1.0  0.05457  0.53501  0.51061  1.0000
  C   C536      1.0  0.03929  0.53232  0.50200  1.0000
  H   H816      1.0  0.46953  0.64980  0.56660  1.0000
  H   H817      1.0  0.10220  0.53447  0.48570  1.0000
  H   H818      1.0  0.04872  0.53646  0.52175  1.0000
  H   H819      1.0  0.02171  0.53167  0.50656  1.0000
  H   H820      1.0  0.35124  0.53628  0.52842  1.0000
  H   H821      1.0  0.46388  0.53782  0.50098  1.0000
  H   H822      1.0  0.05045  0.62411  0.53701  1.0000
  H   H823      1.0  0.45388  0.60274  0.60312  1.0000
  H   H824      1.0  0.14427  0.56080  0.60280  1.0000
  S   S221      1.0  0.03551  0.63536  0.62262  1.0000
  C   C537      1.0  0.36178  0.58133  0.54064  1.0000
  C   C538      1.0  0.36778  0.42991  0.61998  1.0000
  H   H825      1.0  0.35132  0.45809  0.59810  1.0000
  C   C539      1.0  0.10311  0.60613  0.59829  1.0000
  N   N51       1.0  0.35869  0.55767  0.54176  1.0000
  H   H826      1.0  0.35321  0.42969  0.59510  1.0000
  S   S222      1.0  0.34229  0.32134  0.66621  1.0000
  H   H827      1.0  0.46762  0.48464  0.48664  1.0000
  C   C540      1.0  0.03194  0.63740  0.59410  1.0000
  H   H828      1.0  0.07690  0.49554  0.52770  1.0000
  H   H829      1.0  0.32386  0.56332  0.55179  1.0000
  C   C541      1.0  0.04937  0.45093  0.53071  1.0000
  C   C542      1.0  0.06625  0.61773  0.53010  1.0000
  H   H830      1.0  0.33728  0.53460  0.55464  1.0000
  H   H831      1.0  0.37588  0.58574  0.53190  1.0000
  H   H832      1.0  0.01602  0.60498  0.66935  1.0000
  H   H833      1.0  0.42868  0.63368  0.65433  1.0000
  C   C543      1.0  0.99695  0.45871  0.55629  1.0000
  C   C544      1.0  0.23704  0.62705  0.66602  1.0000
  H   H834      1.0  0.04288  0.61466  0.50114  1.0000
  H   H835      1.0  0.07687  0.60589  0.53738  1.0000
  H   H836      1.0  0.03181  0.46028  0.53111  1.0000
  H   H837      1.0  0.27550  0.63843  0.67101  1.0000
  S   S223      1.0  0.47161  0.56132  0.53277  1.0000
  H   H838      1.0  0.02137  0.50336  0.55901  1.0000
  C   C545      1.0  0.00101  0.48094  0.55450  1.0000
  H   H839      1.0  0.46230  0.56478  0.59572  1.0000
  H   H840      1.0  0.12227  0.57145  0.61614  1.0000
  H   H841      1.0  0.42602  0.61255  0.61159  1.0000
  H   H842      1.0  0.36863  0.42368  0.63155  1.0000
  H   H843      1.0  0.05047  0.43684  0.52471  1.0000
  H   H844      1.0  0.21616  0.64603  0.68895  1.0000
  H   H845      1.0  0.03387  0.59268  0.53341  1.0000
  H   H846      1.0  0.39542  0.58922  0.61498  1.0000
  C   C546      1.0  0.42373  0.59110  0.58995  1.0000
  H   H847      1.0  0.09163  0.43868  0.51751  1.0000
  C   C547      1.0  0.06938  0.53089  0.48168  1.0000
  H   H848      1.0  0.37832  0.41704  0.61380  1.0000
  C   C548      1.0  0.49083  0.59621  0.57950  1.0000
  C   C549      1.0  0.34012  0.55233  0.55355  1.0000
  H   H849      1.0  0.37576  0.44546  0.61691  1.0000
  N   N52       1.0  0.11816  0.58566  0.59438  1.0000
  C   C550      1.0  0.13266  0.59134  0.58048  1.0000
  S   S224      1.0  0.02715  0.52533  0.47750  1.0000
  H   H850      1.0  0.44017  0.54790  0.59851  1.0000
  C   C551      1.0  0.10427  0.56888  0.59318  1.0000
  H   H851      1.0  0.12238  0.59785  0.57171  1.0000
  H   H852      1.0  0.09214  0.60254  0.60884  1.0000
  H   H853      1.0  0.14312  0.60426  0.58089  1.0000
  Fe  Fe114     1.0  0.35242  0.64435  0.68474  1.0000
  C   C552      1.0  0.40691  0.55111  0.47780  1.0000
  H   H854      1.0  0.09161  0.61335  0.59024  1.0000
  H   H855      1.0  0.04427  0.57921  0.51783  1.0000
  H   H856      1.0  0.14331  0.58842  0.60678  1.0000
  H   H857      1.0  0.09246  0.56481  0.60328  1.0000
  H   H858      1.0  0.11501  0.55290  0.59081  1.0000
  C   C553      1.0  0.47797  0.63596  0.57342  1.0000
  N   N53       1.0  0.24025  0.64863  0.66951  1.0000
  H   H859      1.0  0.33303  0.40733  0.63332  1.0000
  S   S225      1.0  0.46752  0.60941  0.55634  1.0000
  H   H860      1.0  0.04708  0.49443  0.53277  1.0000
  C   C554      1.0  0.44660  0.56061  0.60297  1.0000
  C   C555      1.0  0.33410  0.41331  0.62156  1.0000
  C   C556      1.0  0.47971  0.61394  0.57071  1.0000
  N   N54       1.0  0.21189  0.43984  0.64661  1.0000
  C   C557      1.0  0.21680  0.41770  0.65559  1.0000
  C   C558      1.0  0.18720  0.44760  0.64851  1.0000
  C   C559      1.0  0.22022  0.43792  0.63137  1.0000
  C   C560      1.0  0.22330  0.45625  0.65093  1.0000
  H   H861      1.0  0.23535  0.41161  0.65460  1.0000
  H   H862      1.0  0.20885  0.40474  0.65246  1.0000
  H   H863      1.0  0.21050  0.41847  0.66714  1.0000
  H   H864      1.0  0.17797  0.43562  0.64541  1.0000
  H   H865      1.0  0.18033  0.44957  0.65984  1.0000
  H   H866      1.0  0.18306  0.46423  0.64174  1.0000
  H   H867      1.0  0.21158  0.42606  0.62766  1.0000
  H   H868      1.0  0.23868  0.43172  0.62952  1.0000
  H   H869      1.0  0.21726  0.45444  0.62431  1.0000
  H   H870      1.0  0.21964  0.47322  0.64456  1.0000
  H   H871      1.0  0.24197  0.45131  0.64937  1.0000
  H   H872      1.0  0.21778  0.45787  0.66243  1.0000
  H   H873      1.0  0.03034  0.62893  0.51606  1.0000
  H   H874      1.0  0.37818  0.52485  0.54587  1.0000
  C   C561      1.0  0.13261  0.57620  0.60553  1.0000
  C   C562      1.0  0.23413  0.64834  0.68514  1.0000
  H   H875      1.0  0.34396  0.55448  0.56407  1.0000
  N   N55       1.0  0.42945  0.58084  0.60427  1.0000
  H   H876      1.0  0.36604  0.58459  0.55077  1.0000
  H   H877      1.0  0.05512  0.63740  0.50442  1.0000
  S   S226      1.0  0.38937  0.63498  0.67581  1.0000
  H   H878      1.0  0.07542  0.63216  0.52532  1.0000
  H   H879      1.0  0.14454  0.57633  0.57737  1.0000
  H   H880      1.0  0.44368  0.58990  0.62092  1.0000
  C   C563      1.0  0.04676  0.62262  0.50973  1.0000
  N   N56       1.0  0.34414  0.43426  0.61720  1.0000
  H   H881      1.0  0.31662  0.41580  0.61900  1.0000
  C   C564      1.0  0.06248  0.47536  0.50918  1.0000
  C   C565      1.0  0.04936  0.58740  0.52588  1.0000
  C   C566      1.0  0.08934  0.45276  0.52371  1.0000
  H   H882      1.0  0.07470  0.48702  0.50385  1.0000
  H   H883      1.0  0.41456  0.58104  0.48341  1.0000
  H   H884      1.0  0.09398  0.57502  0.58438  1.0000
  C   C567      1.0  0.34372  0.44237  0.60176  1.0000
  C   C568      1.0  0.46188  0.49819  0.49333  1.0000
  H   H885      1.0  0.43894  0.59578  0.58240  1.0000
  C   C569      1.0  0.01853  0.48616  0.56041  1.0000
  C   C570      1.0  0.08269  0.59819  0.51014  1.0000
  S   S227      1.0  0.01114  0.34104  0.55417  1.0000
  H   H886      1.0  0.39407  0.54627  0.53599  1.0000
  H   H887      1.0  0.06045  0.57441  0.53216  1.0000
  H   H888      1.0  0.46008  0.51698  0.51666  1.0000
  H   H889      1.0  0.41661  0.57931  0.58515  1.0000
  H   H890      1.0  0.36693  0.55815  0.51896  1.0000
  H   H891      1.0  0.99412  0.61380  0.63503  1.0000
  H   H892      1.0  0.31291  0.45495  0.62392  1.0000
  H   H893      1.0  0.40162  0.56200  0.60958  1.0000
  H   H894      1.0  0.32605  0.44637  0.59935  1.0000
  C   C571      1.0  0.33094  0.45156  0.62551  1.0000
  H   H895      1.0  0.38481  0.54557  0.55481  1.0000
  H   H896      1.0  0.24491  0.63443  0.69117  1.0000
  N   N57       1.0  0.06127  0.60652  0.51895  1.0000
  H   H897      1.0  0.09428  0.58644  0.51685  1.0000
  H   H898      1.0  0.24710  0.61258  0.67207  1.0000
  H   H899      1.0  0.02243  0.60094  0.65084  1.0000
  C   C572      1.0  0.47249  0.52250  0.50720  1.0000
  N   N58       1.0  0.48101  0.50447  0.49842  1.0000
  S   S228      1.0  0.32756  0.64500  0.66999  1.0000
  H   H900      1.0  0.04513  0.48504  0.50898  1.0000
  H   H901      1.0  0.21900  0.62448  0.66879  1.0000
  H   H902      1.0  0.24255  0.62607  0.65442  1.0000
  Fe  Fe115     1.0  0.30612  0.32213  0.66392  1.0000
  H   H903      1.0  0.48649  0.52744  0.51136  1.0000
  H   H904      1.0  0.48926  0.52751  0.47914  1.0000
  H   H905      1.0  0.01852  0.62850  0.65521  1.0000
  H   H906      1.0  0.45293  0.51277  0.48667  1.0000
  C   C573      1.0  0.48711  0.64028  0.58489  1.0000
  C   C574      1.0  0.49237  0.48468  0.50717  1.0000
  H   H907      1.0  0.49271  0.57925  0.57732  1.0000
  Fe  Fe116     1.0  0.43290  0.40477  0.92646  1.0000
  S   S229      1.0  0.43259  0.37917  0.94661  1.0000
  S   S230      1.0  0.40152  0.42617  0.91911  1.0000
  N   N59       1.0  0.25943  0.36766  0.92321  1.0000
  S   S231      1.0  0.39498  0.63015  0.84485  1.0000
  Fe  Fe117     1.0  0.45939  0.35855  0.93295  1.0000
  H   H908      1.0  0.02660  0.34461  0.95369  1.0000
  Fe  Fe118     1.0  0.46116  0.39483  0.95051  1.0000
  S   S232      1.0  0.45782  0.38306  0.91249  1.0000
  S   S233      1.0  0.45932  0.42222  0.93156  1.0000
  Fe  Fe119     1.0  0.30590  0.40505  0.88805  1.0000
  S   S234      1.0  0.32337  0.42204  0.86740  1.0000
  S   S235      1.0  0.32542  0.38084  0.90378  1.0000
  Fe  Fe120     1.0  0.25875  0.42592  0.88151  1.0000
  S   S236      1.0  0.27235  0.44493  0.86011  1.0000
  S   S237      1.0  0.22185  0.43043  0.89199  1.0000
  Fe  Fe121     1.0  0.29617  0.41252  0.85772  1.0000
  S   S238      1.0  0.30774  0.39764  0.83732  1.0000
  Fe  Fe122     1.0  0.29849  0.45290  0.87145  1.0000
  S   S239      1.0  0.30903  0.48657  0.87186  1.0000
  S   S240      1.0  0.28055  0.39307  0.87816  1.0000
  S   S241      1.0  0.28303  0.43640  0.89306  1.0000
  Fe  Fe123     1.0  0.35158  0.59035  0.81990  1.0000
  S   S242      1.0  0.38345  0.60552  0.81166  1.0000
  S   S243      1.0  0.34854  0.55442  0.81854  1.0000
  Fe  Fe124     1.0  0.36171  0.63281  0.79900  1.0000
  C   C575      1.0  0.47286  0.62541  0.86435  1.0000
  Fe  Fe125     1.0  0.37225  0.62653  0.82931  1.0000
  Fe  Fe126     1.0  0.48415  0.39821  0.91944  1.0000
  S   S244      1.0  0.33081  0.61611  0.80582  1.0000
  S   S245      1.0  0.34192  0.60892  0.83861  1.0000
  H   H909      1.0  0.31027  0.33894  0.79804  1.0000
  Fe  Fe127     1.0  0.08381  0.39308  0.91966  1.0000
  S   S246      1.0  0.06042  0.36820  0.92940  1.0000
  S   S247      1.0  0.07308  0.42998  0.91184  1.0000
  Fe  Fe128     1.0  0.12584  0.35777  0.92092  1.0000
  H   H910      1.0  0.28477  0.35605  0.80467  1.0000
  S   S248      1.0  0.16389  0.35071  0.91372  1.0000
  Fe  Fe129     1.0  0.08210  0.34501  0.91509  1.0000
  H   H911      1.0  0.47558  0.33413  0.96046  1.0000
  Fe  Fe130     1.0  0.08536  0.35487  0.94472  1.0000
  H   H912      1.0  0.41652  0.64455  0.86480  1.0000
  S   S249      1.0  0.10378  0.37118  0.90401  1.0000
  S   S250      1.0  0.10745  0.38162  0.93591  1.0000
  H   H913      1.0  0.30391  0.36745  0.78960  1.0000
  C   C576      1.0  0.04562  0.44227  0.91874  1.0000
  C   C577      1.0  0.03143  0.42983  0.92909  1.0000
  H   H914      1.0  0.29261  0.36110  0.92926  1.0000
  C   C578      1.0  0.26024  0.39188  0.91844  1.0000
  H   H915      1.0  0.01004  0.49237  0.91515  1.0000
  C   C579      1.0  0.03786  0.46489  0.91377  1.0000
  H   H916      1.0  0.03729  0.41254  0.93312  1.0000
  H   H917      1.0  0.32237  0.32413  0.82157  1.0000
  C   C580      1.0  0.26637  0.36294  0.78027  1.0000
  H   H918      1.0  0.04875  0.47465  0.90579  1.0000
  C   C581      1.0  0.35448  0.64878  0.76372  1.0000
  C   C582      1.0  0.29628  0.35215  0.79471  1.0000
  H   H919      1.0  0.48727  0.44742  0.90710  1.0000
  H   H920      1.0  0.26470  0.31846  0.78526  1.0000
  S   S251      1.0  0.06831  0.34605  0.96770  1.0000
  S   S252      1.0  0.06505  0.32922  0.90103  1.0000
  C   C583      1.0  0.05781  0.62686  0.86558  1.0000
  C   C584      1.0  0.27371  0.32483  0.79239  1.0000
  H   H921      1.0  0.06990  0.62475  0.87330  1.0000
  S   S253      1.0  0.10558  0.32970  0.93105  1.0000
  C   C585      1.0  0.00171  0.46237  0.92929  1.0000
  C   C586      1.0  0.26682  0.35567  0.91078  1.0000
  C   C587      1.0  0.47915  0.63796  0.83879  1.0000
  H   H922      1.0  0.46442  0.59821  0.84778  1.0000
  H   H923      1.0  0.27782  0.39500  0.91394  1.0000
  H   H924      1.0  0.25561  0.36189  0.90248  1.0000
  H   H925      1.0  0.06321  0.61317  0.85899  1.0000
  C   C588      1.0  0.31091  0.33509  0.82816  1.0000
  H   H926      1.0  0.26989  0.36772  0.94337  1.0000
  C   C589      1.0  0.20681  0.40755  0.89840  1.0000
  C   C590      1.0  0.21331  0.38720  0.89313  1.0000
  C   C591      1.0  0.20011  0.36981  0.89800  1.0000
  C   C592      1.0  0.18016  0.37279  0.90795  1.0000
  C   C593      1.0  0.17395  0.39298  0.91341  1.0000
  C   C594      1.0  0.18734  0.41021  0.90871  1.0000
  H   H927      1.0  0.22817  0.38504  0.88507  1.0000
  H   H928      1.0  0.20508  0.35416  0.89380  1.0000
  H   H929      1.0  0.15893  0.39521  0.92134  1.0000
  H   H930      1.0  0.18259  0.42573  0.91306  1.0000
  C   C595      1.0  0.31995  0.50509  0.85685  1.0000
  C   C596      1.0  0.32696  0.52460  0.85911  1.0000
  C   C597      1.0  0.33579  0.53983  0.84748  1.0000
  C   C598      1.0  0.33784  0.53558  0.83348  1.0000
  C   C599      1.0  0.33116  0.51591  0.83124  1.0000
  C   C600      1.0  0.32218  0.50073  0.84287  1.0000
  H   H931      1.0  0.32550  0.52796  0.86992  1.0000
  H   H932      1.0  0.34127  0.55472  0.84934  1.0000
  H   H933      1.0  0.33280  0.51244  0.82044  1.0000
  H   H934      1.0  0.31696  0.48570  0.84102  1.0000
  H   H935      1.0  0.26150  0.32860  0.80211  1.0000
  S   S254      1.0  0.48783  0.37192  0.93868  1.0000
  C   C601      1.0  0.31597  0.35640  0.82864  1.0000
  C   C602      1.0  0.30155  0.37057  0.83747  1.0000
  C   C603      1.0  0.28199  0.36334  0.84578  1.0000
  H   H936      1.0  0.04096  0.62429  0.87202  1.0000
  C   C604      1.0  0.27477  0.35885  0.93391  1.0000
  H   H937      1.0  0.33121  0.36185  0.82228  1.0000
  H   H938      1.0  0.27065  0.37424  0.85249  1.0000
  S   S255      1.0  0.47050  0.40188  0.97069  1.0000
  C   C605      1.0  0.37992  0.41266  0.91627  1.0000
  C   C606      1.0  0.38318  0.38951  0.91616  1.0000
  C   C607      1.0  0.36616  0.37966  0.91265  1.0000
  C   C608      1.0  0.34616  0.39301  0.90890  1.0000
  C   C609      1.0  0.34285  0.41607  0.90919  1.0000
  C   C610      1.0  0.35949  0.42575  0.91314  1.0000
  H   H939      1.0  0.39888  0.37928  0.91861  1.0000
  H   H940      1.0  0.36875  0.36178  0.91250  1.0000
  H   H941      1.0  0.32732  0.42643  0.90655  1.0000
  H   H942      1.0  0.35660  0.44349  0.91369  1.0000
  N   N60       1.0  0.27479  0.58510  0.84731  1.0000
  C   C611      1.0  0.28762  0.58649  0.83262  1.0000
  C   C612      1.0  0.27029  0.56183  0.85258  1.0000
  C   C613      1.0  0.25311  0.60056  0.84720  1.0000
  C   C614      1.0  0.28818  0.59155  0.85683  1.0000
  H   H943      1.0  0.29085  0.60392  0.82820  1.0000
  H   H944      1.0  0.27834  0.58125  0.82518  1.0000
  H   H945      1.0  0.30439  0.57559  0.83236  1.0000
  H   H946      1.0  0.28629  0.54970  0.85249  1.0000
  H   H947      1.0  0.26110  0.55997  0.86378  1.0000
  H   H948      1.0  0.25994  0.55651  0.84577  1.0000
  H   H949      1.0  0.25597  0.61829  0.84336  1.0000
  H   H950      1.0  0.24295  0.59995  0.85811  1.0000
  H   H951      1.0  0.24266  0.59642  0.83998  1.0000
  H   H952      1.0  0.27904  0.59075  0.86802  1.0000
  H   H953      1.0  0.29186  0.60905  0.85313  1.0000
  H   H954      1.0  0.30472  0.58032  0.85714  1.0000
  N   N61       1.0  0.35691  0.57713  0.76933  1.0000
  C   C615      1.0  0.33959  0.59475  0.76335  1.0000
  C   C616      1.0  0.37342  0.58769  0.77428  1.0000
  C   C617      1.0  0.36878  0.56375  0.75814  1.0000
  C   C618      1.0  0.34583  0.56239  0.78157  1.0000
  H   H955      1.0  0.32671  0.58746  0.75957  1.0000
  H   H956      1.0  0.34733  0.60613  0.75404  1.0000
  H   H957      1.0  0.33051  0.60535  0.77147  1.0000
  H   H958      1.0  0.36508  0.59777  0.78282  1.0000
  H   H959      1.0  0.38683  0.57498  0.77883  1.0000
  H   H960      1.0  0.38186  0.59933  0.76541  1.0000
  H   H961      1.0  0.38193  0.55024  0.76231  1.0000
  H   H962      1.0  0.37738  0.57447  0.74879  1.0000
  H   H963      1.0  0.35680  0.55566  0.75407  1.0000
  H   H964      1.0  0.35843  0.54929  0.78668  1.0000
  H   H965      1.0  0.33355  0.55374  0.77824  1.0000
  H   H966      1.0  0.33640  0.57214  0.79007  1.0000
  H   H967      1.0  0.99984  0.33782  0.95181  1.0000
  H   H968      1.0  0.48775  0.58473  0.85694  1.0000
  H   H969      1.0  0.25412  0.40166  0.92740  1.0000
  C   C619      1.0  0.29096  0.32819  0.83609  1.0000
  H   H970      1.0  0.22990  0.37303  0.93913  1.0000
  H   H971      1.0  0.27461  0.34060  0.93780  1.0000
  C   C620      1.0  0.47364  0.33491  0.97209  1.0000
  H   H972      1.0  0.45552  0.34049  0.90653  1.0000
  H   H973      1.0  0.22400  0.37112  0.92187  1.0000
  C   C621      1.0  0.46255  0.32304  0.90662  1.0000
  H   H974      1.0  0.02061  0.34351  0.93624  1.0000
  H   H975      1.0  0.26116  0.33706  0.85116  1.0000
  C   C622      1.0  0.27661  0.34230  0.84497  1.0000
  N   N62       1.0  0.13318  0.44392  0.88838  1.0000
  C   C623      1.0  0.13096  0.42031  0.88843  1.0000
  C   C624      1.0  0.11502  0.45894  0.88144  1.0000
  C   C625      1.0  0.15554  0.44848  0.88040  1.0000
  C   C626      1.0  0.13110  0.44795  0.90329  1.0000
  H   H976      1.0  0.14420  0.40838  0.89369  1.0000
  H   H977      1.0  0.13240  0.41662  0.87738  1.0000
  H   H978      1.0  0.11425  0.41641  0.89433  1.0000
  H   H979      1.0  0.11602  0.47692  0.88129  1.0000
  H   H980      1.0  0.11592  0.45632  0.87020  1.0000
  H   H981      1.0  0.09794  0.45580  0.88725  1.0000
  H   H982      1.0  0.15796  0.46608  0.88024  1.0000
  H   H983      1.0  0.15767  0.44566  0.86910  1.0000
  H   H984      1.0  0.16960  0.43729  0.88531  1.0000
  H   H985      1.0  0.13318  0.46546  0.90367  1.0000
  H   H986      1.0  0.14395  0.43641  0.90905  1.0000
  H   H987      1.0  0.11425  0.44514  0.90953  1.0000
  H   H988      1.0  0.28441  0.35801  0.90560  1.0000
  H   H989      1.0  0.45464  0.62463  0.86477  1.0000
  N   N63       1.0  0.28420  0.34464  0.78489  1.0000
  S   S256      1.0  0.37444  0.64353  0.77555  1.0000
  H   H990      1.0  0.47424  0.64248  0.86617  1.0000
  H   H991      1.0  0.26655  0.33731  0.91396  1.0000
  H   H992      1.0  0.29187  0.33291  0.76453  1.0000
  C   C627      1.0  0.30041  0.33863  0.77220  1.0000
  C   C628      1.0  0.23599  0.36433  0.92965  1.0000
  H   H993      1.0  0.08572  0.63928  0.84124  1.0000
  H   H994      1.0  0.27369  0.37814  0.77450  1.0000
  C   C629      1.0  0.36203  0.64925  0.74898  1.0000
  C   C630      1.0  0.48262  0.59831  0.84817  1.0000
  C   C631      1.0  0.00953  0.43982  0.93429  1.0000
  H   H995      1.0  0.04592  0.63864  0.83913  1.0000
  C   C632      1.0  0.01595  0.47496  0.91905  1.0000
  Fe  Fe131     1.0  0.32350  0.63594  0.82387  1.0000
  N   N64       1.0  0.37910  0.46087  0.87297  1.0000
  C   C633      1.0  0.40018  0.47083  0.87034  1.0000
  C   C634      1.0  0.38425  0.43642  0.87783  1.0000
  C   C635      1.0  0.36923  0.46498  0.85961  1.0000
  C   C636      1.0  0.36275  0.47127  0.88416  1.0000
  H   H996      1.0  0.41285  0.46352  0.86187  1.0000
  H   H997      1.0  0.40813  0.46781  0.88023  1.0000
  H   H998      1.0  0.39684  0.48933  0.86684  1.0000
  H   H999      1.0  0.39615  0.42790  0.86955  1.0000
  H   H1000     1.0  0.39222  0.43276  0.88772  1.0000
  H   H1001     1.0  0.36862  0.42841  0.88031  1.0000
  H   H1002     1.0  0.38070  0.45673  0.85104  1.0000
  H   H1003     1.0  0.36579  0.48326  0.85542  1.0000
  H   H1004     1.0  0.35281  0.45848  0.86140  1.0000
  H   H1005     1.0  0.34709  0.46330  0.88701  1.0000
  H   H1006     1.0  0.35737  0.48948  0.88053  1.0000
  H   H1007     1.0  0.37013  0.46959  0.89415  1.0000
  H   H1008     1.0  0.11197  0.35796  0.96946  1.0000
  H   H1009     1.0  0.46474  0.32508  0.88380  1.0000
  H   H1010     1.0  0.25688  0.35773  0.77290  1.0000
  H   H1011     1.0  0.30887  0.35306  0.76633  1.0000
  H   H1012     1.0  0.47875  0.61330  0.87358  1.0000
  H   H1013     1.0  0.23460  0.34621  0.93318  1.0000
  H   H1014     1.0  0.31391  0.32457  0.77527  1.0000
  H   H1015     1.0  0.24957  0.39897  0.90996  1.0000
  H   H1016     1.0  0.25394  0.36793  0.78961  1.0000
  C   C637      1.0  0.01830  0.33537  0.94768  1.0000
  C   C638      1.0  0.43474  0.32873  0.97614  1.0000
  H   H1017     1.0  0.38001  0.64712  0.74497  1.0000
  H   H1018     1.0  0.49068  0.32971  0.97537  1.0000
  S   S257      1.0  0.46256  0.32073  0.93547  1.0000
  H   H1019     1.0  0.46102  0.63847  0.83795  1.0000
  C   C639      1.0  0.99303  0.64081  0.88213  1.0000
  H   H1020     1.0  0.99862  0.43006  0.94226  1.0000
  H   H1021     1.0  0.48932  0.63508  0.82826  1.0000
  N   N65       1.0  0.05675  0.64925  0.85654  1.0000
  H   H1022     1.0  0.49107  0.45106  0.95176  1.0000
  H   H1023     1.0  0.05614  0.31730  0.93260  1.0000
  H   H1024     1.0  0.02334  0.64890  0.85222  1.0000
  H   H1025     1.0  0.43531  0.32857  0.96451  1.0000
  H   H1026     1.0  0.46814  0.35281  0.97345  1.0000
  N   N66       1.0  0.48632  0.62039  0.85056  1.0000
  S   S258      1.0  0.28709  0.64952  0.83133  1.0000
  H   H1027     1.0  0.06147  0.31690  0.95034  1.0000
  H   H1028     1.0  0.49256  0.59391  0.83788  1.0000
  Fe  Fe132     1.0  0.30685  0.71549  0.19360  1.0000
  S   S259      1.0  0.32940  0.72529  0.17280  1.0000
  S   S260      1.0  0.28794  0.68581  0.20170  1.0000
  C   C640      1.0  0.44955  0.79947  0.11355  1.0000
  S   S261      1.0  0.33660  0.76828  0.18711  1.0000
  Fe  Fe133     1.0  0.31200  0.76059  0.17470  1.0000
  S   S262      1.0  0.30278  0.78405  0.15483  1.0000
  Fe  Fe134     1.0  0.35265  0.73245  0.18647  1.0000
  S   S263      1.0  0.39097  0.72558  0.18376  1.0000
  S   S264      1.0  0.28755  0.75019  0.19436  1.0000
  C   C641      1.0  0.27183  0.67770  0.19058  1.0000
  H   H1029     1.0  0.41037  0.76379  0.19317  1.0000
  C   C642      1.0  0.05697  0.90649  0.03073  1.0000
  Fe  Fe135     1.0  0.44666  0.90043  0.05860  1.0000
  S   S265      1.0  0.45237  0.92724  0.03962  1.0000
  S   S266      1.0  0.42459  0.90530  0.07972  1.0000
  Fe  Fe136     1.0  0.45327  0.90080  0.02617  1.0000
  S   S267      1.0  0.43670  0.91388  0.00638  1.0000
  H   H1030     1.0  0.15116  0.96613  0.07818  1.0000
  S   S268      1.0  0.44379  0.87503  0.04529  1.0000
  C   C643      1.0  0.47611  0.97103  0.08310  1.0000
  C   C644      1.0  0.30015  0.93226  0.18468  1.0000
  C   C645      1.0  0.46202  0.69236  0.08132  1.0000
  S   S269      1.0  0.26397  0.95903  0.10557  1.0000
  Fe  Fe137     1.0  0.28744  0.91188  0.13426  1.0000
  S   S270      1.0  0.27981  0.90398  0.11394  1.0000
  S   S271      1.0  0.29672  0.88833  0.15407  1.0000
  Fe  Fe138     1.0  0.29636  0.93432  0.10350  1.0000
  S   S272      1.0  0.31883  0.93529  0.08189  1.0000
  Fe  Fe139     1.0  0.24800  0.92885  0.11717  1.0000
  S   S273      1.0  0.21278  0.91995  0.11744  1.0000
  S   S274      1.0  0.30700  0.93995  0.12358  1.0000
  S   S275      1.0  0.25463  0.93467  0.13838  1.0000
  Fe  Fe140     1.0  0.13980  0.87288  0.06910  1.0000
  S   S276      1.0  0.11059  0.86758  0.08678  1.0000
  S   S277      1.0  0.17412  0.88238  0.07046  1.0000
  Fe  Fe141     1.0  0.11218  0.86754  0.04621  1.0000
  S   S278      1.0  0.08110  0.86206  0.06233  1.0000
  S   S279      1.0  0.11283  0.87444  0.02210  1.0000
  Fe  Fe142     1.0  0.08888  0.89004  0.07170  1.0000
  S   S280      1.0  0.06143  0.91688  0.07969  1.0000
  Fe  Fe143     1.0  0.10526  0.83980  0.07591  1.0000
  S   S281      1.0  0.09508  0.80875  0.09094  1.0000
  S   S282      1.0  0.11818  0.89730  0.05475  1.0000
  S   S283      1.0  0.13632  0.84327  0.05911  1.0000
  C   C646      1.0  0.01757  0.91257  0.02797  1.0000
  Fe  Fe144     1.0  0.02768  0.68510  0.12508  1.0000
  S   S284      1.0  0.04457  0.67356  0.10439  1.0000
  H   H1031     1.0  0.25552  0.94069  0.18367  1.0000
  N   N67       1.0  0.46596  0.66758  0.08480  1.0000
  Fe  Fe145     1.0  0.03090  0.70849  0.09436  1.0000
  S   S285      1.0  0.05288  0.72930  0.07708  1.0000
  S   S286      1.0  0.01567  0.72047  0.11512  1.0000
  C   C647      1.0  0.09623  0.86346  0.01262  1.0000
  C   C648      1.0  0.08414  0.84585  0.01898  1.0000
  C   C649      1.0  0.07122  0.83764  0.01092  1.0000
  C   C650      1.0  0.07023  0.84703  0.99650  1.0000
  C   C651      1.0  0.08218  0.86476  0.99022  1.0000
  C   C652      1.0  0.09518  0.87285  0.99823  1.0000
  H   H1032     1.0  0.08499  0.83835  0.03003  1.0000
  H   H1033     1.0  0.45210  0.70005  0.09064  1.0000
  H   H1034     1.0  0.07015  0.89757  0.03730  1.0000
  H   H1035     1.0  0.10449  0.88650  0.99325  1.0000
  C   C653      1.0  0.08087  0.78928  0.08605  1.0000
  C   C654      1.0  0.06549  0.77834  0.09656  1.0000
  C   C655      1.0  0.05603  0.76065  0.09371  1.0000
  C   C656      1.0  0.06224  0.75334  0.08041  1.0000
  C   C657      1.0  0.07715  0.76470  0.06974  1.0000
  C   C658      1.0  0.08633  0.78271  0.07251  1.0000
  H   H1036     1.0  0.06114  0.78337  0.10705  1.0000
  H   H1037     1.0  0.04434  0.75240  0.10194  1.0000
  H   H1038     1.0  0.08200  0.75924  0.05940  1.0000
  H   H1039     1.0  0.09834  0.79086  0.06436  1.0000
  C   C659      1.0  0.03293  0.95548  0.07217  1.0000
  C   C660      1.0  0.05231  0.94073  0.06766  1.0000
  C   C661      1.0  0.06379  0.94506  0.05367  1.0000
  C   C662      1.0  0.40610  0.77211  0.22024  1.0000
  H   H1040     1.0  0.02392  0.95216  0.08298  1.0000
  H   H1041     1.0  0.07869  0.93376  0.05008  1.0000
  H   H1042     1.0  0.47149  0.66224  0.06284  1.0000
  S   S287      1.0  0.33187  0.71931  0.20723  1.0000
  C   C663      1.0  0.45857  0.76415  0.12879  1.0000
  C   C664      1.0  0.43004  0.71496  0.16540  1.0000
  H   H1043     1.0  0.38133  0.77236  0.19128  1.0000
  H   H1044     1.0  0.45241  0.74686  0.10628  1.0000
  C   C665      1.0  0.18482  0.89184  0.08396  1.0000
  C   C666      1.0  0.20638  0.89857  0.08069  1.0000
  C   C667      1.0  0.21531  0.90700  0.09080  1.0000
  C   C668      1.0  0.20264  0.90904  0.10432  1.0000
  C   C669      1.0  0.18112  0.90218  0.10765  1.0000
  C   C670      1.0  0.17237  0.89339  0.09761  1.0000
  H   H1045     1.0  0.21624  0.89738  0.07019  1.0000
  H   H1046     1.0  0.23188  0.91218  0.08806  1.0000
  H   H1047     1.0  0.17119  0.90356  0.11809  1.0000
  H   H1048     1.0  0.15605  0.88774  0.10047  1.0000
  H   H1049     1.0  0.46101  0.70616  0.15120  1.0000
  H   H1050     1.0  0.44209  0.95732  0.10314  1.0000
  H   H1051     1.0  0.04876  0.86533  0.04304  1.0000
  C   C671      1.0  0.43683  0.89696  0.99339  1.0000
  H   H1052     1.0  0.12480  0.78583  0.99144  1.0000
  H   H1053     1.0  0.40912  0.78989  0.21786  1.0000
  H   H1054     1.0  0.41461  0.78208  0.13101  1.0000
  C   C672      1.0  0.44129  0.86062  0.98571  1.0000
  C   C673      1.0  0.44303  0.87363  0.99597  1.0000
  S   S288      1.0  0.49060  0.88965  0.02492  1.0000
  S   S289      1.0  0.99880  0.69788  0.09110  1.0000
  H   H1055     1.0  0.07487  0.67340  0.16539  1.0000
  H   H1056     1.0  0.44885  0.86556  0.00593  1.0000
  C   C674      1.0  0.39527  0.91388  0.08018  1.0000
  C   C675      1.0  0.38080  0.91114  0.09334  1.0000
  C   C676      1.0  0.35730  0.91778  0.09403  1.0000
  C   C677      1.0  0.34823  0.92747  0.08156  1.0000
  C   C678      1.0  0.36278  0.93065  0.06845  1.0000
  C   C679      1.0  0.38626  0.92375  0.06772  1.0000
  H   H1057     1.0  0.38771  0.90360  0.10303  1.0000
  H   H1058     1.0  0.34621  0.91524  0.10417  1.0000
  H   H1059     1.0  0.35574  0.93861  0.05889  1.0000
  H   H1060     1.0  0.39742  0.92638  0.05762  1.0000
  C   C680      1.0  0.08248  0.66327  0.15717  1.0000
  H   H1061     1.0  0.13376  0.90986  0.08187  1.0000
  Fe  Fe146     1.0  0.48135  0.86564  0.04518  1.0000
  H   H1062     1.0  0.16134  0.93692  0.07750  1.0000
  C   C681      1.0  0.47775  0.66083  0.09739  1.0000
  C   C682      1.0  0.27440  0.68557  0.17585  1.0000
  H   H1063     1.0  0.47695  0.76545  0.12602  1.0000
  H   H1064     1.0  0.28615  0.69723  0.17111  1.0000
  H   H1065     1.0  0.99282  0.65202  0.07264  1.0000
  C   C683      1.0  0.40630  0.71921  0.16718  1.0000
  Fe  Fe147     1.0  0.31395  0.75452  0.20674  1.0000
  C   C684      1.0  0.45494  0.76478  0.10416  1.0000
  C   C685      1.0  0.43176  0.70868  0.14100  1.0000
  C   C686      1.0  0.40803  0.71304  0.14273  1.0000
  C   C687      1.0  0.39533  0.71837  0.15577  1.0000
  H   H1066     1.0  0.06215  0.82379  0.01584  1.0000
  C   C688      1.0  0.05594  0.96415  0.04427  1.0000
  H   H1067     1.0  0.01621  0.93096  0.02781  1.0000
  H   H1068     1.0  0.37705  0.72165  0.15701  1.0000
  C   C689      1.0  0.30302  0.81275  0.15458  1.0000
  C   C690      1.0  0.30317  0.82757  0.14154  1.0000
  C   C691      1.0  0.30175  0.85078  0.14122  1.0000
  C   C692      1.0  0.30017  0.85924  0.15395  1.0000
  C   C693      1.0  0.30054  0.84438  0.16693  1.0000
  C   C694      1.0  0.30194  0.82118  0.16726  1.0000
  H   H1069     1.0  0.30418  0.82107  0.13170  1.0000
  H   H1070     1.0  0.30190  0.86208  0.13114  1.0000
  H   H1071     1.0  0.29933  0.85083  0.17682  1.0000
  H   H1072     1.0  0.30165  0.80988  0.17737  1.0000
  H   H1073     1.0  0.47689  0.92960  0.09866  1.0000
  H   H1074     1.0  0.04003  0.87139  0.02577  1.0000
  N   N68       1.0  0.10022  0.71541  0.11612  1.0000
  C   C695      1.0  0.08759  0.70323  0.10916  1.0000
  C   C696      1.0  0.11272  0.73085  0.10508  1.0000
  C   C697      1.0  0.11641  0.69915  0.12408  1.0000
  C   C698      1.0  0.08409  0.72836  0.12620  1.0000
  H   H1075     1.0  0.07758  0.69186  0.11722  1.0000
  H   H1076     1.0  0.09909  0.69292  0.10163  1.0000
  H   H1077     1.0  0.07541  0.71498  0.10291  1.0000
  H   H1078     1.0  0.12532  0.72155  0.09748  1.0000
  H   H1079     1.0  0.10112  0.74293  0.09858  1.0000
  H   H1080     1.0  0.12186  0.74092  0.10994  1.0000
  H   H1081     1.0  0.12846  0.68859  0.11693  1.0000
  H   H1082     1.0  0.10749  0.68754  0.13266  1.0000
  H   H1083     1.0  0.12646  0.70775  0.12933  1.0000
  H   H1084     1.0  0.07437  0.71712  0.13465  1.0000
  H   H1085     1.0  0.07151  0.74066  0.12058  1.0000
  H   H1086     1.0  0.09293  0.73787  0.13165  1.0000
  N   N69       1.0  0.03455  0.89979  0.03681  1.0000
  H   H1087     1.0  0.13224  0.81370  0.98775  1.0000
  C   C699      1.0  0.03565  0.87551  0.03684  1.0000
  H   H1088     1.0  0.44580  0.84256  0.98783  1.0000
  S   S290      1.0  0.05485  0.83546  0.98650  1.0000
  C   C700      1.0  0.12405  0.94897  0.06512  1.0000
  N   N70       1.0  0.38800  0.76883  0.21282  1.0000
  C   C701      1.0  0.24389  0.65533  0.18795  1.0000
  H   H1089     1.0  0.28971  0.93212  0.19549  1.0000
  H   H1090     1.0  0.30344  0.91473  0.18231  1.0000
  H   H1091     1.0  0.46363  0.91812  0.08706  1.0000
  H   H1092     1.0  0.31675  0.93706  0.18521  1.0000
  C   C702      1.0  0.02795  0.90468  0.05163  1.0000
  H   H1093     1.0  0.12230  0.91910  0.09875  1.0000
  C   C703      1.0  0.12016  0.80327  0.98592  1.0000
  C   C704      1.0  0.12114  0.92254  0.08711  1.0000
  H   H1094     1.0  0.10962  0.97945  0.08284  1.0000
  N   N71       1.0  0.37710  0.89546  0.03147  1.0000
  C   C705      1.0  0.38564  0.91709  0.02952  1.0000
  C   C706      1.0  0.37563  0.88490  0.04669  1.0000
  C   C707      1.0  0.39272  0.88045  0.02242  1.0000
  C   C708      1.0  0.35437  0.89948  0.02721  1.0000
  H   H1095     1.0  0.38751  0.92524  0.01808  1.0000
  H   H1096     1.0  0.40263  0.91474  0.03283  1.0000
  H   H1097     1.0  0.37408  0.92907  0.03592  1.0000
  H   H1098     1.0  0.37008  0.86815  0.04847  1.0000
  H   H1099     1.0  0.39227  0.88252  0.05048  1.0000
  H   H1100     1.0  0.36329  0.89538  0.05377  1.0000
  H   H1101     1.0  0.39412  0.88790  0.01085  1.0000
  H   H1102     1.0  0.38704  0.86385  0.02365  1.0000
  H   H1103     1.0  0.41014  0.87738  0.02516  1.0000
  H   H1104     1.0  0.34741  0.88351  0.02853  1.0000
  H   H1105     1.0  0.35488  0.90750  0.01578  1.0000
  H   H1106     1.0  0.34215  0.91078  0.03384  1.0000
  N   N72       1.0  0.23280  0.85548  0.13828  1.0000
  C   C709      1.0  0.24596  0.85766  0.12366  1.0000
  C   C710      1.0  0.20838  0.85892  0.13734  1.0000
  C   C711      1.0  0.23743  0.87259  0.14588  1.0000
  C   C712      1.0  0.23939  0.83281  0.14620  1.0000
  H   H1107     1.0  0.26448  0.85520  0.12394  1.0000
  H   H1108     1.0  0.24135  0.87461  0.11741  1.0000
  H   H1109     1.0  0.24286  0.84509  0.11756  1.0000
  H   H1110     1.0  0.19791  0.85721  0.14816  1.0000
  H   H1111     1.0  0.20284  0.87599  0.13161  1.0000
  H   H1112     1.0  0.20433  0.84661  0.13140  1.0000
  H   H1113     1.0  0.22797  0.87136  0.15699  1.0000
  H   H1114     1.0  0.23251  0.88989  0.14024  1.0000
  H   H1115     1.0  0.25573  0.87072  0.14662  1.0000
  H   H1116     1.0  0.22962  0.83047  0.15722  1.0000
  H   H1117     1.0  0.25760  0.82977  0.14733  1.0000
  H   H1118     1.0  0.23659  0.81943  0.14062  1.0000
  H   H1119     1.0  0.10408  0.91961  0.08599  1.0000
  C   C713      1.0  0.38459  0.74504  0.21633  1.0000
  H   H1120     1.0  0.29434  0.95777  0.15087  1.0000
  H   H1121     1.0  0.43865  0.71547  0.17420  1.0000
  H   H1122     1.0  0.44306  0.80830  0.12294  1.0000
  H   H1123     1.0  0.00048  0.90780  0.03221  1.0000
  H   H1124     1.0  0.47450  0.95161  0.06028  1.0000
  H   H1125     1.0  0.48935  0.94643  0.00509  1.0000
  H   H1126     1.0  0.25765  0.95258  0.16501  1.0000
  H   H1127     1.0  0.46787  0.80098  0.11035  1.0000
  H   H1128     1.0  0.35227  0.78026  0.21299  1.0000
  H   H1129     1.0  0.45709  0.74598  0.13127  1.0000
  C   C714      1.0  0.36675  0.78335  0.21758  1.0000
  C   C715      1.0  0.26682  0.94088  0.17316  1.0000
  N   N73       1.0  0.28866  0.94786  0.17363  1.0000
  H   H1130     1.0  0.39987  0.73369  0.21218  1.0000
  H   H1131     1.0  0.46191  0.95282  0.99965  1.0000
  H   H1132     1.0  0.25893  0.71982  0.22090  1.0000
  C   C716      1.0  0.28455  0.97094  0.17703  1.0000
  C   C717      1.0  0.43996  0.95819  0.09179  1.0000
  H   H1133     1.0  0.31926  0.95378  0.15912  1.0000
  H   H1134     1.0  0.44077  0.80866  0.10450  1.0000
  C   C718      1.0  0.24680  0.66287  0.17317  1.0000
  N   N74       1.0  0.12506  0.94558  0.08063  1.0000
  C   C719      1.0  0.10734  0.96182  0.08750  1.0000
  H   H1135     1.0  0.39748  0.79250  0.19404  1.0000
  N   N75       1.0  0.48964  0.95774  0.98248  1.0000
  H   H1136     1.0  0.10758  0.95966  0.09923  1.0000
  H   H1137     1.0  0.44643  0.77335  0.09487  1.0000
  H   H1138     1.0  0.02614  0.92298  0.05193  1.0000
  H   H1139     1.0  0.41889  0.75629  0.12399  1.0000
  N   N76       1.0  0.44619  0.77566  0.11696  1.0000
  H   H1140     1.0  0.25443  0.65642  0.20800  1.0000
  C   C720      1.0  0.30315  0.94733  0.15954  1.0000
  S   S291      1.0  0.48372  0.88952  0.05976  1.0000
  C   C721      1.0  0.42181  0.77414  0.12133  1.0000
  H   H1141     1.0  0.06282  0.90245  0.01970  1.0000
  C   C722      1.0  0.07089  0.66334  0.14580  1.0000
  H   H1142     1.0  0.43045  0.97501  0.08826  1.0000
  N   N77       1.0  0.46205  0.95403  0.08248  1.0000
  C   C723      1.0  0.48013  0.65814  0.07245  1.0000
  H   H1143     1.0  0.09011  0.95958  0.08608  1.0000
  H   H1144     1.0  0.28669  0.71158  0.22555  1.0000
  H   H1145     1.0  0.04079  0.89610  0.05854  1.0000
  H   H1146     1.0  0.01922  0.86967  0.04168  1.0000
  H   H1147     1.0  0.43457  0.66390  0.07889  1.0000
  H   H1148     1.0  0.10310  0.80984  0.99138  1.0000
  C   C724      1.0  0.39463  0.77473  0.19716  1.0000
  H   H1149     1.0  0.26437  0.68393  0.15573  1.0000
  C   C725      1.0  0.44274  0.70971  0.15236  1.0000
  H   H1150     1.0  0.47341  0.76518  0.10080  1.0000
  H   H1151     1.0  0.39940  0.71227  0.13400  1.0000
  H   H1152     1.0  0.47993  0.97001  0.09410  1.0000
  H   H1153     1.0  0.26936  0.92376  0.17023  1.0000
  Fe  Fe148     1.0  0.48929  0.91448  0.03962  1.0000
  C   C726      1.0  0.26207  0.67801  0.16716  1.0000
  S   S292      1.0  0.44725  0.70257  0.12440  1.0000
  H   H1154     1.0  0.02212  0.90936  0.01669  1.0000
  H   H1155     1.0  0.45200  0.77141  0.13878  1.0000
  H   H1156     1.0  0.27441  0.97187  0.18783  1.0000
  C   C727      1.0  0.49212  0.93474  0.97918  1.0000
  C   C728      1.0  0.47898  0.95807  0.99757  1.0000
  Fe  Fe149     1.0  0.48517  0.70158  0.12115  1.0000
  H   H1157     1.0  0.14929  0.94583  0.09434  1.0000
  H   H1158     1.0  0.42903  0.94549  0.09160  1.0000
  S   S293      1.0  0.04474  0.68107  0.14465  1.0000
  H   H1159     1.0  0.47835  0.69920  0.07843  1.0000
  H   H1160     1.0  0.06498  0.96758  0.03349  1.0000
  Fe  Fe150     1.0  0.01074  0.66416  0.10328  1.0000
  H   H1161     1.0  0.41191  0.78259  0.11265  1.0000
  H   H1162     1.0  0.36825  0.80147  0.21433  1.0000
  H   H1163     1.0  0.44709  0.94342  0.06686  1.0000
  C   C729      1.0  0.47377  0.93135  0.08743  1.0000
  C   C730      1.0  0.25655  0.66256  0.19660  1.0000
  H   H1164     1.0  0.47539  0.92886  0.98078  1.0000
  Fe  Fe151     1.0  0.27363  0.96259  0.12658  1.0000
  H   H1165     1.0  0.05669  0.92480  0.03020  1.0000
  H   H1166     1.0  0.37035  0.74214  0.21145  1.0000
  S   S294      1.0  0.23267  0.65276  0.16177  1.0000
  H   H1167     1.0  0.30759  0.93001  0.15692  1.0000
  H   H1168     1.0  0.45265  0.69820  0.07208  1.0000
  C   C731      1.0  0.42939  0.90719  0.98041  1.0000
  H   H1169     1.0  0.42458  0.92522  0.97832  1.0000
  H   H1170     1.0  0.13735  0.93704  0.05960  1.0000
  C   C732      1.0  0.14766  0.94883  0.08276  1.0000
  H   H1171     1.0  0.01151  0.89911  0.05677  1.0000
  C   C733      1.0  0.45829  0.95550  0.06757  1.0000
  H   H1172     1.0  0.45010  0.97256  0.06329  1.0000
  H   H1173     1.0  0.47698  0.97516  0.00045  1.0000
  H   H1174     1.0  0.49041  0.92755  0.08062  1.0000
  H   H1175     1.0  0.08147  0.87226  0.97918  1.0000
  H   H1176     1.0  0.42234  0.76133  0.21694  1.0000
  H   H1177     1.0  0.46753  0.66744  0.10699  1.0000
  H   H1178     1.0  0.10733  0.94624  0.06316  1.0000
  C   C734      1.0  0.02496  0.97445  0.06273  1.0000
  S   S295      1.0  0.30259  0.77157  0.22630  1.0000
  H   H1179     1.0  0.21090  0.66170  0.22555  1.0000
  H   H1180     1.0  0.00633  0.96795  0.00843  1.0000
  H   H1181     1.0  0.43311  0.66584  0.09748  1.0000
  C   C735      1.0  0.44405  0.65905  0.08813  1.0000
  H   H1182     1.0  0.30070  0.97736  0.17668  1.0000
  C   C736      1.0  0.03652  0.97888  0.04878  1.0000
  S   S296      1.0  0.99484  0.67326  0.12491  1.0000
  H   H1183     1.0  0.00881  0.98074  0.98217  1.0000
  H   H1184     1.0  0.12665  0.96628  0.05987  1.0000
  C   C737      1.0  0.10402  0.65036  0.15787  1.0000
  H   H1185     1.0  0.11290  0.65051  0.16662  1.0000
  H   H1186     1.0  0.27505  0.98285  0.16917  1.0000
  H   H1187     1.0  0.49261  0.96872  0.07585  1.0000
  C   C738      1.0  0.08081  0.65013  0.13526  1.0000
  Fe  Fe152     1.0  0.30436  0.77069  0.31892  1.0000
  S   S297      1.0  0.31551  0.79600  0.29989  1.0000
  S   S298      1.0  0.26948  0.76040  0.32528  1.0000
  Fe  Fe153     1.0  0.35044  0.76084  0.32897  1.0000
  S   S299      1.0  0.36571  0.78398  0.31027  1.0000
  S   S300      1.0  0.36527  0.74288  0.34875  1.0000
  Fe  Fe154     1.0  0.33357  0.80814  0.31488  1.0000
  S   S301      1.0  0.34007  0.84333  0.31580  1.0000
  Fe  Fe155     1.0  0.34647  0.76998  0.29693  1.0000
  S   S302      1.0  0.36173  0.75705  0.27610  1.0000
  S   S303      1.0  0.31920  0.78546  0.33414  1.0000
  S   S304      1.0  0.33449  0.74426  0.31535  1.0000
  N   N78       1.0  0.30027  0.95425  0.31533  1.0000
  Fe  Fe156     1.0  0.21914  0.66513  0.30398  1.0000
  S   S305      1.0  0.19761  0.68789  0.28903  1.0000
  S   S306      1.0  0.25315  0.67049  0.30794  1.0000
  C   C739      1.0  0.33531  0.74764  0.24220  1.0000
  C   C740      1.0  0.17305  0.98153  0.40198  1.0000
  H   H1188     1.0  0.04965  0.91405  0.44360  1.0000
  C   C741      1.0  0.28595  0.93818  0.32430  1.0000
  Fe  Fe157     1.0  0.16782  0.67758  0.30498  1.0000
  S   S307      1.0  0.13821  0.70399  0.31098  1.0000
  H   H1189     1.0  0.23474  0.72756  0.25079  1.0000
  H   H1190     1.0  0.11489  0.94056  0.41714  1.0000
  Fe  Fe158     1.0  0.01689  0.69610  0.35454  1.0000
  S   S308      1.0  0.04333  0.67501  0.34067  1.0000
  S   S309      1.0  0.01943  0.69445  0.37776  1.0000
  Fe  Fe159     1.0  0.19668  0.65700  0.27996  1.0000
  H   H1191     1.0  0.40329  0.75028  0.32596  1.0000
  H   H1192     1.0  0.43357  0.71862  0.37134  1.0000
  H   H1193     1.0  0.27952  0.70451  0.34283  1.0000
  Fe  Fe160     1.0  0.29770  0.93678  0.36641  1.0000
  S   S310      1.0  0.29211  0.94378  0.38904  1.0000
  S   S311      1.0  0.28891  0.90437  0.36223  1.0000
  H   H1194     1.0  0.07090  0.96783  0.40967  1.0000
  H   H1195     1.0  0.40155  0.76776  0.23210  1.0000
  H   H1196     1.0  0.48657  0.95505  0.40030  1.0000
  S   S312      1.0  0.18958  0.65765  0.32084  1.0000
  H   H1197     1.0  0.44813  0.97064  0.38329  1.0000
  H   H1198     1.0  0.41738  0.94502  0.40726  1.0000
  C   C742      1.0  0.03856  0.92727  0.43804  1.0000
  C   C743      1.0  0.28874  0.97749  0.31610  1.0000
  H   H1199     1.0  0.15417  0.71173  0.26310  1.0000
  H   H1200     1.0  0.11636  0.72704  0.25614  1.0000
  S   S313      1.0  0.47149  0.72698  0.34853  1.0000
  C   C744      1.0  0.26882  0.71777  0.22984  1.0000
  H   H1201     1.0  0.18424  0.96223  0.38472  1.0000
  S   S314      1.0  0.01827  0.89339  0.43347  1.0000
  H   H1202     1.0  0.31969  0.95334  0.33198  1.0000
  C   C745      1.0  0.36196  0.97436  0.40071  1.0000
  H   H1203     1.0  0.07755  0.96996  0.39060  1.0000
  H   H1204     1.0  0.39210  0.72474  0.37104  1.0000
  H   H1205     1.0  0.26896  0.94059  0.32100  1.0000
  N   N79       1.0  0.45086  0.95349  0.40473  1.0000
  H   H1206     1.0  0.06804  0.93201  0.39113  1.0000
  H   H1207     1.0  0.37229  0.95814  0.42089  1.0000
  S   S315      1.0  0.01498  0.75891  0.38233  1.0000
  C   C746      1.0  0.47460  0.94307  0.40083  1.0000
  H   H1208     1.0  0.27863  0.67277  0.23382  1.0000
  H   H1209     1.0  0.01797  0.79996  0.39143  1.0000
  H   H1210     1.0  0.07924  0.90867  0.40354  1.0000
  H   H1211     1.0  0.09843  0.97322  0.40076  1.0000
  C   C747      1.0  0.02823  0.96677  0.42878  1.0000
  C   C748      1.0  0.04217  0.94970  0.43627  1.0000
  H   H1212     1.0  0.12668  0.68383  0.28792  1.0000
  H   H1213     1.0  0.99696  0.81900  0.41163  1.0000
  C   C749      1.0  0.01007  0.96140  0.42363  1.0000
  H   H1214     1.0  0.05576  0.95379  0.44065  1.0000
  S   S316      1.0  0.27764  0.96994  0.35836  1.0000
  C   C750      1.0  0.06945  0.68359  0.33239  1.0000
  C   C751      1.0  0.08632  0.66811  0.32593  1.0000
  C   C752      1.0  0.10767  0.67398  0.31969  1.0000
  C   C753      1.0  0.11208  0.69563  0.31951  1.0000
  C   C754      1.0  0.09515  0.71118  0.32586  1.0000
  C   C755      1.0  0.07397  0.70511  0.33244  1.0000
  H   H1215     1.0  0.47567  0.71423  0.45668  1.0000
  H   H1216     1.0  0.29185  0.69286  0.25014  1.0000
  H   H1217     1.0  0.09846  0.72798  0.32574  1.0000
  H   H1218     1.0  0.06108  0.71716  0.33740  1.0000
  H   H1219     1.0  0.36213  0.73091  0.25416  1.0000
  C   C756      1.0  0.30916  0.98141  0.43391  1.0000
  C   C757      1.0  0.26417  0.73694  0.31886  1.0000
  C   C758      1.0  0.24296  0.72971  0.32313  1.0000
  C   C759      1.0  0.23897  0.70991  0.31924  1.0000
  C   C760      1.0  0.25641  0.69695  0.31133  1.0000
  C   C761      1.0  0.27750  0.70434  0.30690  1.0000
  C   C762      1.0  0.28121  0.72450  0.31037  1.0000
  H   H1220     1.0  0.22961  0.73933  0.32960  1.0000
  H   H1221     1.0  0.22264  0.70437  0.32271  1.0000
  H   H1222     1.0  0.29102  0.69450  0.30070  1.0000
  H   H1223     1.0  0.29740  0.73016  0.30666  1.0000
  C   C763      1.0  0.34375  0.75976  0.26319  1.0000
  C   C764      1.0  0.34839  0.74477  0.25326  1.0000
  C   C765      1.0  0.31785  0.76583  0.24084  1.0000
  C   C766      1.0  0.31284  0.78042  0.25100  1.0000
  C   C767      1.0  0.32568  0.77737  0.26214  1.0000
  H   H1224     1.0  0.29923  0.79443  0.25008  1.0000
  H   H1225     1.0  0.32200  0.78910  0.26966  1.0000
  C   C768      1.0  0.30404  0.88711  0.34970  1.0000
  C   C769      1.0  0.32404  0.89224  0.34087  1.0000
  C   C770      1.0  0.33476  0.87879  0.33044  1.0000
  C   C771      1.0  0.32594  0.85978  0.32902  1.0000
  C   C772      1.0  0.30630  0.85432  0.33812  1.0000
  C   C773      1.0  0.29535  0.86803  0.34834  1.0000
  H   H1226     1.0  0.33111  0.90662  0.34205  1.0000
  H   H1227     1.0  0.35006  0.88302  0.32349  1.0000
  H   H1228     1.0  0.29927  0.83981  0.33710  1.0000
  H   H1229     1.0  0.27988  0.86394  0.35515  1.0000
  C   C774      1.0  0.44192  0.73109  0.34886  1.0000
  C   C775      1.0  0.43321  0.74007  0.33609  1.0000
  C   C776      1.0  0.40977  0.74353  0.33588  1.0000
  C   C777      1.0  0.39486  0.73804  0.34848  1.0000
  C   C778      1.0  0.40354  0.72907  0.36125  1.0000
  C   C779      1.0  0.42701  0.72562  0.36147  1.0000
  H   H1230     1.0  0.44466  0.74427  0.32629  1.0000
  C   C780      1.0  0.21179  0.97640  0.38910  1.0000
  H   H1231     1.0  0.25073  0.68113  0.22934  1.0000
  N   N80       1.0  0.30569  0.70704  0.35452  1.0000
  C   C781      1.0  0.29906  0.73159  0.35375  1.0000
  C   C782      1.0  0.33060  0.70133  0.35333  1.0000
  C   C783      1.0  0.29815  0.69974  0.34261  1.0000
  C   C784      1.0  0.29494  0.69560  0.36835  1.0000
  H   H1232     1.0  0.28035  0.73658  0.35468  1.0000
  H   H1233     1.0  0.30641  0.74065  0.34332  1.0000
  H   H1234     1.0  0.30500  0.73793  0.36229  1.0000
  H   H1235     1.0  0.33629  0.68295  0.35387  1.0000
  H   H1236     1.0  0.33924  0.70975  0.34301  1.0000
  H   H1237     1.0  0.33699  0.70685  0.36204  1.0000
  H   H1238     1.0  0.30236  0.68125  0.34295  1.0000
  H   H1239     1.0  0.30640  0.70774  0.33205  1.0000
  H   H1240     1.0  0.27374  0.96800  0.41441  1.0000
  H   H1241     1.0  0.29967  0.67704  0.36933  1.0000
  H   H1242     1.0  0.49178  0.66129  0.44106  1.0000
  H   H1243     1.0  0.30023  0.70090  0.37753  1.0000
  H   H1244     1.0  0.08718  0.93466  0.42535  1.0000
  H   H1245     1.0  0.22409  0.96933  0.38084  1.0000
  S   S317      1.0  0.47304  0.96651  0.44768  1.0000
  H   H1246     1.0  0.32521  0.97268  0.42841  1.0000
  H   H1247     1.0  0.22919  0.69930  0.25725  1.0000
  H   H1248     1.0  0.47153  0.72207  0.43095  1.0000
  Fe  Fe161     1.0  0.32427  0.95878  0.38276  1.0000
  Fe  Fe162     1.0  0.27488  0.97786  0.38055  1.0000
  H   H1249     1.0  0.33892  0.73600  0.23463  1.0000
  H   H1250     1.0  0.27614  0.69955  0.36951  1.0000
  C   C785      1.0  0.26098  0.67985  0.23803  1.0000
  N   N81       1.0  0.12686  0.69276  0.26518  1.0000
  H   H1251     1.0  0.09605  0.70857  0.25727  1.0000
  H   H1252     1.0  0.26842  0.73469  0.23262  1.0000
  H   H1253     1.0  0.28808  0.95262  0.29600  1.0000
  S   S318      1.0  0.33154  0.94866  0.36085  1.0000
  H   H1254     1.0  0.38075  0.73957  0.22808  1.0000
  C   C786      1.0  0.48332  0.69670  0.45527  1.0000
  C   C787      1.0  0.00625  0.93902  0.42555  1.0000
  C   C788      1.0  0.47924  0.70431  0.43029  1.0000
  S   S319      1.0  0.00358  0.73305  0.35117  1.0000
  S   S320      1.0  0.47438  0.71180  0.39206  1.0000
  C   C789      1.0  0.23623  0.71071  0.24767  1.0000
  H   H1255     1.0  0.28327  0.94000  0.33583  1.0000
  H   H1256     1.0  0.10624  0.94051  0.37994  1.0000
  Fe  Fe163     1.0  0.48759  0.71337  0.36852  1.0000
  C   C790      1.0  0.12389  0.67003  0.26354  1.0000
  H   H1257     1.0  0.11817  0.91634  0.39144  1.0000
  C   C791      1.0  0.11448  0.70969  0.25516  1.0000
  C   C792      1.0  0.08411  0.66724  0.36644  1.0000
  C   C793      1.0  0.43543  0.93761  0.40438  1.0000
  H   H1258     1.0  0.47753  0.93755  0.39018  1.0000
  H   H1259     1.0  0.28128  0.95347  0.43125  1.0000
  H   H1260     1.0  0.47952  0.92813  0.40885  1.0000
  H   H1261     1.0  0.27357  0.71598  0.25722  1.0000
  C   C794      1.0  0.07409  0.92721  0.40168  1.0000
  N   N82       1.0  0.37449  0.80985  0.35196  1.0000
  C   C795      1.0  0.37640  0.83354  0.35193  1.0000
  C   C796      1.0  0.35034  0.80707  0.35494  1.0000
  C   C797      1.0  0.38648  0.79510  0.36312  1.0000
  C   C798      1.0  0.38468  0.80365  0.33780  1.0000
  H   H1262     1.0  0.36861  0.83895  0.36240  1.0000
  H   H1263     1.0  0.36758  0.84493  0.34352  1.0000
  H   H1264     1.0  0.39440  0.83627  0.34974  1.0000
  H   H1265     1.0  0.34099  0.81734  0.34643  1.0000
  H   H1266     1.0  0.34832  0.78925  0.35542  1.0000
  H   H1267     1.0  0.34183  0.81231  0.36532  1.0000
  H   H1268     1.0  0.37930  0.79932  0.37397  1.0000
  H   H1269     1.0  0.40484  0.79647  0.36112  1.0000
  H   H1270     1.0  0.38515  0.77713  0.36339  1.0000
  H   H1271     1.0  0.38277  0.78615  0.33730  1.0000
  H   H1272     1.0  0.40308  0.80479  0.33534  1.0000
  H   H1273     1.0  0.37643  0.81479  0.32906  1.0000
  H   H1274     1.0  0.45171  0.94405  0.42740  1.0000
  C   C799      1.0  0.02072  0.92184  0.43256  1.0000
  H   H1275     1.0  0.99912  0.97456  0.41790  1.0000
  H   H1276     1.0  0.45876  0.97128  0.41989  1.0000
  H   H1277     1.0  0.12032  0.71327  0.28186  1.0000
  C   C800      1.0  0.10095  0.93157  0.41626  1.0000
  H   H1278     1.0  0.12058  0.66185  0.31487  1.0000
  C   C801      1.0  0.30428  0.95031  0.30030  1.0000
  N   N83       1.0  0.09279  0.93923  0.40233  1.0000
  H   H1279     1.0  0.46938  0.68634  0.45792  1.0000
  S   S321      1.0  0.20529  0.66189  0.25579  1.0000
  H   H1280     1.0  0.42988  0.96689  0.42272  1.0000
  H   H1281     1.0  0.10743  0.91325  0.41781  1.0000
  S   S322      1.0  0.09521  0.97891  0.43731  1.0000
  H   H1282     1.0  0.31510  0.96212  0.29325  1.0000
  S   S323      1.0  0.14461  0.97702  0.40413  1.0000
  C   C802      1.0  0.27384  0.69953  0.25381  1.0000
  N   N84       1.0  0.25997  0.70197  0.24234  1.0000
  C   C803      1.0  0.11790  0.69649  0.28007  1.0000
  H   H1283     1.0  0.22521  0.71218  0.23939  1.0000
  Fe  Fe164     1.0  0.00311  0.73073  0.37488  1.0000
  C   C804      1.0  0.15119  0.69484  0.26194  1.0000
  H   H1284     1.0  0.46539  0.69396  0.43207  1.0000
  C   C805      1.0  0.99927  0.77207  0.39669  1.0000
  H   H1285     1.0  0.33310  0.96345  0.31440  1.0000
  H   H1286     1.0  0.28556  0.98106  0.32728  1.0000
  S   S324      1.0  0.34774  0.95241  0.39937  1.0000
  H   H1287     1.0  0.15864  0.69187  0.25084  1.0000
  C   C806      1.0  0.28704  0.96499  0.42139  1.0000
  H   H1288     1.0  0.10574  0.66783  0.26585  1.0000
  H   H1289     1.0  0.09951  0.69534  0.28292  1.0000
  H   H1290     1.0  0.12609  0.94335  0.39097  1.0000
  C   C807      1.0  0.37280  0.97279  0.41263  1.0000
  H   H1291     1.0  0.25430  0.66750  0.24716  1.0000
  H   H1292     1.0  0.33171  0.93391  0.31976  1.0000
  C   C808      1.0  0.44759  0.95914  0.41931  1.0000
  H   H1293     1.0  0.12089  0.70733  0.24383  1.0000
  C   C809      1.0  0.11165  0.93462  0.39063  1.0000
  C   C810      1.0  0.32218  0.95102  0.32057  1.0000
  C   C811      1.0  0.08458  0.96362  0.40074  1.0000
  C   C812      1.0  0.00453  0.79251  0.39872  1.0000
  C   C813      1.0  0.44582  0.97421  0.39444  1.0000
  H   H1294     1.0  0.29382  0.92047  0.32362  1.0000
  H   H1295     1.0  0.13064  0.66658  0.25244  1.0000
  H   H1296     1.0  0.48794  0.70394  0.41913  1.0000
  C   C814      1.0  0.19763  0.65194  0.23070  1.0000
  H   H1297     1.0  0.31297  0.93290  0.29935  1.0000
  H   H1298     1.0  0.08290  0.65144  0.32581  1.0000
  H   H1299     1.0  0.43738  0.93298  0.39353  1.0000
  H   H1300     1.0  0.43878  0.92183  0.41207  1.0000
  H   H1301     1.0  0.26754  0.68784  0.26347  1.0000
  H   H1302     1.0  0.16105  0.68234  0.26929  1.0000
  H   H1303     1.0  0.05920  0.93120  0.40995  1.0000
  Fe  Fe165     1.0  0.31124  0.98234  0.35408  1.0000
  C   C815      1.0  0.18920  0.97240  0.39132  1.0000
  H   H1304     1.0  0.27215  0.98068  0.31221  1.0000
  H   H1305     1.0  0.09479  0.66939  0.35568  1.0000
  H   H1306     1.0  0.30263  0.95592  0.41569  1.0000
  H   H1307     1.0  0.36202  0.78034  0.22945  1.0000
  H   H1308     1.0  0.09067  0.67631  0.37341  1.0000
  H   H1309     1.0  0.06673  0.67593  0.36504  1.0000
  H   H1310     1.0  0.13301  0.65683  0.27097  1.0000
  H   H1311     1.0  0.30412  0.97037  0.44416  1.0000
  H   H1312     1.0  0.42808  0.98258  0.39707  1.0000
  H   H1313     1.0  0.47981  0.93829  0.58884  1.0000
  C   C816      1.0  0.99896  0.96396  0.52297  1.0000
  H   H1314     1.0  0.02316  0.77851  0.62885  1.0000
  H   H1315     1.0  0.21015  0.87455  0.66882  1.0000
  H   H1316     1.0  0.11216  0.78635  0.70974  1.0000
  H   H1317     1.0  0.20547  0.84599  0.67131  1.0000
  Fe  Fe166     1.0  0.21200  0.97267  0.62869  1.0000
  S   S325      1.0  0.19297  0.94760  0.64484  1.0000
  S   S326      1.0  0.23887  0.96483  0.61016  1.0000
  Fe  Fe167     1.0  0.30863  0.67498  0.67958  1.0000
  S   S327      1.0  0.29537  0.70505  0.66423  1.0000
  H   H1318     1.0  0.21678  0.83436  0.70241  1.0000
  H   H1319     1.0  0.48567  0.65731  0.58686  1.0000
  S   S328      1.0  0.01660  0.97915  0.58783  1.0000
  C   C817      1.0  0.46937  0.70609  0.68481  1.0000
  C   C818      1.0  0.17261  0.86785  0.68833  1.0000
  Fe  Fe168     1.0  0.17284  0.82180  0.65516  1.0000
  S   S329      1.0  0.16240  0.79162  0.64910  1.0000
  S   S330      1.0  0.19409  0.84547  0.63953  1.0000
  Fe  Fe169     1.0  0.15201  0.81081  0.68634  1.0000
  S   S331      1.0  0.14020  0.78005  0.68305  1.0000
  H   H1320     1.0  0.38810  0.69783  0.62344  1.0000
  Fe  Fe170     1.0  0.17414  0.77312  0.66960  1.0000
  S   S332      1.0  0.18996  0.73697  0.67459  1.0000
  Fe  Fe171     1.0  0.12915  0.80073  0.66309  1.0000
  S   S333      1.0  0.09297  0.80174  0.65956  1.0000
  S   S334      1.0  0.18707  0.80230  0.67463  1.0000
  S   S335      1.0  0.13864  0.83250  0.66731  1.0000
  C   C819      1.0  0.42518  0.65024  0.65735  1.0000
  S   S336      1.0  0.01569  0.67654  0.64781  1.0000
  H   H1321     1.0  0.19299  0.88159  0.70688  1.0000
  H   H1322     1.0  0.01702  0.76238  0.61672  1.0000
  Fe  Fe172     1.0  0.02997  0.70868  0.63978  1.0000
  S   S337      1.0  0.06069  0.71424  0.64833  1.0000
  H   H1323     1.0  0.22801  0.68389  0.66414  1.0000
  S   S338      1.0  0.03710  0.70254  0.61698  1.0000
  H   H1324     1.0  0.16115  0.77657  0.71087  1.0000
  S   S339      1.0  0.33505  0.67616  0.69288  1.0000
  H   H1325     1.0  0.18947  0.94195  0.59346  1.0000
  C   C820      1.0  0.08595  0.81966  0.69509  1.0000
  C   C821      1.0  0.08404  0.77737  0.65650  1.0000
  C   C822      1.0  0.09919  0.75751  0.65536  1.0000
  C   C823      1.0  0.09165  0.73840  0.65288  1.0000
  C   C824      1.0  0.06895  0.73892  0.65150  1.0000
  C   C825      1.0  0.05368  0.75872  0.65283  1.0000
  C   C826      1.0  0.06125  0.77790  0.65525  1.0000
  H   H1326     1.0  0.11675  0.75683  0.65636  1.0000
  H   H1327     1.0  0.10354  0.72310  0.65201  1.0000
  H   H1328     1.0  0.03601  0.75910  0.65230  1.0000
  H   H1329     1.0  0.04936  0.79315  0.65629  1.0000
  C   C827      1.0  0.26650  0.71608  0.66808  1.0000
  C   C828      1.0  0.25304  0.70731  0.68054  1.0000
  C   C829      1.0  0.22960  0.71447  0.68269  1.0000
  C   C830      1.0  0.21959  0.73097  0.67261  1.0000
  C   C831      1.0  0.23317  0.74065  0.66049  1.0000
  C   C832      1.0  0.25660  0.73306  0.65817  1.0000
  H   H1330     1.0  0.26058  0.69484  0.68846  1.0000
  H   H1331     1.0  0.21913  0.70713  0.69215  1.0000
  H   H1332     1.0  0.22547  0.75330  0.65263  1.0000
  H   H1333     1.0  0.26694  0.74002  0.64853  1.0000
  C   C833      1.0  0.43381  0.68818  0.65381  1.0000
  C   C834      1.0  0.41608  0.69311  0.66490  1.0000
  C   C835      1.0  0.40275  0.67669  0.67209  1.0000
  H   H1334     1.0  0.41249  0.70973  0.66783  1.0000
  H   H1335     1.0  0.07084  0.76756  0.70533  1.0000
  N   N85       1.0  0.19654  0.86129  0.69042  1.0000
  C   C836      1.0  0.05615  0.80786  0.71375  1.0000
  Fe  Fe173     1.0  0.02063  0.67162  0.62483  1.0000
  C   C837      1.0  0.19342  0.87389  0.64103  1.0000
  C   C838      1.0  0.17653  0.88489  0.65038  1.0000
  C   C839      1.0  0.17674  0.90743  0.65146  1.0000
  C   C840      1.0  0.19361  0.91928  0.64307  1.0000
  C   C841      1.0  0.21030  0.90840  0.63354  1.0000
  C   C842      1.0  0.21021  0.88578  0.63256  1.0000
  H   H1336     1.0  0.16326  0.87604  0.65671  1.0000
  H   H1337     1.0  0.16361  0.91584  0.65873  1.0000
  H   H1338     1.0  0.22343  0.91730  0.62705  1.0000
  H   H1339     1.0  0.22330  0.87741  0.62525  1.0000
  H   H1340     1.0  0.10258  0.81462  0.68865  1.0000
  H   H1341     1.0  0.12923  0.94512  0.62458  1.0000
  Fe  Fe174     1.0  0.00181  0.72109  0.61573  1.0000
  C   C843      1.0  0.46252  0.96361  0.50366  1.0000
  C   C844      1.0  0.20357  0.87900  0.69639  1.0000
  C   C845      1.0  0.16115  0.91617  0.61105  1.0000
  C   C846      1.0  0.07652  0.78234  0.69783  1.0000
  N   N86       1.0  0.38343  0.96949  0.58332  1.0000
  H   H1342     1.0  0.26716  0.66815  0.66704  1.0000
  H   H1343     1.0  0.22899  0.85265  0.67771  1.0000
  C   C847      1.0  0.47874  0.96811  0.57286  1.0000
  C   C848      1.0  0.15221  0.80490  0.72215  1.0000
  H   H1344     1.0  0.35438  0.95873  0.57833  1.0000
  H   H1345     1.0  0.07388  0.82635  0.68733  1.0000
  H   H1346     1.0  0.20190  0.89539  0.68904  1.0000
  S   S340      1.0  0.99552  0.72897  0.63817  1.0000
  H   H1347     1.0  0.13993  0.96732  0.59421  1.0000
  C   C849      1.0  0.18004  0.94874  0.60319  1.0000
  H   H1348     1.0  0.38908  0.68056  0.68063  1.0000
  H   H1349     1.0  0.06586  0.74496  0.60533  1.0000
  H   H1350     1.0  0.45602  0.70887  0.67783  1.0000
  H   H1351     1.0  0.16114  0.86918  0.69870  1.0000
  H   H1352     1.0  0.18811  0.84137  0.71108  1.0000
  H   H1353     1.0  0.08792  0.83358  0.70048  1.0000
  N   N87       1.0  0.07846  0.80047  0.70554  1.0000
  H   H1354     1.0  0.07832  0.79051  0.60740  1.0000
  H   H1355     1.0  0.04440  0.95601  0.52020  1.0000
  C   C850      1.0  0.14379  0.94869  0.59632  1.0000
  H   H1356     1.0  0.15252  0.94309  0.58607  1.0000
  N   N88       1.0  0.01329  0.97208  0.53115  1.0000
  C   C851      1.0  0.21093  0.85848  0.67649  1.0000
  H   H1357     1.0  0.22976  0.66785  0.65009  1.0000
  H   H1358     1.0  0.19370  0.82621  0.69640  1.0000
  C   C852      1.0  0.03616  0.97284  0.52272  1.0000
  S   S341      1.0  0.48712  0.69370  0.60687  1.0000
  C   C853      1.0  0.15983  0.78232  0.72099  1.0000
  H   H1359     1.0  0.02179  0.79362  0.59674  1.0000
  S   S342      1.0  0.44914  0.70949  0.64426  1.0000
  H   H1360     1.0  0.04734  0.97885  0.52865  1.0000
  H   H1361     1.0  0.05877  0.79476  0.62347  1.0000
  C   C854      1.0  0.43855  0.66661  0.65019  1.0000
  H   H1362     1.0  0.46881  0.72208  0.68883  1.0000
  N   N89       1.0  0.04735  0.77701  0.60953  1.0000
  C   C855      1.0  0.03558  0.79753  0.60164  1.0000
  C   C856      1.0  0.03096  0.76684  0.62111  1.0000
  C   C857      1.0  0.06560  0.78274  0.61580  1.0000
  C   C858      1.0  0.05709  0.76074  0.59964  1.0000
  H   H1363     1.0  0.02762  0.80998  0.60885  1.0000
  H   H1364     1.0  0.45215  0.66265  0.64164  1.0000
  H   H1365     1.0  0.04741  0.80580  0.59283  1.0000
  S   S343      1.0  0.28775  0.65458  0.69710  1.0000
  H   H1366     1.0  0.03916  0.75114  0.62718  1.0000
  H   H1367     1.0  0.07472  0.76753  0.62186  1.0000
  S   S344      1.0  0.14407  0.82421  0.70729  1.0000
  H   H1368     1.0  0.16996  0.90857  0.60149  1.0000
  H   H1369     1.0  0.39295  0.95659  0.56340  1.0000
  C   C859      1.0  0.48854  0.94686  0.57909  1.0000
  H   H1370     1.0  0.06954  0.76777  0.59070  1.0000
  H   H1371     1.0  0.04365  0.75598  0.59482  1.0000
  H   H1372     1.0  0.38753  0.93342  0.58738  1.0000
  C   C860      1.0  0.19898  0.83991  0.70051  1.0000
  H   H1373     1.0  0.16440  0.96170  0.55015  1.0000
  H   H1374     1.0  0.17160  0.90981  0.61972  1.0000
  H   H1375     1.0  0.17809  0.96734  0.60047  1.0000
  H   H1376     1.0  0.15617  0.94467  0.62983  1.0000
  H   H1377     1.0  0.09727  0.80550  0.72132  1.0000
  H   H1378     1.0  0.36324  0.68233  0.66202  1.0000
  N   N90       1.0  0.15780  0.94097  0.60785  1.0000
  H   H1379     1.0  0.35372  0.72709  0.62318  1.0000
  H   H1380     1.0  0.06433  0.78821  0.69007  1.0000
  H   H1381     1.0  0.47899  0.67994  0.66436  1.0000
  H   H1382     1.0  0.14474  0.90967  0.61466  1.0000
  H   H1383     1.0  0.09297  0.77636  0.69145  1.0000
  H   H1384     1.0  0.09000  0.77771  0.72362  1.0000
  N   N91       1.0  0.49195  0.69889  0.67684  1.0000
  C   C861      1.0  0.39106  0.94767  0.59185  1.0000
  N   N92       1.0  0.36113  0.70188  0.64119  1.0000
  C   C862      1.0  0.34858  0.68572  0.63758  1.0000
  C   C863      1.0  0.35195  0.72495  0.63506  1.0000
  C   C864      1.0  0.38540  0.69679  0.63529  1.0000
  C   C865      1.0  0.35852  0.70000  0.65692  1.0000
  H   H1385     1.0  0.33027  0.68885  0.64213  1.0000
  H   H1386     1.0  0.35522  0.66812  0.64200  1.0000
  H   H1387     1.0  0.34987  0.68684  0.62579  1.0000
  H   H1388     1.0  0.36089  0.73755  0.63776  1.0000
  H   H1389     1.0  0.02340  0.93955  0.54311  1.0000
  H   H1390     1.0  0.33359  0.72916  0.63931  1.0000
  H   H1391     1.0  0.46465  0.69318  0.69418  1.0000
  H   H1392     1.0  0.39545  0.70867  0.63778  1.0000
  H   H1393     1.0  0.39283  0.67957  0.63990  1.0000
  H   H1394     1.0  0.99730  0.97521  0.51256  1.0000
  H   H1395     1.0  0.22155  0.87462  0.69811  1.0000
  H   H1396     1.0  0.34078  0.70553  0.66167  1.0000
  Fe  Fe175     1.0  0.48165  0.69791  0.63010  1.0000
  C   C866      1.0  0.14622  0.95034  0.62085  1.0000
  H   H1397     1.0  0.12727  0.94229  0.59916  1.0000
  H   H1398     1.0  0.19090  0.94363  0.61175  1.0000
  H   H1399     1.0  0.23643  0.66431  0.68818  1.0000
  C   C867      1.0  0.40691  0.65538  0.66806  1.0000
  H   H1400     1.0  0.16993  0.88433  0.68124  1.0000
  C   C868      1.0  0.09511  0.79212  0.71550  1.0000
  H   H1401     1.0  0.14390  0.96904  0.61886  1.0000
  S   S345      1.0  0.99682  0.74729  0.59609  1.0000
  H   H1402     1.0  0.40965  0.94528  0.59204  1.0000
  H   H1403     1.0  0.16697  0.85522  0.68338  1.0000
  H   H1404     1.0  0.99791  0.95498  0.55118  1.0000
  H   H1405     1.0  0.47772  0.95638  0.50889  1.0000
  H   H1406     1.0  0.02465  0.96284  0.55171  1.0000
  H   H1407     1.0  0.36916  0.71061  0.66011  1.0000
  H   H1408     1.0  0.20089  0.96362  0.55719  1.0000
  H   H1409     1.0  0.04321  0.81430  0.70655  1.0000
  H   H1410     1.0  0.02617  0.65522  0.59382  1.0000
  Fe  Fe176     1.0  0.31548  0.65333  0.70989  1.0000
  C   C869      1.0  0.16504  0.97306  0.55738  1.0000
  C   C870      1.0  0.22573  0.66733  0.66190  1.0000
  H   H1411     1.0  0.99825  0.93815  0.59174  1.0000
  H   H1412     1.0  0.45679  0.94964  0.50006  1.0000
  H   H1413     1.0  0.38234  0.94646  0.60316  1.0000
  H   H1414     1.0  0.48452  0.71979  0.65717  1.0000
  C   C871      1.0  0.01494  0.95669  0.54486  1.0000
  C   C872      1.0  0.48591  0.97243  0.48079  1.0000
  H   H1415     1.0  0.34901  0.97133  0.59427  1.0000
  C   C873      1.0  0.18571  0.97405  0.56141  1.0000
  C   C874      1.0  0.35878  0.97210  0.58322  1.0000
  H   H1416     1.0  0.00615  0.94678  0.52059  1.0000
  H   H1417     1.0  0.44142  0.97744  0.48035  1.0000
  C   C875      1.0  0.49011  0.97906  0.56024  1.0000
  H   H1418     1.0  0.20745  0.66585  0.66523  1.0000
  C   C876      1.0  0.39564  0.97056  0.56847  1.0000
  H   H1419     1.0  0.41424  0.96955  0.56815  1.0000
  H   H1420     1.0  0.04995  0.79379  0.72175  1.0000
  C   C877      1.0  0.26422  0.65173  0.66501  1.0000
  H   H1421     1.0  0.05701  0.82156  0.71968  1.0000
  H   H1422     1.0  0.44890  0.97005  0.51201  1.0000
  H   H1423     1.0  0.26979  0.65111  0.65338  1.0000
  N   N93       1.0  0.46761  0.98161  0.49153  1.0000
  S   S346      1.0  0.45261  0.98087  0.58128  1.0000
  H   H1424     1.0  0.48755  0.66410  0.68065  1.0000
  C   C878      1.0  0.49176  0.67774  0.67166  1.0000
  C   C879      1.0  0.99413  0.97244  0.58099  1.0000
  H   H1425     1.0  0.48125  0.95812  0.47692  1.0000
  Fe  Fe177     1.0  0.42129  0.87191  0.93885  1.0000
  S   S347      1.0  0.44970  0.87972  0.92106  1.0000
  Fe  Fe178     1.0  0.38485  0.89228  0.91985  1.0000
  S   S348      1.0  0.41089  0.90130  0.90088  1.0000
  S   S349      1.0  0.34769  0.90660  0.91929  1.0000
  Fe  Fe179     1.0  0.43004  0.86707  0.90739  1.0000
  S   S350      1.0  0.44867  0.84775  0.88968  1.0000
  Fe  Fe180     1.0  0.42796  0.91294  0.91634  1.0000
  S   S351      1.0  0.43875  0.94727  0.91144  1.0000
  S   S352      1.0  0.40278  0.85689  0.92549  1.0000
  S   S353      1.0  0.40081  0.90606  0.93501  1.0000
  S   S354      1.0  0.03720  0.92530  0.93649  1.0000
  H   H1426     1.0  0.41862  0.73874  0.87920  1.0000
  C   C880      1.0  0.15076  0.81214  0.73534  1.0000
  Fe  Fe181     1.0  0.21397  0.75471  0.79893  1.0000
  S   S355      1.0  0.20296  0.78326  0.78227  1.0000
  S   S356      1.0  0.25153  0.74274  0.79573  1.0000
  Fe  Fe182     1.0  0.16557  0.75282  0.81426  1.0000
  S   S357      1.0  0.15067  0.78111  0.79857  1.0000
  S   S358      1.0  0.14533  0.73664  0.83446  1.0000
  Fe  Fe183     1.0  0.17518  0.76413  0.78177  1.0000
  S   S359      1.0  0.17085  0.75402  0.76113  1.0000
  Fe  Fe184     1.0  0.18001  0.79757  0.80058  1.0000
  S   S360      1.0  0.17871  0.83432  0.80180  1.0000
  S   S361      1.0  0.18773  0.73439  0.79742  1.0000
  S   S362      1.0  0.19338  0.77040  0.81732  1.0000
  H   H1427     1.0  0.26218  0.89655  0.89932  1.0000
  S   S363      1.0  0.04892  0.71357  0.83187  1.0000
  H   H1428     1.0  0.23541  0.90538  0.90950  1.0000
  Fe  Fe185     1.0  0.08179  0.84954  0.93305  1.0000
  S   S364      1.0  0.06255  0.82357  0.94716  1.0000
  S   S365      1.0  0.11622  0.83878  0.92099  1.0000
  Fe  Fe186     1.0  0.04458  0.88761  0.93926  1.0000
  S   S366      1.0  0.02214  0.86488  0.95392  1.0000
  Fe  Fe187     1.0  0.05381  0.84805  0.96279  1.0000
  Fe  Fe188     1.0  0.03276  0.84237  0.93698  1.0000
  S   S367      1.0  0.00665  0.82381  0.93194  1.0000
  S   S368      1.0  0.07543  0.87248  0.94934  1.0000
  S   S369      1.0  0.05273  0.86675  0.92159  1.0000
  Fe  Fe189     1.0  0.21569  0.93473  0.85977  1.0000
  S   S370      1.0  0.23160  0.93217  0.87949  1.0000
  H   H1429     1.0  0.23817  0.74216  0.75002  1.0000
  Fe  Fe190     1.0  0.21893  0.88386  0.86193  1.0000
  S   S371      1.0  0.23510  0.87755  0.88176  1.0000
  S   S372      1.0  0.21221  0.85133  0.85672  1.0000
  Fe  Fe191     1.0  0.20938  0.90573  0.88894  1.0000
  S   S373      1.0  0.19021  0.90278  0.91152  1.0000
  Fe  Fe192     1.0  0.25623  0.90403  0.87071  1.0000
  S   S374      1.0  0.29415  0.89429  0.87109  1.0000
  S   S375      1.0  0.19154  0.91028  0.87005  1.0000
  S   S376      1.0  0.24198  0.90842  0.85006  1.0000
  N   N94       1.0  0.09692  0.92338  0.90365  1.0000
  H   H1430     1.0  0.09493  0.77224  0.83143  1.0000
  S   S377      1.0  0.45273  0.70935  0.83876  1.0000
  H   H1431     1.0  0.44633  0.74663  0.87504  1.0000
  C   C881      1.0  0.13699  0.85621  0.91883  1.0000
  C   C882      1.0  0.15435  0.85565  0.90703  1.0000
  C   C883      1.0  0.17069  0.86997  0.90471  1.0000
  C   C884      1.0  0.17006  0.88453  0.91439  1.0000
  C   C885      1.0  0.15306  0.88468  0.92642  1.0000
  C   C886      1.0  0.13637  0.87073  0.92856  1.0000
  H   H1432     1.0  0.15496  0.84441  0.89948  1.0000
  H   H1433     1.0  0.18381  0.86964  0.89542  1.0000
  H   H1434     1.0  0.15262  0.89584  0.93398  1.0000
  H   H1435     1.0  0.12325  0.87107  0.93779  1.0000
  Fe  Fe193     1.0  0.99841  0.75242  0.87089  1.0000
  H   H1436     1.0  0.43993  0.67466  0.86263  1.0000
  C   C887      1.0  0.00891  0.81181  0.91618  1.0000
  H   H1437     1.0  0.03109  0.83362  0.90284  1.0000
  H   H1438     1.0  0.39996  0.95017  0.89662  1.0000
  C   C888      1.0  0.11914  0.72914  0.83350  1.0000
  C   C889      1.0  0.10463  0.72308  0.84625  1.0000
  C   C890      1.0  0.08295  0.71854  0.84587  1.0000
  C   C891      1.0  0.07590  0.71943  0.83272  1.0000
  C   C892      1.0  0.09063  0.72490  0.81996  1.0000
  C   C893      1.0  0.11211  0.73004  0.82033  1.0000
  H   H1439     1.0  0.11003  0.72239  0.85646  1.0000
  H   H1440     1.0  0.07182  0.71426  0.85577  1.0000
  H   H1441     1.0  0.08529  0.72553  0.80974  1.0000
  H   H1442     1.0  0.12322  0.73469  0.81045  1.0000
  C   C894      1.0  0.18496  0.84070  0.81766  1.0000
  C   C895      1.0  0.19303  0.86087  0.81739  1.0000
  C   C896      1.0  0.20039  0.86507  0.82957  1.0000
  C   C897      1.0  0.19951  0.84915  0.84208  1.0000
  C   C898      1.0  0.19034  0.82958  0.84252  1.0000
  C   C899      1.0  0.18314  0.82534  0.83038  1.0000
  H   H1443     1.0  0.19431  0.87291  0.80761  1.0000
  H   H1444     1.0  0.20743  0.88022  0.82913  1.0000
  H   H1445     1.0  0.18928  0.81737  0.85224  1.0000
  H   H1446     1.0  0.17632  0.81009  0.83085  1.0000
  H   H1447     1.0  0.24182  0.70395  0.78453  1.0000
  H   H1448     1.0  0.42236  0.90238  0.96013  1.0000
  C   C900      1.0  0.16406  0.77411  0.74626  1.0000
  H   H1449     1.0  0.15610  0.80356  0.96492  1.0000
  H   H1450     1.0  0.23467  0.82823  0.81804  1.0000
  C   C901      1.0  0.46127  0.95034  0.91983  1.0000
  H   H1451     1.0  0.15560  0.80243  0.75754  1.0000
  C   C902      1.0  0.27712  0.67527  0.82129  1.0000
  C   C903      1.0  0.29161  0.68612  0.81020  1.0000
  C   C904      1.0  0.28359  0.70691  0.80249  1.0000
  C   C905      1.0  0.26099  0.71679  0.80569  1.0000
  C   C906      1.0  0.24633  0.70579  0.81658  1.0000
  C   C907      1.0  0.25444  0.68509  0.82443  1.0000
  H   H1452     1.0  0.30906  0.67861  0.80763  1.0000
  H   H1453     1.0  0.29497  0.71533  0.79403  1.0000
  H   H1454     1.0  0.22882  0.71331  0.81907  1.0000
  H   H1455     1.0  0.03063  0.81878  0.88066  1.0000
  C   C908      1.0  0.00890  0.79427  0.89086  1.0000
  C   C909      1.0  0.46899  0.97116  0.91745  1.0000
  C   C910      1.0  0.42552  0.68581  0.82923  1.0000
  C   C911      1.0  0.43586  0.68789  0.84074  1.0000
  C   C912      1.0  0.40948  0.65335  0.84315  1.0000
  Fe  Fe194     1.0  0.02043  0.72001  0.85005  1.0000
  H   H1456     1.0  0.04366  0.81517  0.82941  1.0000
  H   H1457     1.0  0.42791  0.69736  0.81927  1.0000
  H   H1458     1.0  0.45813  0.96843  0.97429  1.0000
  S   S378      1.0  0.02519  0.72195  0.87229  1.0000
  H   H1459     1.0  0.07125  0.92862  0.89014  1.0000
  S   S379      1.0  0.35286  0.65506  0.81599  1.0000
  H   H1460     1.0  0.06649  0.79903  0.81922  1.0000
  H   H1461     1.0  0.12622  0.94007  0.89676  1.0000
  C   C913      1.0  0.10865  0.90239  0.89851  1.0000
  H   H1462     1.0  0.10113  0.88749  0.90467  1.0000
  H   H1463     1.0  0.27864  0.72620  0.75141  1.0000
  H   H1464     1.0  0.03240  0.66504  0.87234  1.0000
  N   N95       1.0  0.37090  0.97090  0.90617  1.0000
  C   C914      1.0  0.33392  0.90414  0.90512  1.0000
  C   C915      1.0  0.31334  0.91814  0.90314  1.0000
  C   C916      1.0  0.30135  0.91586  0.89242  1.0000
  C   C917      1.0  0.30948  0.89911  0.88389  1.0000
  C   C918      1.0  0.33035  0.88553  0.88565  1.0000
  C   C919      1.0  0.34258  0.88806  0.89618  1.0000
  H   H1465     1.0  0.30667  0.93082  0.90990  1.0000
  H   H1466     1.0  0.28583  0.92708  0.89071  1.0000
  H   H1467     1.0  0.33696  0.87277  0.87893  1.0000
  H   H1468     1.0  0.35846  0.87727  0.89756  1.0000
  C   C920      1.0  0.45298  0.81826  0.89110  1.0000
  C   C921      1.0  0.44230  0.80472  0.90281  1.0000
  H   H1469     1.0  0.06345  0.94263  0.90559  1.0000
  C   C922      1.0  0.46415  0.77115  0.89406  1.0000
  C   C923      1.0  0.43197  0.74396  0.87023  1.0000
  H   H1470     1.0  0.42786  0.78647  0.87462  1.0000
  H   H1471     1.0  0.42988  0.81235  0.91079  1.0000
  H   H1472     1.0  0.06410  0.91299  0.90770  1.0000
  C   C924      1.0  0.01254  0.93742  0.92918  1.0000
  H   H1473     1.0  0.40036  0.77815  0.87785  1.0000
  H   H1474     1.0  0.14485  0.82960  0.73631  1.0000
  H   H1475     1.0  0.09970  0.95856  0.89907  1.0000
  H   H1476     1.0  0.39109  0.75405  0.86211  1.0000
  H   H1477     1.0  0.07893  0.66899  0.84131  1.0000
  H   H1478     1.0  0.10752  0.94424  0.88378  1.0000
  H   H1479     1.0  0.41182  0.74589  0.84737  1.0000
  H   H1480     1.0  0.40818  0.79850  0.86245  1.0000
  S   S380      1.0  0.43098  0.85410  0.96023  1.0000
  H   H1481     1.0  0.44968  0.75758  0.84306  1.0000
  C   C925      1.0  0.47400  0.78463  0.88199  1.0000
  C   C926      1.0  0.99636  0.79456  0.91641  1.0000
  H   H1482     1.0  0.01687  0.91400  0.91443  1.0000
  H   H1483     1.0  0.23381  0.69382  0.74902  1.0000
  N   N96       1.0  0.42348  0.76440  0.86074  1.0000
  S   S381      1.0  0.19846  0.96709  0.84806  1.0000
  C   C927      1.0  0.04055  0.65131  0.84646  1.0000
  Fe  Fe195     1.0  0.47908  0.70657  0.85324  1.0000
  H   H1484     1.0  0.43808  0.72961  0.86425  1.0000
  C   C928      1.0  0.46237  0.81974  0.92951  1.0000
  C   C929      1.0  0.38152  0.95509  0.89615  1.0000
  C   C930      1.0  0.44220  0.77123  0.84951  1.0000
  H   H1485     1.0  0.49080  0.81260  0.90512  1.0000
  H   H1486     1.0  0.24315  0.67674  0.83298  1.0000
  H   H1487     1.0  0.48106  0.65497  0.84048  1.0000
  C   C931      1.0  0.99929  0.95663  0.93390  1.0000
  C   C932      1.0  0.02155  0.82019  0.90323  1.0000
  N   N97       1.0  0.25004  0.70980  0.76157  1.0000
  C   C933      1.0  0.24297  0.69528  0.77518  1.0000
  C   C934      1.0  0.23362  0.73078  0.76020  1.0000
  H   H1488     1.0  0.26286  0.68193  0.75018  1.0000
  H   H1489     1.0  0.25521  0.67951  0.77678  1.0000
  H   H1490     1.0  0.22596  0.69069  0.77553  1.0000
  C   C935      1.0  0.02128  0.81168  0.89064  1.0000
  H   H1491     1.0  0.21618  0.72732  0.76039  1.0000
  H   H1492     1.0  0.26026  0.91403  0.91273  1.0000
  H   H1493     1.0  0.09785  0.83529  0.96843  1.0000
  C   C936      1.0  0.41923  0.65591  0.85479  1.0000
  H   H1494     1.0  0.28562  0.69975  0.76252  1.0000
  N   N98       1.0  0.06536  0.79105  0.84204  1.0000
  C   C937      1.0  0.06175  0.80733  0.82894  1.0000
  C   C938      1.0  0.05894  0.80266  0.85467  1.0000
  C   C939      1.0  0.08949  0.78098  0.84092  1.0000
  C   C940      1.0  0.05118  0.77327  0.84363  1.0000
  H   H1495     1.0  0.37362  0.93949  0.89870  1.0000
  H   H1496     1.0  0.17113  0.74944  0.73213  1.0000
  H   H1497     1.0  0.48649  0.77701  0.87404  1.0000
  H   H1498     1.0  0.06970  0.81574  0.85414  1.0000
  H   H1499     1.0  0.04806  0.68376  0.85925  1.0000
  H   H1500     1.0  0.06054  0.79063  0.86481  1.0000
  H   H1501     1.0  0.09285  0.76845  0.85057  1.0000
  H   H1502     1.0  0.10072  0.79386  0.83978  1.0000
  H   H1503     1.0  0.48749  0.78456  0.94314  1.0000
  H   H1504     1.0  0.05529  0.76424  0.83424  1.0000
  H   H1505     1.0  0.03284  0.78032  0.84473  1.0000
  H   H1506     1.0  0.05352  0.76060  0.85339  1.0000
  C   C941      1.0  0.09811  0.92162  0.91903  1.0000
  H   H1507     1.0  0.11594  0.91940  0.92096  1.0000
  H   H1508     1.0  0.09038  0.90707  0.92546  1.0000
  H   H1509     1.0  0.08875  0.93686  0.92340  1.0000
  H   H1510     1.0  0.12691  0.89936  0.89964  1.0000
  H   H1511     1.0  0.10780  0.90291  0.88700  1.0000
  N   N99       1.0  0.25289  0.79576  0.82513  1.0000
  C   C942      1.0  0.27376  0.80467  0.82547  1.0000
  C   C943      1.0  0.25884  0.77341  0.82061  1.0000
  C   C944      1.0  0.23971  0.81126  0.81485  1.0000
  C   C945      1.0  0.23921  0.79375  0.83958  1.0000
  H   H1512     1.0  0.28405  0.79349  0.83319  1.0000
  H   H1513     1.0  0.26971  0.82160  0.82880  1.0000
  H   H1514     1.0  0.28452  0.80635  0.81474  1.0000
  H   H1515     1.0  0.26914  0.76129  0.82793  1.0000
  H   H1516     1.0  0.26868  0.77430  0.80959  1.0000
  H   H1517     1.0  0.24949  0.81330  0.80383  1.0000
  H   H1518     1.0  0.22389  0.80506  0.81420  1.0000
  H   H1519     1.0  0.22281  0.78808  0.83958  1.0000
  H   H1520     1.0  0.23524  0.81015  0.84359  1.0000
  H   H1521     1.0  0.24824  0.78151  0.84751  1.0000
  H   H1522     1.0  0.36539  0.94459  0.92409  1.0000
  H   H1523     1.0  0.07214  0.82104  0.82741  1.0000
  Fe  Fe196     1.0  0.99635  0.70197  0.87918  1.0000
  C   C946      1.0  0.43247  0.67298  0.85358  1.0000
  H   H1524     1.0  0.40503  0.66679  0.82134  1.0000
  C   C947      1.0  0.10292  0.79093  0.96867  1.0000
  H   H1525     1.0  0.39161  0.95515  0.92222  1.0000
  C   C948      1.0  0.41248  0.66854  0.83038  1.0000
  Fe  Fe197     1.0  0.48995  0.72300  0.87883  1.0000
  H   H1526     1.0  0.36557  0.97147  0.92887  1.0000
  C   C949      1.0  0.47527  0.97329  0.97290  1.0000
  H   H1527     1.0  0.09202  0.65121  0.85552  1.0000
  C   C950      1.0  0.25075  0.69794  0.74942  1.0000
  H   H1528     1.0  0.12731  0.83789  0.96469  1.0000
  H   H1529     1.0  0.14320  0.79481  0.95195  1.0000
  H   H1530     1.0  0.25634  0.70829  0.73898  1.0000
  H   H1531     1.0  0.11444  0.82860  0.95191  1.0000
  N   N100      1.0  0.25713  0.87946  0.92101  1.0000
  C   C951      1.0  0.24428  0.88409  0.93503  1.0000
  C   C952      1.0  0.24896  0.86076  0.91677  1.0000
  C   C953      1.0  0.28155  0.87338  0.92196  1.0000
  C   C954      1.0  0.25364  0.89974  0.91018  1.0000
  H   H1532     1.0  0.24653  0.86920  0.94353  1.0000
  H   H1533     1.0  0.22578  0.88870  0.93453  1.0000
  H   H1534     1.0  0.24983  0.89832  0.93845  1.0000
  H   H1535     1.0  0.25869  0.85651  0.90638  1.0000
  H   H1536     1.0  0.25069  0.84531  0.92490  1.0000
  H   H1537     1.0  0.23075  0.86518  0.91545  1.0000
  H   H1538     1.0  0.28498  0.85795  0.92989  1.0000
  H   H1539     1.0  0.28828  0.88708  0.92519  1.0000
  H   H1540     1.0  0.29167  0.87025  0.91141  1.0000
  H   H1541     1.0  0.24341  0.76608  0.82052  1.0000
  C   C955      1.0  0.16555  0.76696  0.73304  1.0000
  C   C956      1.0  0.27280  0.71520  0.76151  1.0000
  H   H1542     1.0  0.23277  0.74021  0.76917  1.0000
  N   N101      1.0  0.48734  0.81461  0.92752  1.0000
  C   C957      1.0  0.46846  0.80813  0.88055  1.0000
  H   H1543     1.0  0.03898  0.66820  0.83967  1.0000
  C   C958      1.0  0.48726  0.97379  0.92378  1.0000
  H   H1544     1.0  0.39843  0.77463  0.84672  1.0000
  H   H1545     1.0  0.27293  0.72409  0.77056  1.0000
  C   C959      1.0  0.07292  0.92709  0.90162  1.0000
  C   C960      1.0  0.10804  0.94243  0.89546  1.0000
  H   H1546     1.0  0.08562  0.79808  0.97353  1.0000
  H   H1547     1.0  0.45605  0.77529  0.85426  1.0000
  S   S382      1.0  0.00833  0.78504  0.87446  1.0000
  H   H1548     1.0  0.46573  0.91625  0.93080  1.0000
  C   C961      1.0  0.41453  0.78269  0.86927  1.0000
  H   H1549     1.0  0.04096  0.81096  0.85558  1.0000
  H   H1550     1.0  0.06127  0.66596  0.87339  1.0000
  H   H1551     1.0  0.45645  0.83059  0.91987  1.0000
  H   H1552     1.0  0.49212  0.84653  0.91459  1.0000
  C   C962      1.0  0.47169  0.93226  0.92875  1.0000
  H   H1553     1.0  0.00404  0.96361  0.94224  1.0000
  C   C963      1.0  0.44808  0.78123  0.90436  1.0000
  C   C964      1.0  0.15684  0.79680  0.74737  1.0000
  C   C965      1.0  0.40536  0.75959  0.85394  1.0000
  S   S383      1.0  0.47208  0.74180  0.89695  1.0000
  S   S384      1.0  0.47266  0.69460  0.87680  1.0000
  H   H1554     1.0  0.45449  0.80420  0.93149  1.0000
  H   H1555     1.0  0.43634  0.78637  0.84198  1.0000
  H   H1556     1.0  0.44022  0.77082  0.91364  1.0000
  C   C966      1.0  0.37344  0.96008  0.92099  1.0000
  C   C967      1.0  0.00648  0.92856  0.91831  1.0000
  C   C968      1.0  0.11474  0.82747  0.96356  1.0000
  C   C969      1.0  0.04929  0.66675  0.86578  1.0000
  H   H1557     1.0  0.47674  0.81855  0.87144  1.0000
  H   H1558     1.0  0.45557  0.82880  0.93876  1.0000
  H   H1559     1.0  0.10250  0.79099  0.95713  1.0000
  N   N102      1.0  0.12015  0.80394  0.97047  1.0000
  H   H1560     1.0  0.49059  0.84584  0.93349  1.0000
  H   H1561     1.0  0.48815  0.78648  0.91686  1.0000
  H   H1562     1.0  0.37979  0.96260  0.88487  1.0000
  H   H1563     1.0  0.14729  0.77632  0.96846  1.0000
  H   H1564     1.0  0.48828  0.80954  0.95014  1.0000
  C   C970      1.0  0.07938  0.65224  0.84831  1.0000
  C   C971      1.0  0.14271  0.79419  0.96367  1.0000
  S   S385      1.0  0.30313  0.65846  0.73294  1.0000
  H   H1565     1.0  0.33782  0.96204  0.90777  1.0000
  H   H1566     1.0  0.24274  0.98002  0.84721  1.0000
  H   H1567     1.0  0.99674  0.65289  0.87271  1.0000
  H   H1568     1.0  0.48286  0.97331  0.96142  1.0000
  S   S386      1.0  0.99504  0.75138  0.84801  1.0000
  C   C972      1.0  0.49008  0.93482  0.93495  1.0000
  C   C973      1.0  0.34656  0.97715  0.90506  1.0000
  H   H1569     1.0  0.29770  0.65684  0.76329  1.0000
  C   C974      1.0  0.32319  0.65493  0.74455  1.0000
  C   C975      1.0  0.31564  0.65478  0.75926  1.0000
  C   C976      1.0  0.42802  0.89424  0.97009  1.0000
  C   C977      1.0  0.99660  0.78559  0.90388  1.0000
  S   S387      1.0  0.99402  0.69722  0.85702  1.0000
  C   C978      1.0  0.34643  0.65219  0.73941  1.0000
  C   C979      1.0  0.33123  0.65171  0.76883  1.0000
  H   H1570     1.0  0.32527  0.65173  0.78013  1.0000
  H   H1571     1.0  0.35237  0.65240  0.72807  1.0000
  C   C980      1.0  0.43369  0.87087  0.97275  1.0000
  S   S388      1.0  0.99604  0.67333  0.89773  1.0000
  H   H1572     1.0  0.10626  0.77313  0.97390  1.0000
  C   C981      1.0  0.74014  0.20853  0.21133  1.0000
  Fe  Fe198     1.0  0.58178  0.05315  0.06625  1.0000
  S   S389      1.0  0.61502  0.04781  0.05168  1.0000
  S   S390      1.0  0.56917  0.08954  0.06895  1.0000
  Fe  Fe199     1.0  0.59841  0.02709  0.04109  1.0000
  S   S391      1.0  0.60720  0.02754  0.01713  1.0000
  Fe  Fe200     1.0  0.62323  0.01665  0.06735  1.0000
  S   S392      1.0  0.56429  0.03494  0.05424  1.0000
  S   S393      1.0  0.59087  0.02307  0.08276  1.0000
  Fe  Fe201     1.0  0.68679  0.26292  0.16759  1.0000
  S   S394      1.0  0.65198  0.25669  0.17795  1.0000
  S   S395      1.0  0.71051  0.23388  0.15951  1.0000
  S   S396      1.0  0.64027  0.31086  0.17976  1.0000
  C   C982      1.0  0.74324  0.28294  0.13809  1.0000
  Fe  Fe202     1.0  0.65509  0.27927  0.19314  1.0000
  S   S397      1.0  0.64386  0.26706  0.21663  1.0000
  Fe  Fe203     1.0  0.64006  0.28819  0.16373  1.0000
  S   S398      1.0  0.61413  0.28817  0.14943  1.0000
  S   S399      1.0  0.69115  0.28257  0.18396  1.0000
  S   S400      1.0  0.67508  0.29303  0.15222  1.0000
  S   S401      1.0  0.96122  0.20517  0.13479  1.0000
  Fe  Fe204     1.0  0.97262  0.07004  0.05371  1.0000
  H   H1573     1.0  0.52726  0.26447  0.13547  1.0000
  H   H1574     1.0  0.50089  0.28296  0.13828  1.0000
  Fe  Fe205     1.0  0.95635  0.05338  0.02930  1.0000
  S   S402      1.0  0.96205  0.01727  0.03970  1.0000
  S   S403      1.0  0.95080  0.06518  0.00607  1.0000
  Fe  Fe206     1.0  0.94677  0.03024  0.06031  1.0000
  S   S404      1.0  0.92526  0.01043  0.07830  1.0000
  H   H1575     1.0  0.66032  0.06905  0.09556  1.0000
  S   S405      1.0  0.93823  0.06601  0.04964  1.0000
  Fe  Fe207     1.0  0.82096  0.17256  0.18052  1.0000
  H   H1576     1.0  0.95115  0.09718  0.13055  1.0000
  S   S406      1.0  0.80519  0.20863  0.18117  1.0000
  Fe  Fe208     1.0  0.86446  0.14004  0.17502  1.0000
  S   S407      1.0  0.84668  0.10986  0.18250  1.0000
  S   S408      1.0  0.90259  0.13192  0.17024  1.0000
  Fe  Fe209     1.0  0.81984  0.12930  0.16996  1.0000
  S   S409      1.0  0.79929  0.11640  0.15676  1.0000
  C   C983      1.0  0.76969  0.30953  0.13227  1.0000
  S   S410      1.0  0.83906  0.15825  0.16086  1.0000
  S   S411      1.0  0.84807  0.15686  0.19391  1.0000
  Fe  Fe210     1.0  0.78972  0.00301  0.13556  1.0000
  C   C984      1.0  0.94468  0.05386  0.98095  1.0000
  S   S412      1.0  0.80512  0.01365  0.15252  1.0000
  Fe  Fe211     1.0  0.74990  0.00484  0.11951  1.0000
  S   S413      1.0  0.71207  0.01692  0.12028  1.0000
  S   S414      1.0  0.50075  0.18359  0.12044  1.0000
  C   C985      1.0  0.66029  0.07490  0.08387  1.0000
  C   C986      1.0  0.89812  0.14326  0.21044  1.0000
  S   S415      1.0  0.77738  0.02620  0.11667  1.0000
  Fe  Fe212     1.0  0.53192  0.16510  0.12927  1.0000
  S   S416      1.0  0.51779  0.16986  0.15202  1.0000
  S   S417      1.0  0.54710  0.12898  0.12727  1.0000
  Fe  Fe213     1.0  0.53346  0.20163  0.14671  1.0000
  S   S418      1.0  0.55218  0.21119  0.16255  1.0000
  S   S419      1.0  0.54989  0.19532  0.12466  1.0000
  C   C987      1.0  0.80208  0.08795  0.15496  1.0000
  C   C988      1.0  0.78621  0.08120  0.14840  1.0000
  C   C989      1.0  0.78723  0.05849  0.14734  1.0000
  C   C990      1.0  0.80397  0.04236  0.15303  1.0000
  C   C991      1.0  0.81998  0.04913  0.15948  1.0000
  C   C992      1.0  0.81924  0.07191  0.16027  1.0000
  H   H1577     1.0  0.77293  0.09356  0.14422  1.0000
  H   H1578     1.0  0.77476  0.05340  0.14240  1.0000
  H   H1579     1.0  0.83309  0.03669  0.16378  1.0000
  H   H1580     1.0  0.83186  0.07702  0.16505  1.0000
  C   C993      1.0  0.89625  0.01018  0.07852  1.0000
  C   C994      1.0  0.77008  0.06910  0.18966  1.0000
  H   H1581     1.0  0.80563  0.09042  0.18665  1.0000
  C   C995      1.0  0.84906  0.01144  0.08105  1.0000
  N   N103      1.0  0.52545  0.29588  0.12098  1.0000
  C   C996      1.0  0.88423  0.02437  0.06839  1.0000
  H   H1582     1.0  0.96339  0.10712  0.10389  1.0000
  H   H1583     1.0  0.93448  0.11970  0.10298  1.0000
  C   C997      1.0  0.86070  0.02494  0.06965  1.0000
  H   H1584     1.0  0.89300  0.03512  0.05972  1.0000
  C   C998      1.0  0.91097  0.02788  0.99370  1.0000
  C   C999      1.0  0.92145  0.03783  0.00228  1.0000
  C   C1000     1.0  0.93806  0.05121  0.99590  1.0000
  H   H1585     1.0  0.66949  0.06076  0.07827  1.0000
  H   H1586     1.0  0.50740  0.26810  0.12331  1.0000
  H   H1587     1.0  0.91618  0.03569  0.01377  1.0000
  C   C1001     1.0  0.94500  0.18562  0.14588  1.0000
  C   C1002     1.0  0.95532  0.16479  0.15219  1.0000
  C   C1003     1.0  0.94207  0.14869  0.15995  1.0000
  C   C1004     1.0  0.91839  0.15334  0.16154  1.0000
  C   C1005     1.0  0.90794  0.17444  0.15570  1.0000
  C   C1006     1.0  0.92125  0.19057  0.14791  1.0000
  H   H1588     1.0  0.97352  0.16103  0.15105  1.0000
  H   H1589     1.0  0.95027  0.13248  0.16458  1.0000
  H   H1590     1.0  0.88966  0.17822  0.15693  1.0000
  H   H1591     1.0  0.91315  0.20673  0.14314  1.0000
  H   H1592     1.0  0.76897  0.10844  0.19823  1.0000
  C   C1007     1.0  0.67578  0.28512  0.22604  1.0000
  C   C1008     1.0  0.73715  0.22744  0.16510  1.0000
  C   C1009     1.0  0.75017  0.20645  0.16368  1.0000
  C   C1010     1.0  0.77128  0.20069  0.16838  1.0000
  C   C1011     1.0  0.77958  0.21606  0.17434  1.0000
  C   C1012     1.0  0.76683  0.23732  0.17540  1.0000
  C   C1013     1.0  0.74551  0.24292  0.17092  1.0000
  H   H1593     1.0  0.74387  0.19448  0.15905  1.0000
  H   H1594     1.0  0.78117  0.18437  0.16735  1.0000
  H   H1595     1.0  0.77334  0.24926  0.17992  1.0000
  H   H1596     1.0  0.73563  0.25920  0.17191  1.0000
  C   C1014     1.0  0.80484  0.07592  0.19552  1.0000
  Fe  Fe214     1.0  0.79879  0.00045  0.10399  1.0000
  H   H1597     1.0  0.78338  0.29656  0.13633  1.0000
  S   S420      1.0  0.60909  0.99531  0.05557  1.0000
  C   C1015     1.0  0.59655  0.26706  0.15324  1.0000
  C   C1016     1.0  0.59241  0.25473  0.16698  1.0000
  C   C1017     1.0  0.57846  0.23795  0.16968  1.0000
  C   C1018     1.0  0.56867  0.23318  0.15867  1.0000
  C   C1019     1.0  0.57291  0.24542  0.14487  1.0000
  C   C1020     1.0  0.58670  0.26238  0.14221  1.0000
  H   H1598     1.0  0.59973  0.25828  0.17559  1.0000
  H   H1599     1.0  0.57525  0.22855  0.18037  1.0000
  H   H1600     1.0  0.56582  0.24155  0.13627  1.0000
  H   H1601     1.0  0.59003  0.27172  0.13152  1.0000
  C   C1021     1.0  0.67392  0.01158  0.08433  1.0000
  C   C1022     1.0  0.69769  0.01548  0.10618  1.0000
  C   C1023     1.0  0.67396  0.01700  0.10873  1.0000
  C   C1024     1.0  0.66210  0.01494  0.09788  1.0000
  H   H1602     1.0  0.66478  0.01930  0.11925  1.0000
  H   H1603     1.0  0.64394  0.01536  0.10010  1.0000
  C   C1025     1.0  0.56242  0.10000  0.08533  1.0000
  C   C1026     1.0  0.55617  0.12325  0.08509  1.0000
  C   C1027     1.0  0.55143  0.13242  0.09786  1.0000
  C   C1028     1.0  0.55296  0.11833  0.11097  1.0000
  C   C1029     1.0  0.55917  0.09507  0.11123  1.0000
  C   C1030     1.0  0.56381  0.08589  0.09846  1.0000
  H   H1604     1.0  0.55512  0.13426  0.07494  1.0000
  H   H1605     1.0  0.54674  0.15037  0.09754  1.0000
  H   H1606     1.0  0.56032  0.08409  0.12137  1.0000
  H   H1607     1.0  0.56843  0.06794  0.09879  1.0000
  C   C1031     1.0  0.55186  0.02585  0.99107  1.0000
  C   C1032     1.0  0.54611  0.02814  0.00559  1.0000
  C   C1033     1.0  0.56288  0.02928  0.01360  1.0000
  C   C1034     1.0  0.58554  0.02796  0.00714  1.0000
  C   C1035     1.0  0.59128  0.02587  0.99257  1.0000
  C   C1036     1.0  0.57449  0.02484  0.98453  1.0000
  H   H1608     1.0  0.52862  0.02894  0.01069  1.0000
  H   H1609     1.0  0.55827  0.03094  0.02479  1.0000
  H   H1610     1.0  0.60879  0.02494  0.98751  1.0000
  C   C1037     1.0  0.70942  0.01247  0.09258  1.0000
  S   S421      1.0  0.50186  0.22251  0.13981  1.0000
  H   H1611     1.0  0.94173  0.16570  0.11020  1.0000
  H   H1612     1.0  0.93902  0.11914  0.14093  1.0000
  S   S422      1.0  0.66026  0.00773  0.07046  1.0000
  H   H1613     1.0  0.81373  0.07912  0.20392  1.0000
  H   H1614     1.0  0.60689  0.06691  0.08284  1.0000
  C   C1038     1.0  0.86121  0.99685  0.09096  1.0000
  H   H1615     1.0  0.77743  0.09724  0.21538  1.0000
  H   H1616     1.0  0.53936  0.99869  0.05211  1.0000
  H   H1617     1.0  0.55209  0.30079  0.10306  1.0000
  C   C1039     1.0  0.78071  0.05355  0.21295  1.0000
  H   H1618     1.0  0.77109  0.30941  0.12058  1.0000
  H   H1619     1.0  0.96567  0.01077  0.99001  1.0000
  H   H1620     1.0  0.75938  0.29315  0.16009  1.0000
  H   H1621     1.0  0.91036  0.15247  0.21332  1.0000
  N   N104      1.0  0.65082  0.21297  0.14527  1.0000
  C   C1040     1.0  0.65348  0.20194  0.13253  1.0000
  C   C1041     1.0  0.67013  0.20401  0.15310  1.0000
  C   C1042     1.0  0.62952  0.20851  0.15477  1.0000
  C   C1043     1.0  0.65014  0.23745  0.14068  1.0000
  H   H1622     1.0  0.66936  0.20502  0.12510  1.0000
  H   H1623     1.0  0.63908  0.20833  0.12643  1.0000
  H   H1624     1.0  0.65405  0.18344  0.13560  1.0000
  H   H1625     1.0  0.66872  0.21218  0.16270  1.0000
  H   H1626     1.0  0.67117  0.18561  0.15681  1.0000
  H   H1627     1.0  0.68654  0.20709  0.14626  1.0000
  H   H1628     1.0  0.62687  0.21673  0.16446  1.0000
  H   H1629     1.0  0.62936  0.19023  0.15850  1.0000
  H   H1630     1.0  0.61459  0.21499  0.14920  1.0000
  H   H1631     1.0  0.63592  0.24484  0.13460  1.0000
  H   H1632     1.0  0.66615  0.24153  0.13378  1.0000
  H   H1633     1.0  0.64765  0.24637  0.15003  1.0000
  N   N105      1.0  0.84324  0.05601  0.11027  1.0000
  C   C1044     1.0  0.82917  0.06535  0.09890  1.0000
  C   C1045     1.0  0.84035  0.07212  0.12036  1.0000
  C   C1046     1.0  0.86729  0.05182  0.10373  1.0000
  C   C1047     1.0  0.83606  0.03469  0.11809  1.0000
  H   H1634     1.0  0.83121  0.05370  0.09100  1.0000
  H   H1635     1.0  0.83388  0.08159  0.09285  1.0000
  H   H1636     1.0  0.81084  0.06815  0.10342  1.0000
  H   H1637     1.0  0.85002  0.06521  0.12938  1.0000
  H   H1638     1.0  0.84615  0.08823  0.11493  1.0000
  H   H1639     1.0  0.82226  0.07614  0.12512  1.0000
  H   H1640     1.0  0.87342  0.06752  0.09779  1.0000
  H   H1641     1.0  0.86989  0.04003  0.09592  1.0000
  H   H1642     1.0  0.87840  0.04419  0.11192  1.0000
  H   H1643     1.0  0.84655  0.02670  0.12656  1.0000
  H   H1644     1.0  0.83721  0.02238  0.11076  1.0000
  H   H1645     1.0  0.81820  0.03738  0.12343  1.0000
  N   N106      1.0  0.63698  0.08169  0.08054  1.0000
  H   H1646     1.0  0.78910  0.05601  0.22180  1.0000
  C   C1048     1.0  0.63777  0.08872  0.06491  1.0000
  C   C1049     1.0  0.62531  0.10053  0.08804  1.0000
  C   C1050     1.0  0.62443  0.06246  0.08533  1.0000
  N   N107      1.0  0.74711  0.30525  0.13999  1.0000
  Fe  Fe215     1.0  0.51714  0.21438  0.11801  1.0000
  H   H1647     1.0  0.56098  0.98434  0.02292  1.0000
  H   H1648     1.0  0.86989  0.11285  0.21561  1.0000
  N   N108      1.0  0.72195  0.22692  0.21520  1.0000
  N   N109      1.0  0.78114  0.07299  0.20126  1.0000
  H   H1649     1.0  0.63442  0.11530  0.08484  1.0000
  H   H1650     1.0  0.62384  0.09564  0.09988  1.0000
  H   H1651     1.0  0.60779  0.10615  0.08551  1.0000
  H   H1652     1.0  0.92772  0.11518  0.19532  1.0000
  H   H1653     1.0  0.74517  0.24856  0.21693  1.0000
  C   C1051     1.0  0.76910  0.09352  0.20686  1.0000
  H   H1654     1.0  0.67031  0.08899  0.08050  1.0000
  C   C1052     1.0  0.88740  0.10721  0.21047  1.0000
  H   H1655     1.0  0.64672  0.07494  0.05892  1.0000
  Fe  Fe216     1.0  0.67650  0.31284  0.16937  1.0000
  H   H1656     1.0  0.98427  0.11689  0.12072  1.0000
  H   H1657     1.0  0.81459  0.06077  0.19123  1.0000
  H   H1658     1.0  0.63276  0.04796  0.07987  1.0000
  C   C1053     1.0  0.69758  0.01047  0.08173  1.0000
  S   S423      1.0  0.98012  0.03496  0.06560  1.0000
  Fe  Fe217     1.0  0.57597  0.00431  0.06949  1.0000
  H   H1659     1.0  0.75120  0.09188  0.21151  1.0000
  N   N110      1.0  0.94964  0.13057  0.11855  1.0000
  C   C1054     1.0  0.97246  0.13306  0.12068  1.0000
  C   C1055     1.0  0.95115  0.12291  0.10467  1.0000
  C   C1056     1.0  0.93470  0.15246  0.11855  1.0000
  C   C1057     1.0  0.94028  0.11390  0.13030  1.0000
  H   H1660     1.0  0.97205  0.13883  0.13102  1.0000
  Fe  Fe218     1.0  0.82834  0.12814  0.20043  1.0000
  H   H1661     1.0  0.55620  0.27413  0.11462  1.0000
  H   H1662     1.0  0.76985  0.08370  0.18078  1.0000
  H   H1663     1.0  0.89762  0.01812  0.99869  1.0000
  H   H1664     1.0  0.72934  0.30211  0.16158  1.0000
  H   H1665     1.0  0.52261  0.31371  0.13862  1.0000
  H   H1666     1.0  0.75225  0.06639  0.19360  1.0000
  H   H1667     1.0  0.50695  0.10483  0.12808  1.0000
  C   C1058     1.0  0.88470  0.99627  0.08971  1.0000
  H   H1668     1.0  0.78972  0.03781  0.20904  1.0000
  H   H1669     1.0  0.89824  0.14792  0.19865  1.0000
  H   H1670     1.0  0.62038  0.09338  0.06201  1.0000
  H   H1671     1.0  0.92295  0.11178  0.12915  1.0000
  H   H1672     1.0  0.96264  0.00431  0.00915  1.0000
  S   S424      1.0  0.98996  0.06023  0.03255  1.0000
  H   H1673     1.0  0.67871  0.29458  0.21535  1.0000
  H   H1674     1.0  0.95693  0.13571  0.09555  1.0000
  C   C1059     1.0  0.51479  0.27708  0.12993  1.0000
  H   H1675     1.0  0.72645  0.27903  0.14392  1.0000
  H   H1676     1.0  0.52129  0.98506  0.03499  1.0000
  H   H1677     1.0  0.70685  0.00789  0.07128  1.0000
  S   S425      1.0  0.97637  0.10331  0.05993  1.0000
  H   H1678     1.0  0.91748  0.15143  0.11658  1.0000
  H   H1679     1.0  0.69561  0.21181  0.21025  1.0000
  H   H1680     1.0  0.85142  0.03616  0.06188  1.0000
  H   H1681     1.0  0.76305  0.05086  0.21760  1.0000
  H   H1682     1.0  0.49986  0.30429  0.10733  1.0000
  H   H1683     1.0  0.54866  0.29498  0.13553  1.0000
  H   H1684     1.0  0.74371  0.28197  0.12660  1.0000
  S   S426      1.0  0.81925  0.01429  0.08310  1.0000
  N   N111      1.0  0.90398  0.11871  0.21462  1.0000
  H   H1685     1.0  0.98926  0.02861  0.01094  1.0000
  H   H1686     1.0  0.64674  0.10348  0.06090  1.0000
  H   H1687     1.0  0.93267  0.15837  0.12900  1.0000
  H   H1688     1.0  0.72766  0.01150  0.09044  1.0000
  H   H1689     1.0  0.75629  0.26930  0.14226  1.0000
  H   H1690     1.0  0.50727  0.28182  0.07866  1.0000
  C   C1060     1.0  0.73077  0.24855  0.21127  1.0000
  H   H1691     1.0  0.83555  0.15089  0.22388  1.0000
  S   S427      1.0  0.76032  0.98393  0.13976  1.0000
  H   H1692     1.0  0.73426  0.19189  0.21453  1.0000
  H   H1693     1.0  0.62327  0.05670  0.09708  1.0000
  S   S428      1.0  0.79988  0.14508  0.18859  1.0000
  C   C1061     1.0  0.97312  0.99967  0.99904  1.0000
  H   H1694     1.0  0.74606  0.21062  0.19957  1.0000
  C   C1062     1.0  0.70291  0.22773  0.20741  1.0000
  S   S429      1.0  0.51761  0.24189  0.09878  1.0000
  H   H1695     1.0  0.98424  0.14396  0.06724  1.0000
  H   H1696     1.0  0.71748  0.26276  0.21406  1.0000
  S   S430      1.0  0.53052  0.02291  0.98174  1.0000
  H   H1697     1.0  0.77918  0.05413  0.18486  1.0000
  H   H1698     1.0  0.89103  0.08869  0.21368  1.0000
  C   C1063     1.0  0.54327  0.28717  0.10983  1.0000
  H   H1699     1.0  0.53603  0.27928  0.10252  1.0000
  H   H1700     1.0  0.88753  0.11066  0.19868  1.0000
  H   H1701     1.0  0.98007  0.14555  0.11205  1.0000
  H   H1702     1.0  0.70836  0.23058  0.19558  1.0000
  H   H1703     1.0  0.88097  0.14960  0.21586  1.0000
  H   H1704     1.0  0.50762  0.11721  0.10216  1.0000
  S   S431      1.0  0.82146  0.10861  0.22275  1.0000
  H   H1705     1.0  0.73686  0.25221  0.19958  1.0000
  H   H1706     1.0  0.93184  0.09267  0.20997  1.0000
  C   C1064     1.0  0.92688  0.11115  0.20719  1.0000
  C   C1065     1.0  0.91733  0.03075  0.97873  1.0000
  H   H1707     1.0  0.68895  0.24153  0.21000  1.0000
  H   H1708     1.0  0.93986  0.11947  0.21006  1.0000
  H   H1709     1.0  0.50017  0.14540  0.10580  1.0000
  C   C1066     1.0  0.74600  0.30576  0.15541  1.0000
  H   H1710     1.0  0.85252  0.98611  0.09964  1.0000
  C   C1067     1.0  0.50810  0.31226  0.11407  1.0000
  H   H1711     1.0  0.75517  0.20792  0.21656  1.0000
  H   H1712     1.0  0.49732  0.13263  0.13209  1.0000
  H   H1713     1.0  0.89394  0.98518  0.09754  1.0000
  C   C1068     1.0  0.53561  0.30695  0.13009  1.0000
  C   C1069     1.0  0.49301  0.13038  0.10485  1.0000
  H   H1714     1.0  0.99139  0.03786  0.99205  1.0000
  C   C1070     1.0  0.49284  0.26183  0.09794  1.0000
  C   C1071     1.0  0.99243  0.10799  0.07243  1.0000
  C   C1072     1.0  0.97285  0.20608  0.29934  1.0000
  H   H1715     1.0  0.58215  0.27618  0.36253  1.0000
  Fe  Fe219     1.0  0.65379  0.25474  0.31181  1.0000
  H   H1716     1.0  0.63512  0.27227  0.28486  1.0000
  S   S432      1.0  0.61561  0.26384  0.31632  1.0000
  Fe  Fe220     1.0  0.69661  0.22058  0.30820  1.0000
  S   S433      1.0  0.71891  0.24692  0.29959  1.0000
  S   S434      1.0  0.71098  0.18396  0.30880  1.0000
  H   H1717     1.0  0.82172  0.99571  0.40526  1.0000
  Fe  Fe221     1.0  0.69136  0.26349  0.28669  1.0000
  H   H1718     1.0  0.85117  0.99688  0.37498  1.0000
  S   S435      1.0  0.67791  0.23707  0.32686  1.0000
  S   S436      1.0  0.67054  0.23569  0.29393  1.0000
  S   S437      1.0  0.55374  0.19579  0.35560  1.0000
  C   C1073     1.0  0.98193  0.16319  0.41491  1.0000
  Fe  Fe222     1.0  0.84750  0.08320  0.31566  1.0000
  S   S438      1.0  0.87901  0.09553  0.30258  1.0000
  S   S439      1.0  0.84556  0.04624  0.31675  1.0000
  Fe  Fe223     1.0  0.82743  0.12955  0.32290  1.0000
  S   S440      1.0  0.85702  0.14527  0.31032  1.0000
  S   S441      1.0  0.80178  0.15337  0.33506  1.0000
  Fe  Fe224     1.0  0.85496  0.12486  0.29364  1.0000
  S   S442      1.0  0.85798  0.14356  0.27087  1.0000
  Fe  Fe225     1.0  0.87828  0.11494  0.32040  1.0000
  S   S443      1.0  0.90835  0.11541  0.33129  1.0000
  S   S444      1.0  0.82344  0.11157  0.30541  1.0000
  S   S445      1.0  0.84875  0.10018  0.33418  1.0000
  H   H1719     1.0  0.51663  0.26120  0.42570  1.0000
  H   H1720     1.0  0.66745  0.31018  0.38826  1.0000
  C   C1074     1.0  0.83869  0.98520  0.40375  1.0000
  C   C1075     1.0  0.95294  0.29893  0.39152  1.0000
  S   S446      1.0  0.94850  0.20019  0.33978  1.0000
  S   S447      1.0  0.97920  0.18257  0.37474  1.0000
  C   C1076     1.0  0.91949  0.13929  0.33314  1.0000
  C   C1077     1.0  0.93704  0.13629  0.34131  1.0000
  C   C1078     1.0  0.94606  0.15478  0.34342  1.0000
  C   C1079     1.0  0.93750  0.17653  0.33742  1.0000
  C   C1080     1.0  0.92002  0.17957  0.32917  1.0000
  C   C1081     1.0  0.91110  0.16103  0.32698  1.0000
  H   H1721     1.0  0.94371  0.11952  0.34607  1.0000
  H   H1722     1.0  0.95956  0.15217  0.34976  1.0000
  H   H1723     1.0  0.91337  0.19634  0.32443  1.0000
  H   H1724     1.0  0.89774  0.16354  0.32055  1.0000
  C   C1082     1.0  0.83030  0.11883  0.23647  1.0000
  C   C1083     1.0  0.51478  0.20024  0.32707  1.0000
  C   C1084     1.0  0.84528  0.14745  0.24467  1.0000
  C   C1085     1.0  0.84676  0.13380  0.25799  1.0000
  C   C1086     1.0  0.83954  0.11281  0.26067  1.0000
  C   C1087     1.0  0.83139  0.10532  0.24990  1.0000
  C   C1088     1.0  0.88687  0.30770  0.40460  1.0000
  H   H1725     1.0  0.85069  0.16378  0.24257  1.0000
  H   H1726     1.0  0.84060  0.10217  0.27095  1.0000
  H   H1727     1.0  0.82622  0.08889  0.25194  1.0000
  C   C1089     1.0  0.73483  0.17480  0.31748  1.0000
  C   C1090     1.0  0.74735  0.15351  0.31619  1.0000
  C   C1091     1.0  0.76773  0.14668  0.32177  1.0000
  C   C1092     1.0  0.77553  0.16099  0.32885  1.0000
  C   C1093     1.0  0.76269  0.18203  0.33052  1.0000
  C   C1094     1.0  0.74245  0.18901  0.32475  1.0000
  H   H1728     1.0  0.74146  0.14243  0.31064  1.0000
  H   H1729     1.0  0.77734  0.13027  0.32066  1.0000
  H   H1730     1.0  0.76860  0.19317  0.33601  1.0000
  H   H1731     1.0  0.73289  0.20548  0.32579  1.0000
  C   C1095     1.0  0.59887  0.24413  0.32668  1.0000
  C   C1096     1.0  0.60848  0.22312  0.33324  1.0000
  C   C1097     1.0  0.59446  0.20827  0.34191  1.0000
  C   C1098     1.0  0.57082  0.21434  0.34409  1.0000
  C   C1099     1.0  0.56130  0.23515  0.33725  1.0000
  C   C1100     1.0  0.57525  0.25000  0.32865  1.0000
  H   H1732     1.0  0.62671  0.21840  0.33175  1.0000
  H   H1733     1.0  0.60202  0.19214  0.34707  1.0000
  H   H1734     1.0  0.54320  0.23997  0.33860  1.0000
  H   H1735     1.0  0.56769  0.26619  0.32358  1.0000
  H   H1736     1.0  0.51126  0.10906  0.40353  1.0000
  C   C1101     1.0  0.68425  0.27556  0.25049  1.0000
  C   C1102     1.0  0.66802  0.26112  0.25387  1.0000
  C   C1103     1.0  0.65554  0.25889  0.24343  1.0000
  H   H1737     1.0  0.87837  0.29594  0.41330  1.0000
  H   H1738     1.0  0.66507  0.25166  0.26452  1.0000
  H   H1739     1.0  0.54557  0.24644  0.36429  1.0000
  C   C1104     1.0  0.51441  0.27415  0.41651  1.0000
  H   H1740     1.0  0.52286  0.15518  0.30990  1.0000
  H   H1741     1.0  0.54126  0.27404  0.36907  1.0000
  H   H1742     1.0  0.97821  0.15832  0.40510  1.0000
  C   C1105     1.0  0.96372  0.28951  0.40337  1.0000
  C   C1106     1.0  0.97573  0.26752  0.40420  1.0000
  C   C1107     1.0  0.97698  0.25494  0.39321  1.0000
  C   C1108     1.0  0.96588  0.26431  0.38150  1.0000
  C   C1109     1.0  0.95392  0.28622  0.38067  1.0000
  H   H1743     1.0  0.64299  0.24768  0.24612  1.0000
  H   H1744     1.0  0.96652  0.25469  0.37306  1.0000
  C   C1110     1.0  0.83756  0.98624  0.37867  1.0000
  Fe  Fe226     1.0  0.97872  0.19586  0.35142  1.0000
  C   C1111     1.0  0.80304  0.00292  0.35218  1.0000
  C   C1112     1.0  0.80185  0.02592  0.35253  1.0000
  C   C1113     1.0  0.81486  0.03940  0.34182  1.0000
  C   C1114     1.0  0.82916  0.02995  0.33063  1.0000
  C   C1115     1.0  0.83046  0.00691  0.33034  1.0000
  H   H1745     1.0  0.49880  0.25396  0.40610  1.0000
  H   H1746     1.0  0.79068  0.03341  0.36107  1.0000
  H   H1747     1.0  0.81366  0.05711  0.34213  1.0000
  H   H1748     1.0  0.84149  0.99947  0.32172  1.0000
  S   S448      1.0  0.78671  0.98668  0.36612  1.0000
  H   H1749     1.0  0.55946  0.22010  0.39172  1.0000
  C   C1116     1.0  0.51855  0.31155  0.40395  1.0000
  H   H1750     1.0  0.53186  0.25111  0.38179  1.0000
  S   S449      1.0  0.69954  0.27949  0.26347  1.0000
  N   N112      1.0  0.52584  0.17791  0.32374  1.0000
  H   H1751     1.0  0.51612  0.21347  0.31744  1.0000
  H   H1752     1.0  0.58686  0.24899  0.35725  1.0000
  H   H1753     1.0  0.96300  0.29920  0.41180  1.0000
  H   H1754     1.0  0.97880  0.18191  0.41351  1.0000
  Fe  Fe227     1.0  0.51685  0.20817  0.36347  1.0000
  N   N113      1.0  0.79640  0.18312  0.28195  1.0000
  C   C1117     1.0  0.79244  0.16002  0.28200  1.0000
  C   C1118     1.0  0.80715  0.19236  0.26750  1.0000
  C   C1119     1.0  0.81149  0.18269  0.29245  1.0000
  C   C1120     1.0  0.77458  0.19738  0.28588  1.0000
  H   H1755     1.0  0.78433  0.15253  0.29274  1.0000
  H   H1756     1.0  0.80859  0.14876  0.27923  1.0000
  H   H1757     1.0  0.78120  0.15958  0.27419  1.0000
  H   H1758     1.0  0.81041  0.20976  0.26708  1.0000
  H   H1759     1.0  0.82373  0.18202  0.26429  1.0000
  H   H1760     1.0  0.79633  0.19272  0.25929  1.0000
  H   H1761     1.0  0.81435  0.19986  0.29305  1.0000
  H   H1762     1.0  0.82831  0.17258  0.28956  1.0000
  H   H1763     1.0  0.80426  0.17512  0.30341  1.0000
  H   H1764     1.0  0.76655  0.19131  0.29692  1.0000
  H   H1765     1.0  0.76229  0.19737  0.27863  1.0000
  H   H1766     1.0  0.77678  0.21508  0.28561  1.0000
  C   C1121     1.0  0.83693  0.14007  0.23399  1.0000
  C   C1122     1.0  0.52159  0.29490  0.41585  1.0000
  H   H1767     1.0  0.56156  0.28116  0.38735  1.0000
  H   H1768     1.0  0.70024  0.23655  0.23405  1.0000
  H   H1769     1.0  0.96004  0.20704  0.30921  1.0000
  C   C1123     1.0  0.65944  0.27081  0.22948  1.0000
  H   H1770     1.0  0.64438  0.30620  0.25772  1.0000
  C   C1124     1.0  0.71795  0.30615  0.33163  1.0000
  C   C1125     1.0  0.56665  0.26273  0.39039  1.0000
  H   H1771     1.0  0.90804  0.09489  0.23384  1.0000
  Fe  Fe228     1.0  0.69852  0.26487  0.31725  1.0000
  C   C1126     1.0  0.50435  0.26998  0.40540  1.0000
  H   H1772     1.0  0.58322  0.25999  0.39428  1.0000
  H   H1773     1.0  0.97252  0.22339  0.29321  1.0000
  N   N114      1.0  0.56777  0.25065  0.37828  1.0000
  H   H1774     1.0  0.74127  0.29858  0.34686  1.0000
  N   N115      1.0  0.61897  0.30501  0.27656  1.0000
  H   H1775     1.0  0.53150  0.14390  0.33477  1.0000
  H   H1776     1.0  0.55915  0.16192  0.31583  1.0000
  H   H1777     1.0  0.57424  0.21659  0.37418  1.0000
  H   H1778     1.0  0.49967  0.15035  0.39814  1.0000
  H   H1779     1.0  0.96709  0.19560  0.29285  1.0000
  H   H1780     1.0  0.58929  0.22165  0.38736  1.0000
  H   H1781     1.0  0.87018  0.11599  0.37464  1.0000
  H   H1782     1.0  0.85166  0.99664  0.40106  1.0000
  C   C1127     1.0  0.51516  0.17206  0.31259  1.0000
  S   S450      1.0  0.71616  0.27758  0.33227  1.0000
  H   H1783     1.0  0.88765  0.13204  0.36075  1.0000
  H   H1784     1.0  0.55397  0.25696  0.39964  1.0000
  C   C1128     1.0  0.54572  0.25581  0.37309  1.0000
  H   H1785     1.0  0.72778  0.22236  0.23704  1.0000
  S   S451      1.0  0.53440  0.29896  0.43009  1.0000
  S   S452      1.0  0.67293  0.28396  0.30359  1.0000
  H   H1786     1.0  0.88632  0.11845  0.23621  1.0000
  H   H1787     1.0  0.70695  0.20686  0.23423  1.0000
  C   C1129     1.0  0.58564  0.25784  0.36652  1.0000
  H   H1788     1.0  0.62801  0.30591  0.29699  1.0000
  H   H1789     1.0  0.50489  0.15993  0.34100  1.0000
  H   H1790     1.0  0.60523  0.27454  0.28566  1.0000
  C   C1130     1.0  0.50116  0.28664  0.39354  1.0000
  C   C1131     1.0  0.55022  0.17846  0.31854  1.0000
  H   H1791     1.0  0.87124  0.11384  0.35618  1.0000
  C   C1132     1.0  0.57295  0.22619  0.38312  1.0000
  H   H1792     1.0  0.81548  0.14890  0.36508  1.0000
  H   H1793     1.0  0.89910  0.29755  0.39725  1.0000
  H   H1794     1.0  0.49666  0.17185  0.31622  1.0000
  H   H1795     1.0  0.60257  0.25413  0.37001  1.0000
  C   C1133     1.0  0.73140  0.31178  0.34043  1.0000
  C   C1134     1.0  0.68813  0.28750  0.23653  1.0000
  N   N116      1.0  0.85190  0.14440  0.36253  1.0000
  C   C1135     1.0  0.85220  0.15965  0.37267  1.0000
  C   C1136     1.0  0.85412  0.15700  0.34779  1.0000
  C   C1137     1.0  0.83027  0.13528  0.36594  1.0000
  C   C1138     1.0  0.87103  0.12577  0.36363  1.0000
  H   H1796     1.0  0.85040  0.15075  0.38393  1.0000
  H   H1797     1.0  0.83812  0.17403  0.37195  1.0000
  H   H1798     1.0  0.86839  0.16670  0.37039  1.0000
  H   H1799     1.0  0.85507  0.14570  0.33987  1.0000
  H   H1800     1.0  0.83934  0.17041  0.34625  1.0000
  H   H1801     1.0  0.86973  0.16495  0.34502  1.0000
  H   H1802     1.0  0.82799  0.12551  0.37695  1.0000
  H   H1803     1.0  0.82936  0.12396  0.35835  1.0000
  H   H1804     1.0  0.96952  0.15673  0.42409  1.0000
  H   H1805     1.0  0.91549  0.12194  0.23391  1.0000
  H   H1806     1.0  0.94549  0.29341  0.37151  1.0000
  C   C1139     1.0  0.62080  0.28027  0.27902  1.0000
  S   S453      1.0  0.50511  0.21560  0.38592  1.0000
  H   H1807     1.0  0.55869  0.18262  0.32684  1.0000
  C   C1140     1.0  0.81751  0.99341  0.34108  1.0000
  H   H1808     1.0  0.62363  0.27356  0.26876  1.0000
  H   H1809     1.0  0.65504  0.30399  0.27418  1.0000
  H   H1810     1.0  0.84776  0.29992  0.39863  1.0000
  H   H1811     1.0  0.53067  0.16501  0.34555  1.0000
  H   H1812     1.0  0.60346  0.30908  0.25770  1.0000
  H   H1813     1.0  0.55296  0.19135  0.30883  1.0000
  H   H1814     1.0  0.52258  0.20533  0.33530  1.0000
  S   S454      1.0  0.49898  0.24032  0.35289  1.0000
  C   C1141     1.0  0.71392  0.22294  0.23081  1.0000
  C   C1142     1.0  0.50823  0.30746  0.39290  1.0000
  H   H1815     1.0  0.70057  0.29881  0.23387  1.0000
  H   H1816     1.0  0.49645  0.20033  0.33127  1.0000
  C   C1143     1.0  0.52310  0.16093  0.33682  1.0000
  H   H1817     1.0  0.51699  0.18447  0.30255  1.0000
  C   C1144     1.0  0.90349  0.11326  0.23031  1.0000
  H   H1818     1.0  0.98427  0.26034  0.41331  1.0000
  H   H1819     1.0  0.86840  0.30143  0.38258  1.0000
  C   C1145     1.0  0.85718  0.31154  0.39034  1.0000
  H   H1820     1.0  0.58389  0.31012  0.27414  1.0000
  C   C1146     1.0  0.60036  0.31491  0.26830  1.0000
  H   H1821     1.0  0.82106  0.99767  0.37956  1.0000
  H   H1822     1.0  0.99123  0.30171  0.36030  1.0000
  H   H1823     1.0  0.59835  0.30799  0.29707  1.0000
  H   H1824     1.0  0.99029  0.21222  0.32173  1.0000
  H   H1825     1.0  0.98304  0.17381  0.32133  1.0000
  H   H1826     1.0  0.69614  0.31516  0.38190  1.0000
  C   C1147     1.0  0.64050  0.31167  0.26843  1.0000
  C   C1148     1.0  0.49348  0.11608  0.40501  1.0000
  C   C1149     1.0  0.61425  0.31311  0.29051  1.0000
  H   H1827     1.0  0.98972  0.16239  0.30499  1.0000
  H   H1828     1.0  0.66102  0.31354  0.36264  1.0000
  H   H1829     1.0  0.89713  0.31650  0.40956  1.0000
  Fe  Fe229     1.0  0.82184  0.27772  0.70185  1.0000
  S   S455      1.0  0.79208  0.27947  0.69055  1.0000
  Fe  Fe230     1.0  0.85287  0.24666  0.68257  1.0000
  S   S456      1.0  0.82563  0.24696  0.66971  1.0000
  S   S457      1.0  0.88322  0.22003  0.67841  1.0000
  Fe  Fe231     1.0  0.81769  0.28385  0.67053  1.0000
  S   S458      1.0  0.81434  0.29728  0.72038  1.0000
  Fe  Fe232     1.0  0.80298  0.24241  0.69084  1.0000
  S   S459      1.0  0.78350  0.21312  0.69824  1.0000
  S   S460      1.0  0.84702  0.28423  0.68169  1.0000
  S   S461      1.0  0.83054  0.24034  0.70382  1.0000
  H   H1830     1.0  0.51230  0.99800  0.61066  1.0000
  H   H1831     1.0  0.98024  0.31150  0.60839  1.0000
  Fe  Fe233     1.0  0.70148  0.16235  0.66799  1.0000
  S   S462      1.0  0.72151  0.12878  0.67461  1.0000
  S   S463      1.0  0.71665  0.19430  0.66042  1.0000
  Fe  Fe234     1.0  0.65686  0.14383  0.67371  1.0000
  S   S464      1.0  0.67324  0.10865  0.68136  1.0000
  S   S465      1.0  0.61881  0.15124  0.67392  1.0000
  Fe  Fe235     1.0  0.69283  0.12537  0.69298  1.0000
  Fe  Fe236     1.0  0.70038  0.11505  0.66242  1.0000
  S   S466      1.0  0.71544  0.09208  0.64596  1.0000
  S   S467      1.0  0.67408  0.15994  0.68709  1.0000
  S   S468      1.0  0.68273  0.14922  0.65405  1.0000
  H   H1832     1.0  0.54535  0.28806  0.54147  1.0000
  Fe  Fe237     1.0  0.53923  0.19058  0.61434  1.0000
  S   S469      1.0  0.53478  0.20499  0.59149  1.0000
  S   S470      1.0  0.57591  0.17688  0.61654  1.0000
  S   S471      1.0  0.81184  0.30648  0.64973  1.0000
  H   H1833     1.0  0.52546  0.31161  0.54689  1.0000
  H   H1834     1.0  0.69432  0.24374  0.71933  1.0000
  H   H1835     1.0  0.98545  0.99521  0.53980  1.0000
  Fe  Fe238     1.0  0.51411  0.23450  0.60075  1.0000
  S   S472      1.0  0.51434  0.27170  0.59250  1.0000
  S   S473      1.0  0.50899  0.17239  0.61852  1.0000
  S   S474      1.0  0.52014  0.22111  0.62333  1.0000
  S   S475      1.0  0.70256  0.11227  0.71500  1.0000
  H   H1836     1.0  0.85746  0.15643  0.66577  1.0000
  H   H1837     1.0  0.84928  0.13502  0.68040  1.0000
  N   N117      1.0  0.50016  0.02319  0.59392  1.0000
  H   H1838     1.0  0.94364  0.28597  0.62750  1.0000
  C   C1150     1.0  0.95496  0.26950  0.60279  1.0000
  C   C1151     1.0  0.53915  0.28418  0.58678  1.0000
  C   C1152     1.0  0.56007  0.27157  0.58250  1.0000
  C   C1153     1.0  0.57943  0.28219  0.57780  1.0000
  H   H1839     1.0  0.83472  0.20375  0.68582  1.0000
  N   N118      1.0  0.95577  0.29259  0.60489  1.0000
  H   H1840     1.0  0.56124  0.25371  0.58266  1.0000
  H   H1841     1.0  0.82933  0.14586  0.70379  1.0000
  C   C1154     1.0  0.50259  0.04672  0.58759  1.0000
  C   C1155     1.0  0.70794  0.06515  0.64768  1.0000
  C   C1156     1.0  0.71260  0.05412  0.63569  1.0000
  C   C1157     1.0  0.70695  0.03255  0.63674  1.0000
  C   C1158     1.0  0.69701  0.02173  0.64990  1.0000
  C   C1159     1.0  0.69202  0.03293  0.66182  1.0000
  C   C1160     1.0  0.69750  0.05455  0.66074  1.0000
  H   H1842     1.0  0.72044  0.06238  0.62551  1.0000
  H   H1843     1.0  0.68426  0.02466  0.67203  1.0000
  H   H1844     1.0  0.69403  0.06284  0.67007  1.0000
  C   C1161     1.0  0.60698  0.16003  0.65794  1.0000
  C   C1162     1.0  0.62066  0.16231  0.64452  1.0000
  C   C1163     1.0  0.61081  0.16730  0.63196  1.0000
  C   C1164     1.0  0.58720  0.17065  0.63269  1.0000
  C   C1165     1.0  0.57342  0.16911  0.64608  1.0000
  C   C1166     1.0  0.58332  0.16364  0.65867  1.0000
  H   H1845     1.0  0.63884  0.16000  0.64377  1.0000
  H   H1846     1.0  0.62156  0.16866  0.62162  1.0000
  H   H1847     1.0  0.55519  0.17170  0.64674  1.0000
  H   H1848     1.0  0.57261  0.16192  0.66902  1.0000
  H   H1849     1.0  0.80825  0.16464  0.69464  1.0000
  C   C1167     1.0  0.70065  0.21778  0.69889  1.0000
  H   H1850     1.0  0.87019  0.14949  0.69594  1.0000
  C   C1168     1.0  0.97889  0.29425  0.60692  1.0000
  C   C1169     1.0  0.76733  0.20704  0.68648  1.0000
  C   C1170     1.0  0.76165  0.22271  0.67465  1.0000
  C   C1171     1.0  0.74668  0.21830  0.66635  1.0000
  C   C1172     1.0  0.73743  0.19823  0.66984  1.0000
  C   C1173     1.0  0.74382  0.18224  0.68137  1.0000
  C   C1174     1.0  0.75884  0.18660  0.68961  1.0000
  H   H1851     1.0  0.76822  0.23849  0.67213  1.0000
  H   H1852     1.0  0.74181  0.23069  0.65741  1.0000
  H   H1853     1.0  0.73677  0.16674  0.68415  1.0000
  H   H1854     1.0  0.76336  0.17433  0.69868  1.0000
  C   C1175     1.0  0.86471  0.16667  0.69037  1.0000
  H   H1855     1.0  0.82806  0.15384  0.67143  1.0000
  H   H1856     1.0  0.53201  0.01665  0.60174  1.0000
  C   C1176     1.0  0.75436  0.99495  0.63283  1.0000
  H   H1857     1.0  0.96717  0.26482  0.59330  1.0000
  C   C1177     1.0  0.90788  0.22801  0.66736  1.0000
  C   C1178     1.0  0.92396  0.21160  0.66123  1.0000
  C   C1179     1.0  0.94418  0.21729  0.65276  1.0000
  C   C1180     1.0  0.94862  0.23933  0.65070  1.0000
  C   C1181     1.0  0.93259  0.25575  0.65685  1.0000
  C   C1182     1.0  0.91211  0.25017  0.66501  1.0000
  H   H1858     1.0  0.92079  0.19442  0.66304  1.0000
  H   H1859     1.0  0.95647  0.20452  0.64807  1.0000
  H   H1860     1.0  0.93600  0.27280  0.65538  1.0000
  H   H1861     1.0  0.89984  0.26287  0.66978  1.0000
  H   H1862     1.0  0.84296  0.99161  0.54448  1.0000
  H   H1863     1.0  0.82312  0.17510  0.70572  1.0000
  N   N119      1.0  0.58535  0.24365  0.62006  1.0000
  C   C1183     1.0  0.60633  0.25212  0.62075  1.0000
  C   C1184     1.0  0.56684  0.26277  0.61829  1.0000
  C   C1185     1.0  0.57915  0.22823  0.63345  1.0000
  C   C1186     1.0  0.58916  0.23144  0.60775  1.0000
  H   H1864     1.0  0.62069  0.23811  0.62196  1.0000
  H   H1865     1.0  0.60413  0.26128  0.62998  1.0000
  H   H1866     1.0  0.61143  0.26390  0.61082  1.0000
  H   H1867     1.0  0.55105  0.25721  0.61686  1.0000
  H   H1868     1.0  0.56267  0.27168  0.62772  1.0000
  H   H1869     1.0  0.57149  0.27537  0.60874  1.0000
  H   H1870     1.0  0.59319  0.21419  0.63544  1.0000
  H   H1871     1.0  0.56414  0.22052  0.63296  1.0000
  H   H1872     1.0  0.57512  0.23699  0.64294  1.0000
  H   H1873     1.0  0.57339  0.22566  0.60649  1.0000
  H   H1874     1.0  0.60217  0.21619  0.60911  1.0000
  H   H1875     1.0  0.59496  0.24216  0.59754  1.0000
  H   H1876     1.0  0.79952  0.98525  0.62982  1.0000
  H   H1877     1.0  0.84700  0.99160  0.56255  1.0000
  H   H1878     1.0  0.98395  0.28242  0.61648  1.0000
  H   H1879     1.0  0.66263  0.14540  0.71980  1.0000
  C   C1187     1.0  0.71097  0.18815  0.71800  1.0000
  H   H1880     1.0  0.81961  0.19386  0.67454  1.0000
  N   N120      1.0  0.69723  0.21037  0.71457  1.0000
  H   H1881     1.0  0.97501  0.27479  0.55581  1.0000
  H   H1882     1.0  0.68987  0.23404  0.69582  1.0000
  C   C1188     1.0  0.50825  0.00861  0.58281  1.0000
  C   C1189     1.0  0.82513  0.16317  0.69798  1.0000
  C   C1190     1.0  0.70429  0.22675  0.72168  1.0000
  H   H1883     1.0  0.49859  0.01394  0.57369  1.0000
  S   S476      1.0  0.69071  0.99421  0.65207  1.0000
  H   H1884     1.0  0.87108  0.98890  0.54865  1.0000
  N   N121      1.0  0.63483  0.09149  0.65063  1.0000
  C   C1191     1.0  0.64317  0.07442  0.64112  1.0000
  C   C1192     1.0  0.63304  0.08047  0.66576  1.0000
  C   C1193     1.0  0.61233  0.10340  0.64770  1.0000
  C   C1194     1.0  0.65086  0.10778  0.64798  1.0000
  H   H1885     1.0  0.63163  0.06167  0.64288  1.0000
  H   H1886     1.0  0.66019  0.06525  0.64303  1.0000
  H   H1887     1.0  0.64479  0.08223  0.62962  1.0000
  H   H1888     1.0  0.62699  0.09301  0.67320  1.0000
  H   H1889     1.0  0.62104  0.06806  0.66821  1.0000
  H   H1890     1.0  0.64975  0.07138  0.66834  1.0000
  H   H1891     1.0  0.60532  0.11586  0.65506  1.0000
  H   H1892     1.0  0.59992  0.09158  0.64914  1.0000
  H   H1893     1.0  0.61319  0.11281  0.63655  1.0000
  H   H1894     1.0  0.64541  0.12048  0.65526  1.0000
  H   H1895     1.0  0.65243  0.11687  0.63677  1.0000
  H   H1896     1.0  0.66805  0.09936  0.64989  1.0000
  H   H1897     1.0  0.74125  0.00951  0.65821  1.0000
  S   S477      1.0  0.98212  0.20783  0.61068  1.0000
  H   H1898     1.0  0.87822  0.17085  0.68119  1.0000
  C   C1195     1.0  0.51374  0.01571  0.60568  1.0000
  H   H1899     1.0  0.55353  0.30887  0.51642  1.0000
  H   H1900     1.0  0.71017  0.02436  0.62738  1.0000
  C   C1196     1.0  0.84445  0.15270  0.67533  1.0000
  H   H1901     1.0  0.49646  0.05823  0.59566  1.0000
  H   H1902     1.0  0.95929  0.25699  0.61226  1.0000
  H   H1903     1.0  0.86394  0.17874  0.69785  1.0000
  C   C1197     1.0  0.83624  0.19160  0.67833  1.0000
  N   N122      1.0  0.84265  0.16847  0.68551  1.0000
  H   H1904     1.0  0.59556  0.27239  0.57442  1.0000
  H   H1905     1.0  0.52644  0.00902  0.57836  1.0000
  H   H1906     1.0  0.80292  0.99820  0.64444  1.0000
  C   C1198     1.0  0.98997  0.30431  0.55536  1.0000
  C   C1199     1.0  0.58184  0.30950  0.53450  1.0000
  S   S478      1.0  0.97437  0.24666  0.64087  1.0000
  H   H1907     1.0  0.66209  0.22509  0.71707  1.0000
  H   H1908     1.0  0.52051  0.04856  0.58312  1.0000
  H   H1909     1.0  0.92190  0.29665  0.61660  1.0000
  C   C1200     1.0  0.98780  0.28145  0.55950  1.0000
  H   H1910     1.0  0.70665  0.17539  0.71250  1.0000
  H   H1911     1.0  0.54882  0.30028  0.55628  1.0000
  H   H1912     1.0  0.84916  0.19651  0.66895  1.0000
  Fe  Fe239     1.0  0.50297  0.18902  0.59641  1.0000
  C   C1201     1.0  0.93952  0.29786  0.61772  1.0000
  C   C1202     1.0  0.98140  0.98857  0.57212  1.0000
  H   H1913     1.0  0.71852  0.22018  0.69476  1.0000
  H   H1914     1.0  0.93782  0.26759  0.60114  1.0000
  H   H1915     1.0  0.58479  0.29336  0.53028  1.0000
  C   C1203     1.0  0.54372  0.30426  0.54547  1.0000
  H   H1916     1.0  0.50804  0.02634  0.61425  1.0000
  C   C1204     1.0  0.53769  0.30746  0.58612  1.0000
  H   H1917     1.0  0.95286  0.99566  0.56069  1.0000
  H   H1918     1.0  0.58773  0.30600  0.54513  1.0000
  H   H1919     1.0  0.69659  0.20525  0.69309  1.0000
  H   H1920     1.0  0.79104  0.01500  0.62939  1.0000
  C   C1205     1.0  0.57801  0.30545  0.57730  1.0000
  H   H1921     1.0  0.72254  0.22829  0.71801  1.0000
  H   H1922     1.0  0.97903  0.31515  0.54840  1.0000
  H   H1923     1.0  0.75232  0.01162  0.62586  1.0000
  H   H1924     1.0  0.97798  0.16999  0.57925  1.0000
  H   H1925     1.0  0.50622  0.99078  0.58712  1.0000
  H   H1926     1.0  0.93246  0.30784  0.59022  1.0000
  H   H1927     1.0  0.98538  0.00550  0.56932  1.0000
  C   C1206     1.0  0.75851  0.01223  0.65256  1.0000
  H   H1928     1.0  0.75669  0.02920  0.64588  1.0000
  H   H1929     1.0  0.66738  0.19604  0.71486  1.0000
  H   H1930     1.0  0.98261  0.18186  0.55269  1.0000
  C   C1207     1.0  0.94976  0.30867  0.59216  1.0000
  C   C1208     1.0  0.79158  0.99844  0.63654  1.0000
  H   H1931     1.0  0.96180  0.30518  0.58233  1.0000
  H   H1932     1.0  0.72934  0.18894  0.71470  1.0000
  H   H1933     1.0  0.76892  0.01258  0.66086  1.0000
  H   H1934     1.0  0.73721  0.99118  0.63790  1.0000
  N   N123      1.0  0.76866  0.99451  0.64376  1.0000
  H   H1935     1.0  0.93966  0.31514  0.61968  1.0000
  H   H1936     1.0  0.99159  0.29012  0.59749  1.0000
  H   H1937     1.0  0.85444  0.26503  0.72616  1.0000
  C   C1209     1.0  0.67304  0.20876  0.71974  1.0000
  C   C1210     1.0  0.85399  0.98396  0.55271  1.0000
  Fe  Fe240     1.0  0.84197  0.26275  0.83024  1.0000
  S   S479      1.0  0.85805  0.24078  0.84850  1.0000
  Fe  Fe241     1.0  0.79727  0.27342  0.81864  1.0000
  S   S480      1.0  0.76174  0.26623  0.81937  1.0000
  S   S481      1.0  0.82765  0.24722  0.81514  1.0000
  H   H1938     1.0  0.90955  0.12036  0.92741  1.0000
  S   S482      1.0  0.85865  0.28671  0.81268  1.0000
  S   S483      1.0  0.50706  0.01824  0.94935  1.0000
  Fe  Fe242     1.0  0.56747  0.02266  0.92862  1.0000
  S   S484      1.0  0.54669  0.05051  0.93982  1.0000
  C   C1211     1.0  0.50321  0.14380  0.91201  1.0000
  Fe  Fe243     1.0  0.53769  0.02279  0.95784  1.0000
  Fe  Fe244     1.0  0.51807  0.04355  0.93044  1.0000
  H   H1939     1.0  0.85465  0.29074  0.84667  1.0000
  H   H1940     1.0  0.75495  0.99054  0.94377  1.0000
  S   S485      1.0  0.53921  0.01726  0.91818  1.0000
  H   H1941     1.0  0.80223  0.30884  0.74842  1.0000
  Fe  Fe245     1.0  0.68483  0.12875  0.80978  1.0000
  S   S486      1.0  0.65484  0.15263  0.80274  1.0000
  S   S487      1.0  0.67774  0.09317  0.81749  1.0000
  Fe  Fe246     1.0  0.71444  0.16574  0.80344  1.0000
  S   S488      1.0  0.68680  0.19230  0.79585  1.0000
  S   S489      1.0  0.74913  0.17263  0.80524  1.0000
  Fe  Fe247     1.0  0.66434  0.17634  0.81483  1.0000
  S   S490      1.0  0.64135  0.19643  0.83073  1.0000
  Fe  Fe248     1.0  0.67981  0.16612  0.78433  1.0000
  S   S491      1.0  0.66902  0.17515  0.76237  1.0000
  S   S492      1.0  0.69257  0.15151  0.82333  1.0000
  S   S493      1.0  0.70927  0.14050  0.79041  1.0000
  S   S494      1.0  0.52193  0.21900  0.87692  1.0000
  Fe  Fe249     1.0  0.51322  0.20893  0.85754  1.0000
  S   S495      1.0  0.53514  0.19904  0.83737  1.0000
  H   H1942     1.0  0.72654  0.00823  0.92781  1.0000
  S   S496      1.0  0.75052  0.01833  0.84523  1.0000
  H   H1943     1.0  0.86921  0.29841  0.88119  1.0000
  Fe  Fe250     1.0  0.87621  0.01852  0.92146  1.0000
  S   S497      1.0  0.90517  0.02360  0.90360  1.0000
  S   S498      1.0  0.84011  0.01897  0.91744  1.0000
  Fe  Fe251     1.0  0.90548  0.02141  0.94422  1.0000
  S   S499      1.0  0.93654  0.02646  0.92782  1.0000
  S   S500      1.0  0.90261  0.01889  0.96844  1.0000
  Fe  Fe252     1.0  0.91235  0.05015  0.91469  1.0000
  S   S501      1.0  0.91504  0.08524  0.90215  1.0000
  H   H1944     1.0  0.84530  0.02758  0.84214  1.0000
  H   H1945     1.0  0.89793  0.08364  0.96987  1.0000
  S   S502      1.0  0.88184  0.04678  0.93172  1.0000
  H   H1946     1.0  0.83249  0.00832  0.87425  1.0000
  H   H1947     1.0  0.87698  0.09983  0.93482  1.0000
  H   H1948     1.0  0.83210  0.00850  0.83548  1.0000
  S   S503      1.0  0.94816  0.25627  0.86686  1.0000
  H   H1949     1.0  0.86905  0.27820  0.86993  1.0000
  H   H1950     1.0  0.98446  0.14475  0.87397  1.0000
  H   H1951     1.0  0.50057  0.16855  0.84096  1.0000
  H   H1952     1.0  0.69823  0.08952  0.78862  1.0000
  C   C1212     1.0  0.66432  0.06825  0.78647  1.0000
  H   H1953     1.0  0.49322  0.98985  0.92179  1.0000
  C   C1213     1.0  0.93516  0.10228  0.90297  1.0000
  C   C1214     1.0  0.95302  0.09435  0.91078  1.0000
  C   C1215     1.0  0.96826  0.10870  0.91150  1.0000
  C   C1216     1.0  0.96590  0.13099  0.90434  1.0000
  C   C1217     1.0  0.94806  0.13892  0.89652  1.0000
  C   C1218     1.0  0.93277  0.12458  0.89583  1.0000
  H   H1954     1.0  0.95521  0.07714  0.91617  1.0000
  H   H1955     1.0  0.78840  0.00027  0.86770  1.0000
  H   H1956     1.0  0.91894  0.13085  0.88980  1.0000
  H   H1957     1.0  0.86760  0.11494  0.94971  1.0000
  C   C1219     1.0  0.79953  0.98979  0.89961  1.0000
  C   C1220     1.0  0.80818  0.00465  0.90598  1.0000
  C   C1221     1.0  0.83034  0.99969  0.90926  1.0000
  C   C1222     1.0  0.69611  0.08820  0.77757  1.0000
  H   H1958     1.0  0.49868  0.20820  0.81670  1.0000
  H   H1959     1.0  0.79827  0.99346  0.85011  1.0000
  H   H1960     1.0  0.79774  0.02020  0.90831  1.0000
  C   C1223     1.0  0.64175  0.01563  0.90067  1.0000
  C   C1224     1.0  0.69323  0.12983  0.72810  1.0000
  H   H1961     1.0  0.64621  0.06764  0.78627  1.0000
  H   H1962     1.0  0.72478  0.18737  0.85304  1.0000
  C   C1225     1.0  0.69786  0.07292  0.82570  1.0000
  C   C1226     1.0  0.69167  0.05220  0.83274  1.0000
  C   C1227     1.0  0.70754  0.03544  0.83905  1.0000
  C   C1228     1.0  0.72979  0.03923  0.83811  1.0000
  C   C1229     1.0  0.73599  0.05994  0.83105  1.0000
  C   C1230     1.0  0.72003  0.07683  0.82495  1.0000
  H   H1963     1.0  0.67453  0.04911  0.83334  1.0000
  H   H1964     1.0  0.70265  0.01951  0.84442  1.0000
  H   H1965     1.0  0.75319  0.06295  0.83027  1.0000
  H   H1966     1.0  0.72494  0.09274  0.81952  1.0000
  C   C1231     1.0  0.61191  0.19665  0.83257  1.0000
  C   C1232     1.0  0.59760  0.20546  0.84407  1.0000
  C   C1233     1.0  0.57404  0.20605  0.84573  1.0000
  C   C1234     1.0  0.56465  0.19807  0.83581  1.0000
  C   C1235     1.0  0.57895  0.18933  0.82429  1.0000
  C   C1236     1.0  0.60253  0.18854  0.82270  1.0000
  H   H1967     1.0  0.60472  0.21184  0.85171  1.0000
  H   H1968     1.0  0.56316  0.21292  0.85459  1.0000
  H   H1969     1.0  0.57180  0.18322  0.81654  1.0000
  H   H1970     1.0  0.61336  0.18198  0.81372  1.0000
  H   H1971     1.0  0.51539  0.09422  0.93420  1.0000
  H   H1972     1.0  0.91525  0.07862  0.93152  1.0000
  H   H1973     1.0  0.67570  0.00428  0.89067  1.0000
  C   C1237     1.0  0.67816  0.15676  0.74974  1.0000
  C   C1238     1.0  0.69859  0.14202  0.74982  1.0000
  H   H1974     1.0  0.65235  0.08542  0.76077  1.0000
  S   S504      1.0  0.81026  0.28724  0.83522  1.0000
  H   H1975     1.0  0.70889  0.14143  0.75796  1.0000
  H   H1976     1.0  0.74709  0.00113  0.91275  1.0000
  H   H1977     1.0  0.80629  0.02711  0.87671  1.0000
  C   C1239     1.0  0.50875  0.10586  0.92550  1.0000
  C   C1240     1.0  0.93480  0.04318  0.97245  1.0000
  H   H1978     1.0  0.91020  0.06345  0.94926  1.0000
  C   C1241     1.0  0.91095  0.11940  0.93891  1.0000
  H   H1979     1.0  0.89371  0.11383  0.96712  1.0000
  H   H1980     1.0  0.69788  0.23352  0.82718  1.0000
  C   C1242     1.0  0.87861  0.09977  0.94620  1.0000
  S   S505      1.0  0.50893  0.17164  0.90880  1.0000
  H   H1981     1.0  0.94599  0.15608  0.89101  1.0000
  C   C1243     1.0  0.65815  0.10870  0.78074  1.0000
  H   H1982     1.0  0.79189  0.19549  0.76945  1.0000
  H   H1983     1.0  0.78264  0.99404  0.89695  1.0000
  C   C1244     1.0  0.90402  0.09881  0.96297  1.0000
  S   S506      1.0  0.81009  0.29914  0.80047  1.0000
  H   H1984     1.0  0.80543  0.22902  0.79444  1.0000
  H   H1985     1.0  0.68823  0.20842  0.82521  1.0000
  C   C1245     1.0  0.75836  0.24008  0.81561  1.0000
  C   C1246     1.0  0.73947  0.23854  0.80959  1.0000
  C   C1247     1.0  0.73629  0.21789  0.80651  1.0000
  C   C1248     1.0  0.75201  0.19863  0.80946  1.0000
  C   C1249     1.0  0.77089  0.20017  0.81550  1.0000
  C   C1250     1.0  0.77400  0.22078  0.81863  1.0000
  H   H1986     1.0  0.72735  0.25345  0.80718  1.0000
  H   H1987     1.0  0.72186  0.21698  0.80167  1.0000
  H   H1988     1.0  0.78310  0.18531  0.81785  1.0000
  H   H1989     1.0  0.78840  0.22168  0.82352  1.0000
  C   C1251     1.0  0.84683  0.27356  0.76099  1.0000
  C   C1252     1.0  0.82705  0.28924  0.76099  1.0000
  C   C1253     1.0  0.81748  0.29658  0.74839  1.0000
  Fe  Fe253     1.0  0.84129  0.27363  0.79793  1.0000
  N   N124      1.0  0.81543  0.01751  0.85578  1.0000
  H   H1990     1.0  0.51430  0.31254  0.89351  1.0000
  H   H1991     1.0  0.72188  0.11710  0.73911  1.0000
  C   C1254     1.0  0.70604  0.12848  0.73906  1.0000
  N   N125      1.0  0.69523  0.20881  0.84627  1.0000
  H   H1992     1.0  0.73058  0.20890  0.83806  1.0000
  C   C1255     1.0  0.88473  0.24345  0.85225  1.0000
  C   C1256     1.0  0.89690  0.26027  0.84444  1.0000
  C   C1257     1.0  0.91670  0.26364  0.84881  1.0000
  C   C1258     1.0  0.92496  0.24971  0.86067  1.0000
  C   C1259     1.0  0.91340  0.23220  0.86805  1.0000
  C   C1260     1.0  0.89323  0.22925  0.86394  1.0000
  H   H1993     1.0  0.89087  0.27093  0.83521  1.0000
  H   H1994     1.0  0.92566  0.27714  0.84302  1.0000
  H   H1995     1.0  0.91953  0.22149  0.87727  1.0000
  H   H1996     1.0  0.88395  0.21614  0.86999  1.0000
  H   H1997     1.0  0.65865  0.10994  0.79206  1.0000
  N   N126      1.0  0.80419  0.22445  0.77302  1.0000
  C   C1261     1.0  0.80060  0.23882  0.78422  1.0000
  C   C1262     1.0  0.82829  0.21428  0.77064  1.0000
  C   C1263     1.0  0.79798  0.23819  0.75956  1.0000
  C   C1264     1.0  0.78991  0.20650  0.77771  1.0000
  H   H1998     1.0  0.78258  0.24668  0.78648  1.0000
  H   H1999     1.0  0.81102  0.25261  0.78105  1.0000
  N   N127      1.0  0.67217  0.08788  0.77663  1.0000
  H   H2000     1.0  0.83177  0.20354  0.76213  1.0000
  H   H2001     1.0  0.83956  0.22738  0.76731  1.0000
  H   H2002     1.0  0.83348  0.20376  0.78060  1.0000
  H   H2003     1.0  0.78003  0.24649  0.76106  1.0000
  H   H2004     1.0  0.80027  0.22791  0.75087  1.0000
  H   H2005     1.0  0.80867  0.25165  0.75561  1.0000
  C   C1265     1.0  0.80014  0.03679  0.84934  1.0000
  Fe  Fe254     1.0  0.92659  0.99943  0.91826  1.0000
  H   H2006     1.0  0.79433  0.19556  0.78773  1.0000
  Fe  Fe255     1.0  0.53078  0.99257  0.93801  1.0000
  H   H2007     1.0  0.84807  0.99840  0.84998  1.0000
  H   H2008     1.0  0.78398  0.04029  0.85676  1.0000
  C   C1266     1.0  0.91624  0.07894  0.94288  1.0000
  H   H2009     1.0  0.63945  0.03052  0.89271  1.0000
  H   H2010     1.0  0.92914  0.11922  0.93944  1.0000
  S   S507      1.0  0.56106  0.99549  0.94755  1.0000
  C   C1267     1.0  0.51185  0.12850  0.92322  1.0000
  S   S508      1.0  0.97419  0.21601  0.90078  1.0000
  Fe  Fe256     1.0  0.74103  0.98732  0.86031  1.0000
  N   N128      1.0  0.90245  0.09928  0.94776  1.0000
  S   S509      1.0  0.85927  0.26403  0.77663  1.0000
  H   H2011     1.0  0.93441  0.07803  0.94369  1.0000
  Fe  Fe257     1.0  0.49833  0.19513  0.88930  1.0000
  H   H2012     1.0  0.83103  0.03738  0.86630  1.0000
  H   H2013     1.0  0.90124  0.13513  0.94245  1.0000
  C   C1268     1.0  0.87089  0.29598  0.86985  1.0000
  N   N129      1.0  0.56818  0.09249  0.89628  1.0000
  C   C1269     1.0  0.55618  0.11448  0.89033  1.0000
  C   C1270     1.0  0.57158  0.09304  0.91103  1.0000
  C   C1271     1.0  0.59041  0.08764  0.88727  1.0000
  C   C1272     1.0  0.55451  0.07476  0.89651  1.0000
  H   H2014     1.0  0.53913  0.11827  0.89669  1.0000
  H   H2015     1.0  0.55368  0.11487  0.87911  1.0000
  H   H2016     1.0  0.56557  0.12843  0.89039  1.0000
  H   H2017     1.0  0.58058  0.07670  0.91586  1.0000
  H   H2018     1.0  0.58170  0.10630  0.91130  1.0000
  H   H2019     1.0  0.55516  0.09647  0.91815  1.0000
  H   H2020     1.0  0.59989  0.07117  0.89158  1.0000
  H   H2021     1.0  0.60115  0.10072  0.88682  1.0000
  H   H2022     1.0  0.58850  0.08686  0.87610  1.0000
  H   H2023     1.0  0.56314  0.05788  0.90071  1.0000
  H   H2024     1.0  0.55108  0.07415  0.88564  1.0000
  H   H2025     1.0  0.53789  0.07753  0.90352  1.0000
  C   C1273     1.0  0.69483  0.22552  0.85559  1.0000
  C   C1274     1.0  0.68007  0.19242  0.85359  1.0000
  C   C1275     1.0  0.68743  0.22041  0.83273  1.0000
  H   H2026     1.0  0.70062  0.21738  0.86592  1.0000
  H   H2027     1.0  0.67745  0.23483  0.85810  1.0000
  H   H2028     1.0  0.68000  0.17960  0.84681  1.0000
  H   H2029     1.0  0.68528  0.18340  0.86390  1.0000
  H   H2030     1.0  0.66220  0.20075  0.85589  1.0000
  H   H2031     1.0  0.66951  0.22875  0.83462  1.0000
  S   S510      1.0  0.59915  0.03083  0.91339  1.0000
  C   C1276     1.0  0.82720  0.28778  0.73582  1.0000
  C   C1277     1.0  0.66229  0.00080  0.89950  1.0000
  C   C1278     1.0  0.73352  0.99480  0.92115  1.0000
  C   C1279     1.0  0.66524  0.15785  0.73890  1.0000
  H   H2032     1.0  0.87175  0.08471  0.95269  1.0000
  Fe  Fe258     1.0  0.97367  0.22939  0.87724  1.0000
  H   H2033     1.0  0.67443  0.05222  0.78364  1.0000
  C   C1280     1.0  0.62731  0.99211  0.92237  1.0000
  H   H2034     1.0  0.80806  0.05235  0.84657  1.0000
  H   H2035     1.0  0.81909  0.29575  0.77066  1.0000
  H   H2036     1.0  0.52111  0.13416  0.93011  1.0000
  C   C1281     1.0  0.80382  0.99754  0.85961  1.0000
  H   H2037     1.0  0.88850  0.29806  0.86464  1.0000
  H   H2038     1.0  0.67510  0.10130  0.75416  1.0000
  C   C1282     1.0  0.82160  0.02282  0.86881  1.0000
  H   H2039     1.0  0.77163  0.21357  0.77990  1.0000
  C   C1283     1.0  0.67009  0.08635  0.76178  1.0000
  H   H2040     1.0  0.87204  0.25277  0.74829  1.0000
  H   H2041     1.0  0.66413  0.12395  0.77396  1.0000
  H   H2042     1.0  0.68108  0.07129  0.75807  1.0000
  H   H2043     1.0  0.64009  0.10944  0.77972  1.0000
  C   C1284     1.0  0.85672  0.26494  0.74837  1.0000
  C   C1285     1.0  0.62425  0.01135  0.91210  1.0000
  H   H2044     1.0  0.70266  0.10272  0.77028  1.0000
  H   H2045     1.0  0.94073  0.04448  0.96108  1.0000
  H   H2046     1.0  0.92183  0.09833  0.96451  1.0000
  H   H2047     1.0  0.66594  0.06880  0.79776  1.0000
  C   C1286     1.0  0.71858  0.19693  0.84313  1.0000
  H   H2048     1.0  0.71969  0.18477  0.83565  1.0000
  H   H2049     1.0  0.70717  0.07265  0.77466  1.0000
  H   H2050     1.0  0.70615  0.23812  0.85034  1.0000
  H   H2051     1.0  0.87505  0.30905  0.76884  1.0000
  H   H2052     1.0  0.64928  0.16905  0.73888  1.0000
  H   H2053     1.0  0.70831  0.18184  0.72972  1.0000
  H   H2054     1.0  0.57904  0.02308  0.97333  1.0000
  C   C1287     1.0  0.84678  0.27181  0.73584  1.0000
  H   H2055     1.0  0.49499  0.14841  0.83122  1.0000
  Fe  Fe259     1.0  0.82612  0.31047  0.81665  1.0000
  H   H2056     1.0  0.71969  0.99252  0.91565  1.0000
  H   H2057     1.0  0.61390  0.98876  0.93122  1.0000
  C   C1288     1.0  0.49692  0.09839  0.91660  1.0000
  S   S511      1.0  0.89712  0.99268  0.93553  1.0000
  H   H2058     1.0  0.95776  0.06394  0.97596  1.0000
  H   H2059     1.0  0.84963  0.31275  0.78141  1.0000
  C   C1289     1.0  0.85709  0.30807  0.84725  1.0000
  C   C1290     1.0  0.83616  0.01281  0.84537  1.0000
  N   N130      1.0  0.85392  0.31181  0.86227  1.0000
  S   S512      1.0  0.98659  0.19603  0.86987  1.0000
  H   H2060     1.0  0.82791  0.31048  0.88077  1.0000
  H   H2061     1.0  0.66978  0.20377  0.73161  1.0000
  H   H2062     1.0  0.79540  0.03345  0.83936  1.0000
  H   H2063     1.0  0.82818  0.29054  0.86916  1.0000
  C   C1291     1.0  0.49767  0.16611  0.83029  1.0000
  H   H2064     1.0  0.54377  0.30853  0.89483  1.0000
  H   H2065     1.0  0.70192  0.22158  0.73354  1.0000
  S   S513      1.0  0.74426  0.98789  0.88315  1.0000
  H   H2066     1.0  0.98210  0.10243  0.91753  1.0000
  S   S514      1.0  0.98616  0.14789  0.90513  1.0000
  Fe  Fe260     1.0  0.98953  0.18315  0.89310  1.0000
  H   H2067     1.0  0.98291  0.12739  0.86124  1.0000
  H   H2068     1.0  0.51368  0.16846  0.82278  1.0000
  C   C1292     1.0  0.67281  0.14457  0.72805  1.0000
  H   H2069     1.0  0.87437  0.31049  0.84156  1.0000
  C   C1293     1.0  0.83091  0.30796  0.86938  1.0000
  S   S515      1.0  0.49403  0.06984  0.91852  1.0000
  Fe  Fe261     1.0  0.55812  0.54411  0.03145  1.0000
  S   S516      1.0  0.55859  0.50692  0.03710  1.0000
  S   S517      1.0  0.57193  0.55817  0.00869  1.0000
  Fe  Fe262     1.0  0.54023  0.55183  0.06231  1.0000
  S   S518      1.0  0.53947  0.51496  0.06998  1.0000
  S   S519      1.0  0.52908  0.57128  0.08085  1.0000
  Fe  Fe263     1.0  0.57346  0.51014  0.05615  1.0000
  S   S520      1.0  0.60296  0.48536  0.06352  1.0000
  Fe  Fe264     1.0  0.52470  0.51572  0.05018  1.0000
  S   S521      1.0  0.57529  0.54682  0.04978  1.0000
  S   S522      1.0  0.52307  0.55303  0.04333  1.0000
  S   S523      1.0  0.71157  0.62806  0.18780  1.0000
  Fe  Fe265     1.0  0.67426  0.63412  0.19564  1.0000
  H   H2070     1.0  0.99001  0.54803  0.08410  1.0000
  S   S524      1.0  0.72119  0.61214  0.14849  1.0000
  S   S525      1.0  0.66453  0.63325  0.17424  1.0000
  H   H2071     1.0  0.70804  0.43960  0.15870  1.0000
  H   H2072     1.0  0.95643  0.58320  0.08757  1.0000
  Fe  Fe266     1.0  0.75135  0.48483  0.10161  1.0000
  S   S526      1.0  0.73722  0.46865  0.12378  1.0000
  S   S527      1.0  0.78892  0.47930  0.09245  1.0000
  Fe  Fe267     1.0  0.70462  0.50398  0.09380  1.0000
  S   S528      1.0  0.68700  0.48995  0.11518  1.0000
  S   S529      1.0  0.68445  0.52505  0.07716  1.0000
  Fe  Fe268     1.0  0.71348  0.50146  0.12425  1.0000
  S   S530      1.0  0.69984  0.51599  0.14472  1.0000
  Fe  Fe269     1.0  0.71161  0.45826  0.11316  1.0000
  S   S531      1.0  0.69449  0.42696  0.11751  1.0000
  S   S532      1.0  0.72939  0.51837  0.10290  1.0000
  S   S533      1.0  0.72756  0.47167  0.09087  1.0000
  S   S534      1.0  0.69668  0.34160  0.16669  1.0000
  Fe  Fe270     1.0  0.89093  0.54739  0.07378  1.0000
  S   S535      1.0  0.92190  0.55059  0.08252  1.0000
  S   S536      1.0  0.85581  0.55027  0.08694  1.0000
  Fe  Fe271     1.0  0.91739  0.54055  0.04440  1.0000
  S   S537      1.0  0.95073  0.54292  0.05044  1.0000
  S   S538      1.0  0.91028  0.52816  0.02525  1.0000
  Fe  Fe272     1.0  0.93892  0.52168  0.07119  1.0000
  S   S539      1.0  0.96005  0.49275  0.08315  1.0000
  Fe  Fe273     1.0  0.93165  0.57182  0.06137  1.0000
  S   S540      1.0  0.94682  0.60396  0.05883  1.0000
  S   S541      1.0  0.90725  0.51675  0.06437  1.0000
  S   S542      1.0  0.89900  0.57127  0.05344  1.0000
  H   H2073     1.0  0.70334  0.46843  0.15040  1.0000
  H   H2074     1.0  0.61283  0.52947  0.10822  1.0000
  C   C1294     1.0  0.91980  0.54031  0.00753  1.0000
  C   C1295     1.0  0.91757  0.52984  0.99619  1.0000
  H   H2075     1.0  0.59810  0.55535  0.98073  1.0000
  H   H2076     1.0  0.69170  0.62535  0.12556  1.0000
  C   C1296     1.0  0.93557  0.56991  0.99021  1.0000
  C   C1297     1.0  0.92887  0.56036  0.00453  1.0000
  H   H2077     1.0  0.91055  0.51434  0.99845  1.0000
  H   H2078     1.0  0.69870  0.44688  0.14153  1.0000
  H   H2079     1.0  0.94244  0.58551  0.98790  1.0000
  H   H2080     1.0  0.93058  0.56861  0.01319  1.0000
  C   C1298     1.0  0.96176  0.61146  0.07096  1.0000
  H   H2081     1.0  0.93935  0.64286  0.09226  1.0000
  H   H2082     1.0  0.81074  0.61658  0.16185  1.0000
  H   H2083     1.0  0.97506  0.55986  0.06934  1.0000
  H   H2084     1.0  0.89249  0.50349  0.11312  1.0000
  H   H2085     1.0  0.80241  0.63542  0.14634  1.0000
  C   C1299     1.0  0.63253  0.49079  0.00262  1.0000
  H   H2086     1.0  0.57837  0.57112  0.07551  1.0000
  C   C1300     1.0  0.60793  0.47354  0.02270  1.0000
  H   H2087     1.0  0.77317  0.32621  0.13357  1.0000
  C   C1301     1.0  0.96444  0.59809  0.08421  1.0000
  C   C1302     1.0  0.92451  0.53925  0.98190  1.0000
  C   C1303     1.0  0.80689  0.49967  0.09065  1.0000
  C   C1304     1.0  0.82886  0.49600  0.08291  1.0000
  C   C1305     1.0  0.84390  0.51150  0.08153  1.0000
  C   C1306     1.0  0.83720  0.53069  0.08806  1.0000
  C   C1307     1.0  0.81520  0.53444  0.09573  1.0000
  C   C1308     1.0  0.80005  0.51906  0.09698  1.0000
  H   H2088     1.0  0.83421  0.48107  0.07795  1.0000
  H   H2089     1.0  0.86064  0.50853  0.07547  1.0000
  H   H2090     1.0  0.80983  0.54928  0.10079  1.0000
  H   H2091     1.0  0.78319  0.52205  0.10299  1.0000
  C   C1309     1.0  0.69614  0.40298  0.13098  1.0000
  C   C1310     1.0  0.71141  0.39915  0.14073  1.0000
  C   C1311     1.0  0.71122  0.38036  0.15169  1.0000
  C   C1312     1.0  0.69600  0.36511  0.15288  1.0000
  C   C1313     1.0  0.68106  0.36869  0.14298  1.0000
  C   C1314     1.0  0.68110  0.38759  0.13211  1.0000
  H   H2092     1.0  0.72343  0.41057  0.13978  1.0000
  H   H2093     1.0  0.72300  0.37755  0.15924  1.0000
  H   H2094     1.0  0.66930  0.35705  0.14375  1.0000
  H   H2095     1.0  0.66928  0.39041  0.12458  1.0000
  C   C1315     1.0  0.71488  0.58552  0.14760  1.0000
  C   C1316     1.0  0.69963  0.57490  0.15829  1.0000
  C   C1317     1.0  0.69510  0.55359  0.15729  1.0000
  C   C1318     1.0  0.70560  0.54289  0.14555  1.0000
  C   C1319     1.0  0.72061  0.55369  0.13478  1.0000
  C   C1320     1.0  0.72527  0.57490  0.13583  1.0000
  H   H2096     1.0  0.69160  0.58291  0.16744  1.0000
  H   H2097     1.0  0.68353  0.54531  0.16568  1.0000
  H   H2098     1.0  0.72891  0.54557  0.12575  1.0000
  H   H2099     1.0  0.73709  0.58301  0.12752  1.0000
  C   C1321     1.0  0.62650  0.49594  0.06654  1.0000
  C   C1322     1.0  0.63134  0.51714  0.05969  1.0000
  C   C1323     1.0  0.64966  0.52557  0.06266  1.0000
  C   C1324     1.0  0.66316  0.51296  0.07260  1.0000
  C   C1325     1.0  0.65860  0.49160  0.07927  1.0000
  C   C1326     1.0  0.64040  0.48306  0.07616  1.0000
  H   H2100     1.0  0.62108  0.52708  0.05207  1.0000
  H   H2101     1.0  0.65321  0.54206  0.05743  1.0000
  H   H2102     1.0  0.66899  0.48170  0.08691  1.0000
  H   H2103     1.0  0.63688  0.46657  0.08144  1.0000
  C   C1327     1.0  0.53286  0.59928  0.08002  1.0000
  H   H2104     1.0  0.90399  0.44843  0.08984  1.0000
  C   C1328     1.0  0.63513  0.64360  0.13288  1.0000
  H   H2105     1.0  0.52050  0.42438  0.06956  1.0000
  C   C1329     1.0  0.53089  0.63059  0.09270  1.0000
  C   C1330     1.0  0.52834  0.60830  0.09279  1.0000
  H   H2106     1.0  0.91433  0.64364  0.10542  1.0000
  H   H2107     1.0  0.80784  0.64948  0.17403  1.0000
  C   C1331     1.0  0.57716  0.56141  0.10411  1.0000
  C   C1332     1.0  0.55923  0.50947  0.98933  1.0000
  C   C1333     1.0  0.55852  0.52373  0.99927  1.0000
  C   C1334     1.0  0.57246  0.54034  0.99621  1.0000
  C   C1335     1.0  0.50997  0.45829  0.05955  1.0000
  H   H2108     1.0  0.54832  0.49668  0.99180  1.0000
  H   H2109     1.0  0.54675  0.52215  0.00917  1.0000
  H   H2110     1.0  0.54735  0.64564  0.05695  1.0000
  H   H2111     1.0  0.62312  0.55475  0.09865  1.0000
  H   H2112     1.0  0.62708  0.64345  0.19737  1.0000
  H   H2113     1.0  0.78657  0.61768  0.18559  1.0000
  H   H2114     1.0  0.63327  0.63786  0.14466  1.0000
  H   H2115     1.0  0.60617  0.55609  0.07086  1.0000
  H   H2116     1.0  0.63996  0.47698  0.03763  1.0000
  H   H2117     1.0  0.72959  0.32280  0.12263  1.0000
  S   S543      1.0  0.65777  0.61591  0.21648  1.0000
  C   C1336     1.0  0.61435  0.54078  0.09771  1.0000
  H   H2118     1.0  0.57470  0.55037  0.11468  1.0000
  H   H2119     1.0  0.65270  0.46203  0.02306  1.0000
  H   H2120     1.0  0.61008  0.50974  0.03396  1.0000
  C   C1337     1.0  0.93346  0.55938  0.97885  1.0000
  N   N131      1.0  0.59201  0.54924  0.09314  1.0000
  H   H2121     1.0  0.60105  0.51855  0.01682  1.0000
  H   H2122     1.0  0.58423  0.57622  0.10552  1.0000
  C   C1338     1.0  0.69682  0.45215  0.15218  1.0000
  H   H2123     1.0  0.54364  0.60580  0.05721  1.0000
  H   H2124     1.0  0.62569  0.53095  0.08988  1.0000
  H   H2125     1.0  0.64063  0.47226  0.15467  1.0000
  H   H2126     1.0  0.67632  0.41943  0.16897  1.0000
  N   N132      1.0  0.62537  0.48850  0.01831  1.0000
  H   H2127     1.0  0.59204  0.52086  0.08296  1.0000
  C   C1339     1.0  0.87510  0.46740  0.11067  1.0000
  C   C1340     1.0  0.54222  0.63516  0.06699  1.0000
  C   C1341     1.0  0.61587  0.51084  0.02223  1.0000
  C   C1342     1.0  0.65872  0.46994  0.14965  1.0000
  H   H2128     1.0  0.65972  0.46367  0.13936  1.0000
  N   N133      1.0  0.67298  0.45424  0.15922  1.0000
  N   N134      1.0  0.84216  0.54729  0.03828  1.0000
  C   C1343     1.0  0.85705  0.56110  0.02768  1.0000
  C   C1344     1.0  0.85484  0.52470  0.04226  1.0000
  C   C1345     1.0  0.82237  0.54525  0.03198  1.0000
  C   C1346     1.0  0.83439  0.55805  0.05123  1.0000
  H   H2129     1.0  0.84803  0.57818  0.02424  1.0000
  H   H2130     1.0  0.86377  0.55317  0.01792  1.0000
  H   H2131     1.0  0.87206  0.56316  0.03213  1.0000
  H   H2132     1.0  0.86964  0.52564  0.04728  1.0000
  H   H2133     1.0  0.84403  0.51364  0.05000  1.0000
  H   H2134     1.0  0.86166  0.51634  0.03268  1.0000
  H   H2135     1.0  0.81080  0.53490  0.03970  1.0000
  H   H2136     1.0  0.82771  0.53714  0.02220  1.0000
  H   H2137     1.0  0.81239  0.56199  0.02884  1.0000
  H   H2138     1.0  0.82487  0.57520  0.04868  1.0000
  H   H2139     1.0  0.84892  0.55968  0.05633  1.0000
  H   H2140     1.0  0.82310  0.54808  0.05947  1.0000
  H   H2141     1.0  0.58327  0.64591  0.16522  1.0000
  C   C1347     1.0  0.54009  0.61265  0.06711  1.0000
  C   C1348     1.0  0.77234  0.62642  0.17986  1.0000
  C   C1349     1.0  0.50838  0.43529  0.06345  1.0000
  C   C1350     1.0  0.79590  0.62554  0.15676  1.0000
  H   H2142     1.0  0.66429  0.48680  0.14696  1.0000
  H   H2143     1.0  0.67659  0.47985  0.17076  1.0000
  N   N135      1.0  0.89747  0.47342  0.10370  1.0000
  C   C1351     1.0  0.91504  0.46153  0.11237  1.0000
  C   C1352     1.0  0.89679  0.49791  0.10246  1.0000
  H   H2144     1.0  0.91609  0.44298  0.11355  1.0000
  H   H2145     1.0  0.91158  0.46617  0.12329  1.0000
  H   H2146     1.0  0.93212  0.46574  0.10726  1.0000
  H   H2147     1.0  0.91342  0.50304  0.09732  1.0000
  H   H2148     1.0  0.88385  0.50748  0.09591  1.0000
  H   H2149     1.0  0.87037  0.47205  0.12159  1.0000
  Fe  Fe274     1.0  0.70178  0.63089  0.16609  1.0000
  C   C1353     1.0  0.98472  0.63716  0.07600  1.0000
  H   H2150     1.0  0.61797  0.49807  0.99677  1.0000
  H   H2151     1.0  0.65842  0.48989  0.02283  1.0000
  C   C1354     1.0  0.72955  0.32281  0.13420  1.0000
  C   C1355     1.0  0.98916  0.54690  0.07280  1.0000
  H   H2152     1.0  0.52757  0.63722  0.10262  1.0000
  H   H2153     1.0  0.64561  0.50206  0.99890  1.0000
  H   H2154     1.0  0.60808  0.62969  0.21118  1.0000
  H   H2155     1.0  0.61454  0.45646  0.02000  1.0000
  C   C1356     1.0  0.66549  0.43197  0.16216  1.0000
  C   C1357     1.0  0.98065  0.47670  0.07218  1.0000
  C   C1358     1.0  0.67101  0.46300  0.17278  1.0000
  C   C1359     1.0  0.97181  0.63109  0.06698  1.0000
  H   H2156     1.0  0.87486  0.44906  0.11169  1.0000
  H   H2157     1.0  0.63974  0.47425  0.99922  1.0000
  H   H2158     1.0  0.66643  0.42525  0.15204  1.0000
  C   C1360     1.0  0.90303  0.46686  0.08928  1.0000
  H   H2159     1.0  0.65324  0.46487  0.17842  1.0000
  H   H2160     1.0  0.96991  0.64150  0.05672  1.0000
  H   H2161     1.0  0.60198  0.47160  0.03449  1.0000
  H   H2162     1.0  0.52281  0.59800  0.10282  1.0000
  H   H2163     1.0  0.56456  0.53583  0.08820  1.0000
  H   H2164     1.0  0.62849  0.52265  0.01912  1.0000
  H   H2165     1.0  0.52322  0.46506  0.06269  1.0000
  H   H2166     1.0  0.51557  0.32649  0.10697  1.0000
  C   C1361     1.0  0.97767  0.60395  0.09312  1.0000
  H   H2167     1.0  0.64767  0.43277  0.16770  1.0000
  H   H2168     1.0  0.91974  0.47137  0.08365  1.0000
  H   H2169     1.0  0.89006  0.47532  0.08244  1.0000
  H   H2170     1.0  0.86147  0.47631  0.10440  1.0000
  H   H2171     1.0  0.66871  0.61066  0.12553  1.0000
  H   H2172     1.0  0.57958  0.51786  0.10148  1.0000
  C   C1362     1.0  0.58161  0.53011  0.09139  1.0000
  C   C1363     1.0  0.59489  0.56464  0.07935  1.0000
  C   C1364     1.0  0.53741  0.64425  0.07978  1.0000
  H   H2173     1.0  0.56008  0.56770  0.10104  1.0000
  H   H2174     1.0  0.68177  0.45165  0.18017  1.0000
  C   C1365     1.0  0.64501  0.47891  0.02575  1.0000
  H   H2175     1.0  0.60242  0.57944  0.08028  1.0000
  H   H2176     1.0  0.59286  0.48026  0.01726  1.0000
  H   H2177     1.0  0.97999  0.59331  0.10324  1.0000
  C   C1366     1.0  0.67360  0.62423  0.13001  1.0000
  H   H2178     1.0  0.71230  0.32045  0.13998  1.0000
  C   C1367     1.0  0.58707  0.54270  0.98307  1.0000
  H   H2179     1.0  0.97232  0.49632  0.05230  1.0000
  N   N136      1.0  0.78050  0.64015  0.16615  1.0000
  C   C1368     1.0  0.60922  0.64490  0.20284  1.0000
  H   H2180     1.0  0.75136  0.63897  0.15672  1.0000
  H   H2181     1.0  0.62885  0.63118  0.12811  1.0000
  H   H2182     1.0  0.67275  0.61869  0.14179  1.0000
  H   H2183     1.0  0.54397  0.32115  0.12369  1.0000
  H   H2184     1.0  0.68466  0.64853  0.21974  1.0000
  H   H2185     1.0  0.76290  0.61343  0.17814  1.0000
  H   H2186     1.0  0.78705  0.61260  0.15433  1.0000
  H   H2187     1.0  0.49442  0.31933  0.12214  1.0000
  C   C1369     1.0  0.98782  0.62352  0.08909  1.0000
  H   H2188     1.0  0.98458  0.53016  0.07273  1.0000
  H   H2189     1.0  0.73209  0.33989  0.13534  1.0000
  C   C1370     1.0  0.49393  0.47256  0.05204  1.0000
  H   H2190     1.0  0.74799  0.32262  0.15731  1.0000
  C   C1371     1.0  0.98326  0.48231  0.05726  1.0000
  H   H2191     1.0  0.76064  0.63698  0.18720  1.0000
  H   H2192     1.0  0.59838  0.64431  0.19481  1.0000
  H   H2193     1.0  0.65560  0.64006  0.10590  1.0000
  N   N137      1.0  0.65889  0.64594  0.12672  1.0000
  S   S544      1.0  0.49346  0.50178  0.04865  1.0000
  Fe  Fe275     1.0  0.65665  0.60798  0.32191  1.0000
  S   S545      1.0  0.66516  0.59203  0.30202  1.0000
  S   S546      1.0  0.62254  0.60573  0.33584  1.0000
  Fe  Fe276     1.0  0.70478  0.61785  0.31950  1.0000
  S   S547      1.0  0.71722  0.60220  0.29967  1.0000
  Fe  Fe277     1.0  0.68456  0.62056  0.29266  1.0000
  H   H2194     1.0  0.78624  0.43056  0.37883  1.0000
  Fe  Fe278     1.0  0.69684  0.57499  0.31088  1.0000
  S   S548      1.0  0.70747  0.53779  0.31001  1.0000
  S   S549      1.0  0.68703  0.58918  0.33135  1.0000
  N   N138      1.0  0.63561  0.38300  0.45473  1.0000
  H   H2195     1.0  0.86408  0.34742  0.41166  1.0000
  Fe  Fe279     1.0  0.89631  0.38532  0.41723  1.0000
  S   S550      1.0  0.92177  0.38562  0.39716  1.0000
  S   S551      1.0  0.85854  0.39767  0.41802  1.0000
  Fe  Fe280     1.0  0.93131  0.36096  0.43619  1.0000
  S   S552      1.0  0.95927  0.35844  0.41734  1.0000
  Fe  Fe281     1.0  0.94529  0.39439  0.41004  1.0000
  C   C1372     1.0  0.98797  0.52032  0.39384  1.0000
  Fe  Fe282     1.0  0.93373  0.34973  0.40605  1.0000
  C   C1373     1.0  0.98724  0.40202  0.47077  1.0000
  S   S553      1.0  0.91877  0.39753  0.42954  1.0000
  S   S554      1.0  0.90680  0.34885  0.42550  1.0000
  Fe  Fe283     1.0  0.52438  0.37625  0.44411  1.0000
  S   S555      1.0  0.53061  0.34106  0.45600  1.0000
  Fe  Fe284     1.0  0.56984  0.37076  0.42511  1.0000
  S   S556      1.0  0.57950  0.33516  0.43533  1.0000
  S   S557      1.0  0.59219  0.39009  0.40760  1.0000
  Fe  Fe285     1.0  0.54373  0.33128  0.43422  1.0000
  N   N139      1.0  0.87036  0.32385  0.39683  1.0000
  Fe  Fe286     1.0  0.56550  0.34815  0.45611  1.0000
  S   S558      1.0  0.53504  0.36609  0.42232  1.0000
  S   S559      1.0  0.55826  0.38411  0.44587  1.0000
  H   H2196     1.0  0.98104  0.40189  0.44374  1.0000
  Fe  Fe287     1.0  0.72924  0.43134  0.36661  1.0000
  S   S560      1.0  0.75478  0.41429  0.35061  1.0000
  S   S561      1.0  0.72325  0.46886  0.36658  1.0000
  Fe  Fe288     1.0  0.71929  0.38685  0.38489  1.0000
  S   S562      1.0  0.74513  0.36637  0.37061  1.0000
  S   S563      1.0  0.69871  0.36831  0.40405  1.0000
  Fe  Fe289     1.0  0.76744  0.39235  0.36994  1.0000
  S   S564      1.0  0.80572  0.38677  0.36904  1.0000
  Fe  Fe290     1.0  0.73028  0.38999  0.35274  1.0000
  S   S565      1.0  0.71820  0.38004  0.33422  1.0000
  S   S566      1.0  0.74293  0.41052  0.38591  1.0000
  S   S567      1.0  0.70337  0.40932  0.36704  1.0000
  C   C1374     1.0  0.68471  0.64548  0.24238  1.0000
  H   H2197     1.0  0.69499  0.31913  0.31645  1.0000
  C   C1375     1.0  0.70598  0.34592  0.32393  1.0000
  C   C1376     1.0  0.71905  0.35152  0.33298  1.0000
  C   C1377     1.0  0.73195  0.33436  0.34112  1.0000
  H   H2198     1.0  0.49574  0.33754  0.42803  1.0000
  H   H2199     1.0  0.64002  0.33018  0.26665  1.0000
  H   H2200     1.0  0.97978  0.56795  0.40857  1.0000
  H   H2201     1.0  0.74239  0.33847  0.34792  1.0000
  C   C1378     1.0  0.67265  0.32629  0.35994  1.0000
  C   C1379     1.0  0.62165  0.38417  0.40728  1.0000
  C   C1380     1.0  0.63529  0.39919  0.39864  1.0000
  C   C1381     1.0  0.65892  0.39466  0.39781  1.0000
  C   C1382     1.0  0.66908  0.37493  0.40546  1.0000
  C   C1383     1.0  0.65544  0.35998  0.41423  1.0000
  C   C1384     1.0  0.63176  0.36459  0.41516  1.0000
  H   H2202     1.0  0.62755  0.41442  0.39258  1.0000
  H   H2203     1.0  0.66919  0.40659  0.39134  1.0000
  H   H2204     1.0  0.66324  0.34465  0.42017  1.0000
  H   H2205     1.0  0.62138  0.35283  0.42176  1.0000
  C   C1385     1.0  0.84390  0.39573  0.40412  1.0000
  C   C1386     1.0  0.85531  0.39328  0.39035  1.0000
  C   C1387     1.0  0.84324  0.39101  0.37967  1.0000
  C   C1388     1.0  0.81976  0.39089  0.38268  1.0000
  C   C1389     1.0  0.80827  0.39374  0.39637  1.0000
  C   C1390     1.0  0.82029  0.39631  0.40701  1.0000
  H   H2206     1.0  0.87342  0.39319  0.38793  1.0000
  H   H2207     1.0  0.85220  0.38917  0.36903  1.0000
  H   H2208     1.0  0.79018  0.39364  0.39885  1.0000
  H   H2209     1.0  0.81134  0.39827  0.41764  1.0000
  C   C1391     1.0  0.70535  0.32330  0.32328  1.0000
  H   H2210     1.0  0.64554  0.35947  0.38440  1.0000
  H   H2211     1.0  0.65400  0.63649  0.34941  1.0000
  C   C1392     1.0  0.97378  0.43888  0.40910  1.0000
  C   C1393     1.0  0.95502  0.44847  0.41792  1.0000
  C   C1394     1.0  0.95684  0.46634  0.42464  1.0000
  C   C1395     1.0  0.64730  0.34966  0.37554  1.0000
  S   S568      1.0  0.58490  0.33637  0.47492  1.0000
  H   H2212     1.0  0.93901  0.44237  0.41933  1.0000
  H   H2213     1.0  0.94216  0.47391  0.43129  1.0000
  H   H2214     1.0  0.96928  0.55315  0.37489  1.0000
  H   H2215     1.0  0.60699  0.40812  0.45029  1.0000
  H   H2216     1.0  0.68473  0.36649  0.37605  1.0000
  C   C1396     1.0  0.66550  0.61631  0.25759  1.0000
  C   C1397     1.0  0.65935  0.61076  0.24540  1.0000
  H   H2217     1.0  0.50653  0.41574  0.42195  1.0000
  H   H2218     1.0  0.66027  0.60728  0.26813  1.0000
  H   H2219     1.0  0.64946  0.59735  0.24660  1.0000
  C   C1398     1.0  0.71391  0.51880  0.32548  1.0000
  C   C1399     1.0  0.71703  0.49561  0.32523  1.0000
  C   C1400     1.0  0.72015  0.48006  0.33773  1.0000
  C   C1401     1.0  0.72022  0.48766  0.35054  1.0000
  C   C1402     1.0  0.71760  0.51080  0.35072  1.0000
  C   C1403     1.0  0.71456  0.52632  0.33823  1.0000
  H   H2220     1.0  0.71665  0.48966  0.31538  1.0000
  H   H2221     1.0  0.72224  0.46223  0.33747  1.0000
  H   H2222     1.0  0.71781  0.51677  0.36059  1.0000
  H   H2223     1.0  0.71259  0.54410  0.33850  1.0000
  H   H2224     1.0  0.63561  0.33698  0.37910  1.0000
  C   C1404     1.0  0.85483  0.33720  0.40694  1.0000
  N   N140      1.0  0.64216  0.53154  0.33394  1.0000
  C   C1405     1.0  0.65614  0.54330  0.34020  1.0000
  C   C1406     1.0  0.62102  0.52857  0.34401  1.0000
  C   C1407     1.0  0.65486  0.50936  0.33130  1.0000
  C   C1408     1.0  0.63673  0.54506  0.32024  1.0000
  H   H2225     1.0  0.66172  0.53316  0.35016  1.0000
  H   H2226     1.0  0.64682  0.55977  0.34282  1.0000
  H   H2227     1.0  0.67159  0.54679  0.33255  1.0000
  H   H2228     1.0  0.62465  0.51854  0.35447  1.0000
  H   H2229     1.0  0.61114  0.54511  0.34615  1.0000
  H   H2230     1.0  0.60999  0.51975  0.33966  1.0000
  H   H2231     1.0  0.64452  0.49958  0.32712  1.0000
  H   H2232     1.0  0.66053  0.49912  0.34122  1.0000
  H   H2233     1.0  0.67035  0.51118  0.32320  1.0000
  H   H2234     1.0  0.65242  0.54694  0.31229  1.0000
  H   H2235     1.0  0.62800  0.56229  0.32172  1.0000
  H   H2236     1.0  0.62565  0.53710  0.31535  1.0000
  H   H2237     1.0  0.58218  0.61321  0.35637  1.0000
  C   C1409     1.0  0.58792  0.62922  0.35227  1.0000
  C   C1410     1.0  0.64199  0.35841  0.45560  1.0000
  H   H2238     1.0  0.65928  0.35264  0.45841  1.0000
  H   H2239     1.0  0.89163  0.34956  0.38997  1.0000
  H   H2240     1.0  0.61231  0.38575  0.43991  1.0000
  H   H2241     1.0  0.76342  0.45354  0.37881  1.0000
  C   C1411     1.0  0.66904  0.63819  0.35397  1.0000
  N   N141      1.0  0.79421  0.46082  0.36506  1.0000
  H   H2242     1.0  0.99101  0.42792  0.43622  1.0000
  H   H2243     1.0  0.66756  0.62873  0.36508  1.0000
  C   C1412     1.0  0.68573  0.35652  0.36737  1.0000
  C   C1413     1.0  0.96672  0.55647  0.38611  1.0000
  H   H2244     1.0  0.82357  0.46029  0.37472  1.0000
  H   H2245     1.0  0.68417  0.62958  0.34760  1.0000
  H   H2246     1.0  0.82465  0.43685  0.36581  1.0000
  H   H2247     1.0  0.50585  0.32044  0.38375  1.0000
  H   H2248     1.0  0.95018  0.42236  0.45792  1.0000
  C   C1414     1.0  0.98169  0.54963  0.40832  1.0000
  C   C1415     1.0  0.78698  0.48531  0.36426  1.0000
  S   S569      1.0  0.93961  0.34491  0.45828  1.0000
  H   H2249     1.0  0.91902  0.39073  0.46142  1.0000
  C   C1416     1.0  0.93859  0.36136  0.47168  1.0000
  H   H2250     1.0  0.76839  0.48983  0.36402  1.0000
  C   C1417     1.0  0.96158  0.43297  0.46034  1.0000
  H   H2251     1.0  0.79057  0.49140  0.37368  1.0000
  H   H2252     1.0  0.95049  0.55083  0.39172  1.0000
  H   H2253     1.0  0.99113  0.51590  0.38287  1.0000
  C   C1418     1.0  0.63549  0.38931  0.46885  1.0000
  C   C1419     1.0  0.92748  0.38351  0.47054  1.0000
  H   H2254     1.0  0.51403  0.54315  0.38373  1.0000
  H   H2255     1.0  0.95507  0.43712  0.47129  1.0000
  H   H2256     1.0  0.64792  0.41305  0.44308  1.0000
  S   S570      1.0  0.93837  0.32658  0.38956  1.0000
  H   H2257     1.0  0.66962  0.38936  0.44635  1.0000
  H   H2258     1.0  0.63002  0.34928  0.46387  1.0000
  H   H2259     1.0  0.64132  0.36150  0.36625  1.0000
  H   H2260     1.0  0.64170  0.35298  0.44524  1.0000
  H   H2261     1.0  0.67776  0.33265  0.39349  1.0000
  C   C1420     1.0  0.65208  0.39448  0.44384  1.0000
  C   C1421     1.0  0.67807  0.63385  0.25610  1.0000
  C   C1422     1.0  0.60730  0.63042  0.34181  1.0000
  H   H2262     1.0  0.79754  0.46213  0.34225  1.0000
  H   H2263     1.0  0.49639  0.56048  0.40546  1.0000
  H   H2264     1.0  0.77031  0.45726  0.35204  1.0000
  C   C1423     1.0  0.81887  0.45527  0.36525  1.0000
  S   S571      1.0  0.68498  0.64260  0.27100  1.0000
  H   H2265     1.0  0.59849  0.33357  0.26624  1.0000
  H   H2266     1.0  0.97554  0.62157  0.42197  1.0000
  H   H2267     1.0  0.68102  0.36841  0.35774  1.0000
  H   H2268     1.0  0.79576  0.49475  0.35440  1.0000
  C   C1424     1.0  0.67903  0.63962  0.23022  1.0000
  C   C1425     1.0  0.78883  0.45351  0.35245  1.0000
  C   C1426     1.0  0.78209  0.44907  0.37828  1.0000
  H   H2269     1.0  0.78654  0.45329  0.38806  1.0000
  C   C1427     1.0  0.66614  0.62240  0.23168  1.0000
  H   H2270     1.0  0.82863  0.46383  0.35544  1.0000
  H   H2271     1.0  0.66862  0.33761  0.34994  1.0000
  S   S572      1.0  0.97196  0.41663  0.40043  1.0000
  N   N142      1.0  0.67098  0.33898  0.37182  1.0000
  C   C1428     1.0  0.67834  0.32352  0.38443  1.0000
  H   H2272     1.0  0.65225  0.39047  0.43301  1.0000
  H   H2273     1.0  0.87082  0.35047  0.37875  1.0000
  H   H2274     1.0  0.52414  0.32755  0.40325  1.0000
  H   H2275     1.0  0.89550  0.32943  0.37811  1.0000
  H   H2276     1.0  0.61266  0.33171  0.28914  1.0000
  H   H2277     1.0  0.84171  0.34907  0.40152  1.0000
  H   H2278     1.0  0.95994  0.44899  0.45270  1.0000
  H   H2279     1.0  0.69611  0.35913  0.31751  1.0000
  H   H2280     1.0  0.79414  0.43508  0.35268  1.0000
  H   H2281     1.0  0.96471  0.57499  0.38571  1.0000
  C   C1429     1.0  0.88256  0.33900  0.38542  1.0000
  H   H2282     1.0  0.60013  0.38086  0.45841  1.0000
  H   H2283     1.0  0.70376  0.34911  0.36469  1.0000
  S   S573      1.0  0.72711  0.63155  0.33099  1.0000
  C   C1430     1.0  0.97762  0.47412  0.42306  1.0000
  S   S574      1.0  0.67342  0.63813  0.31194  1.0000
  C   C1431     1.0  0.61278  0.38978  0.45065  1.0000
  H   H2284     1.0  0.84585  0.32633  0.41597  1.0000
  H   H2285     1.0  0.50537  0.51899  0.40745  1.0000
  H   H2286     1.0  0.97673  0.38944  0.46981  1.0000
  N   N143      1.0  0.98585  0.54481  0.39350  1.0000
  C   C1432     1.0  0.57620  0.64860  0.35768  1.0000
  H   H2287     1.0  0.97237  0.51366  0.39973  1.0000
  H   H2288     1.0  0.96621  0.54326  0.41465  1.0000
  S   S575      1.0  0.97934  0.49573  0.43230  1.0000
  H   H2289     1.0  0.65247  0.38456  0.47226  1.0000
  H   H2290     1.0  0.84451  0.32332  0.38442  1.0000
  H   H2291     1.0  0.63034  0.40770  0.46873  1.0000
  C   C1433     1.0  0.99118  0.63498  0.40086  1.0000
  H   H2292     1.0  0.49767  0.52832  0.37593  1.0000
  N   N144      1.0  0.98528  0.42153  0.45918  1.0000
  C   C1434     1.0  0.49668  0.54258  0.38179  1.0000
  H   H2293     1.0  0.56155  0.64748  0.36596  1.0000
  C   C1435     1.0  0.98928  0.61878  0.41327  1.0000
  H   H2294     1.0  0.69005  0.31716  0.35737  1.0000
  C   C1436     1.0  0.99214  0.41367  0.44517  1.0000
  Fe  Fe291     1.0  0.93403  0.38611  0.55869  1.0000
  S   S576      1.0  0.94911  0.36264  0.54294  1.0000
  S   S577      1.0  0.90455  0.37863  0.57593  1.0000
  H   H2295     1.0  0.71917  0.33849  0.62936  1.0000
  Fe  Fe292     1.0  0.95234  0.39404  0.52671  1.0000
  S   S578      1.0  0.93845  0.40466  0.50571  1.0000
  C   C1437     1.0  0.72276  0.34879  0.63682  1.0000
  S   S579      1.0  0.93467  0.41703  0.54229  1.0000
  H   H2296     1.0  0.96165  0.59385  0.66160  1.0000
  H   H2297     1.0  0.59293  0.32080  0.52724  1.0000
  Fe  Fe293     1.0  0.76599  0.48227  0.62015  1.0000
  S   S580      1.0  0.75917  0.47677  0.59882  1.0000
  S   S581      1.0  0.76017  0.51619  0.62804  1.0000
  Fe  Fe294     1.0  0.77837  0.43212  0.62996  1.0000
  S   S582      1.0  0.77371  0.42212  0.60951  1.0000
  S   S583      1.0  0.78451  0.41051  0.65096  1.0000
  Fe  Fe295     1.0  0.79132  0.45172  0.59902  1.0000
  S   S584      1.0  0.81708  0.45246  0.57878  1.0000
  Fe  Fe296     1.0  0.74185  0.44744  0.61056  1.0000
  S   S585      1.0  0.70724  0.43780  0.60988  1.0000
  S   S586      1.0  0.79913  0.45923  0.61944  1.0000
  S   S587      1.0  0.74556  0.45547  0.63188  1.0000
  H   H2298     1.0  0.79731  0.44581  0.66477  1.0000
  H   H2299     1.0  0.74853  0.48809  0.65536  1.0000
  H   H2300     1.0  0.84636  0.57830  0.61864  1.0000
  C   C1438     1.0  0.55483  0.34108  0.54134  1.0000
  H   H2301     1.0  0.76781  0.34123  0.63083  1.0000
  C   C1439     1.0  0.75295  0.44883  0.67347  1.0000
  S   S588      1.0  0.60279  0.31794  0.57131  1.0000
  H   H2302     1.0  0.88649  0.64884  0.67730  1.0000
  Fe  Fe297     1.0  0.63450  0.39153  0.56109  1.0000
  S   S589      1.0  0.60921  0.37901  0.57971  1.0000
  S   S590      1.0  0.66877  0.40146  0.56215  1.0000
  Fe  Fe298     1.0  0.60267  0.39138  0.53915  1.0000
  S   S591      1.0  0.57508  0.37973  0.55637  1.0000
  S   S592      1.0  0.59495  0.40198  0.51641  1.0000
  Fe  Fe299     1.0  0.58353  0.40410  0.56854  1.0000
  S   S593      1.0  0.55789  0.42881  0.58008  1.0000
  Fe  Fe300     1.0  0.60314  0.35567  0.56567  1.0000
  S   S594      1.0  0.60901  0.41773  0.55068  1.0000
  S   S595      1.0  0.63061  0.36618  0.54769  1.0000
  Fe  Fe301     1.0  0.81856  0.58641  0.67174  1.0000
  S   S596      1.0  0.82618  0.61689  0.65586  1.0000
  S   S597      1.0  0.82078  0.55276  0.66384  1.0000
  Fe  Fe302     1.0  0.82086  0.61051  0.69703  1.0000
  N   N145      1.0  0.55775  0.31979  0.53565  1.0000
  H   H2303     1.0  0.72250  0.37135  0.60997  1.0000
  H   H2304     1.0  0.86204  0.58046  0.65382  1.0000
  Fe  Fe303     1.0  0.85280  0.61899  0.66871  1.0000
  C   C1440     1.0  0.90320  0.64261  0.65634  1.0000
  S   S598      1.0  0.79221  0.60660  0.68606  1.0000
  S   S599      1.0  0.84640  0.58756  0.68415  1.0000
  H   H2305     1.0  0.72604  0.38779  0.64471  1.0000
  H   H2306     1.0  0.89722  0.37158  0.50874  1.0000
  H   H2307     1.0  0.52151  0.31734  0.58933  1.0000
  C   C1441     1.0  0.80717  0.35061  0.63741  1.0000
  C   C1442     1.0  0.75922  0.35343  0.62264  1.0000
  H   H2308     1.0  0.75045  0.64153  0.68272  1.0000
  H   H2309     1.0  0.78266  0.48273  0.68438  1.0000
  H   H2310     1.0  0.88759  0.56524  0.61179  1.0000
  C   C1443     1.0  0.87453  0.56960  0.64714  1.0000
  H   H2311     1.0  0.88673  0.54310  0.62699  1.0000
  C   C1444     1.0  0.58642  0.35438  0.48693  1.0000
  N   N146      1.0  0.98778  0.61459  0.65774  1.0000
  C   C1445     1.0  0.57715  0.39055  0.49512  1.0000
  C   C1446     1.0  0.59096  0.38292  0.50578  1.0000
  C   C1447     1.0  0.60238  0.36086  0.50708  1.0000
  C   C1448     1.0  0.60030  0.34673  0.49758  1.0000
  C   C1449     1.0  0.57462  0.37626  0.48586  1.0000
  H   H2312     1.0  0.56833  0.40763  0.49403  1.0000
  H   H2313     1.0  0.61341  0.35500  0.51509  1.0000
  H   H2314     1.0  0.90653  0.56253  0.62454  1.0000
  C   C1450     1.0  0.92705  0.47409  0.57939  1.0000
  C   C1451     1.0  0.78740  0.46247  0.66130  1.0000
  C   C1452     1.0  0.50000  0.60052  0.59096  1.0000
  H   H2315     1.0  0.94312  0.43417  0.57144  1.0000
  H   H2316     1.0  0.88131  0.47624  0.58427  1.0000
  C   C1453     1.0  0.51649  0.48129  0.55060  1.0000
  C   C1454     1.0  0.53305  0.46481  0.54493  1.0000
  C   C1455     1.0  0.54565  0.44860  0.55393  1.0000
  C   C1456     1.0  0.54182  0.44878  0.56870  1.0000
  C   C1457     1.0  0.52534  0.46533  0.57440  1.0000
  H   H2317     1.0  0.53235  0.33145  0.52195  1.0000
  H   H2318     1.0  0.53613  0.46450  0.53352  1.0000
  H   H2319     1.0  0.55826  0.43591  0.54941  1.0000
  H   H2320     1.0  0.52231  0.46553  0.58582  1.0000
  C   C1458     1.0  0.94909  0.35204  0.48376  1.0000
  H   H2321     1.0  0.49991  0.49418  0.56983  1.0000
  S   S600      1.0  0.50941  0.62707  0.60848  1.0000
  H   H2322     1.0  0.62338  0.38080  0.47733  1.0000
  C   C1459     1.0  0.49817  0.62256  0.59372  1.0000
  C   C1460     1.0  0.72630  0.38060  0.61793  1.0000
  H   H2323     1.0  0.84578  0.55578  0.63364  1.0000
  H   H2324     1.0  0.86324  0.61118  0.63294  1.0000
  H   H2325     1.0  0.75663  0.34384  0.61449  1.0000
  H   H2326     1.0  0.76283  0.50292  0.66443  1.0000
  C   C1461     1.0  0.77790  0.52680  0.63718  1.0000
  C   C1462     1.0  0.77029  0.54744  0.64219  1.0000
  C   C1463     1.0  0.78327  0.55587  0.65016  1.0000
  C   C1464     1.0  0.80397  0.54360  0.65336  1.0000
  C   C1465     1.0  0.81169  0.52307  0.64821  1.0000
  C   C1466     1.0  0.79888  0.51483  0.64006  1.0000
  H   H2327     1.0  0.75412  0.55691  0.64000  1.0000
  H   H2328     1.0  0.77707  0.57169  0.65401  1.0000
  H   H2329     1.0  0.82771  0.51347  0.65055  1.0000
  H   H2330     1.0  0.80515  0.49915  0.63608  1.0000
  C   C1467     1.0  0.69720  0.42724  0.59651  1.0000
  C   C1468     1.0  0.67589  0.41989  0.59979  1.0000
  C   C1469     1.0  0.66713  0.41153  0.58955  1.0000
  C   C1470     1.0  0.67940  0.41076  0.57578  1.0000
  C   C1471     1.0  0.70079  0.41791  0.57256  1.0000
  C   C1472     1.0  0.70969  0.42599  0.58285  1.0000
  H   H2331     1.0  0.66613  0.42059  0.61035  1.0000
  H   H2332     1.0  0.65094  0.40559  0.59231  1.0000
  H   H2333     1.0  0.71050  0.41733  0.56197  1.0000
  H   H2334     1.0  0.72607  0.43156  0.58012  1.0000
  C   C1473     1.0  0.93820  0.38721  0.49313  1.0000
  H   H2335     1.0  0.73703  0.39328  0.61192  1.0000
  H   H2336     1.0  0.91695  0.42301  0.57563  1.0000
  N   N147      1.0  0.87205  0.57589  0.63183  1.0000
  H   H2337     1.0  0.88133  0.44719  0.58383  1.0000
  C   C1474     1.0  0.94903  0.36495  0.49444  1.0000
  H   H2338     1.0  0.55575  0.33599  0.58114  1.0000
  H   H2339     1.0  0.81259  0.34439  0.62732  1.0000
  H   H2340     1.0  0.79885  0.33185  0.67331  1.0000
  H   H2341     1.0  0.95759  0.35777  0.50353  1.0000
  C   C1475     1.0  0.87992  0.39878  0.57656  1.0000
  C   C1476     1.0  0.87633  0.41550  0.56481  1.0000
  C   C1477     1.0  0.85679  0.43167  0.56556  1.0000
  C   C1478     1.0  0.84078  0.43130  0.57810  1.0000
  C   C1479     1.0  0.84425  0.41448  0.58984  1.0000
  C   C1480     1.0  0.86375  0.39817  0.58903  1.0000
  H   H2342     1.0  0.88848  0.41590  0.55510  1.0000
  H   H2343     1.0  0.85407  0.44463  0.55644  1.0000
  H   H2344     1.0  0.83193  0.41408  0.59955  1.0000
  H   H2345     1.0  0.86638  0.38520  0.59815  1.0000
  C   C1481     1.0  0.79349  0.36668  0.66344  1.0000
  C   C1482     1.0  0.79395  0.38180  0.65054  1.0000
  C   C1483     1.0  0.80105  0.37377  0.63752  1.0000
  H   H2346     1.0  0.78809  0.37282  0.67355  1.0000
  H   H2347     1.0  0.80186  0.38537  0.62754  1.0000
  N   N148      1.0  0.73757  0.36534  0.62923  1.0000
  H   H2348     1.0  0.90031  0.48206  0.55910  1.0000
  C   C1484     1.0  0.92054  0.64804  0.64505  1.0000
  Fe  Fe304     1.0  0.98231  0.36773  0.54805  1.0000
  H   H2349     1.0  0.70623  0.35723  0.64188  1.0000
  H   H2350     1.0  0.98929  0.58059  0.65453  1.0000
  C   C1485     1.0  0.80613  0.33542  0.65029  1.0000
  H   H2351     1.0  0.50739  0.48865  0.51078  1.0000
  H   H2352     1.0  0.89276  0.60203  0.62822  1.0000
  H   H2353     1.0  0.95762  0.33485  0.48473  1.0000
  H   H2354     1.0  0.89962  0.45325  0.55829  1.0000
  S   S601      1.0  0.88740  0.62165  0.65519  1.0000
  H   H2355     1.0  0.60960  0.32985  0.49840  1.0000
  H   H2356     1.0  0.94373  0.47378  0.57218  1.0000
  H   H2357     1.0  0.92597  0.46408  0.55353  1.0000
  C   C1486     1.0  0.79957  0.34350  0.66333  1.0000
  C   C1487     1.0  0.84905  0.57340  0.63000  1.0000
  H   H2358     1.0  0.86042  0.61445  0.71681  1.0000
  S   S602      1.0  0.50108  0.50116  0.53880  1.0000
  H   H2359     1.0  0.75715  0.47236  0.69351  1.0000
  N   N149      1.0  0.61209  0.46365  0.57777  1.0000
  C   C1488     1.0  0.60764  0.44272  0.58756  1.0000
  C   C1489     1.0  0.61283  0.48115  0.58627  1.0000
  C   C1490     1.0  0.59379  0.47130  0.56895  1.0000
  C   C1491     1.0  0.63410  0.45940  0.56838  1.0000
  H   H2360     1.0  0.60770  0.42894  0.58149  1.0000
  H   H2361     1.0  0.59073  0.44500  0.59439  1.0000
  H   H2362     1.0  0.62061  0.43689  0.59475  1.0000
  H   H2363     1.0  0.59652  0.48464  0.59354  1.0000
  H   H2364     1.0  0.62651  0.47594  0.59303  1.0000
  H   H2365     1.0  0.61608  0.49721  0.57923  1.0000
  H   H2366     1.0  0.59649  0.48705  0.56140  1.0000
  H   H2367     1.0  0.57692  0.47442  0.57573  1.0000
  H   H2368     1.0  0.59259  0.45846  0.56248  1.0000
  H   H2369     1.0  0.63778  0.47461  0.56055  1.0000
  H   H2370     1.0  0.63451  0.44571  0.56215  1.0000
  H   H2371     1.0  0.64833  0.45414  0.57469  1.0000
  H   H2372     1.0  0.73079  0.33705  0.64545  1.0000
  H   H2373     1.0  0.76263  0.43233  0.67752  1.0000
  N   N150      1.0  0.87911  0.37947  0.52906  1.0000
  C   C1492     1.0  0.89712  0.36575  0.52044  1.0000
  C   C1493     1.0  0.85684  0.37800  0.52551  1.0000
  C   C1494     1.0  0.88297  0.40313  0.52580  1.0000
  C   C1495     1.0  0.87952  0.37104  0.54448  1.0000
  H   H2374     1.0  0.51194  0.51758  0.48946  1.0000
  S   S603      1.0  0.81252  0.60914  0.72126  1.0000
  H   H2375     1.0  0.89498  0.34773  0.52270  1.0000
  H   H2376     1.0  0.84285  0.38815  0.53185  1.0000
  H   H2377     1.0  0.85597  0.38431  0.51395  1.0000
  H   H2378     1.0  0.85339  0.36035  0.52780  1.0000
  H   H2379     1.0  0.88348  0.40986  0.51416  1.0000
  H   H2380     1.0  0.89947  0.40487  0.52855  1.0000
  H   H2381     1.0  0.86950  0.41410  0.53192  1.0000
  H   H2382     1.0  0.89602  0.37215  0.54756  1.0000
  H   H2383     1.0  0.87693  0.35315  0.54735  1.0000
  H   H2384     1.0  0.86606  0.38089  0.55133  1.0000
  H   H2385     1.0  0.53686  0.34932  0.54253  1.0000
  H   H2386     1.0  0.92314  0.64031  0.63554  1.0000
  N   N151      1.0  0.91362  0.45836  0.57617  1.0000
  H   H2387     1.0  0.77112  0.36537  0.61722  1.0000
  H   H2388     1.0  0.56515  0.35325  0.53415  1.0000
  H   H2389     1.0  0.92909  0.42973  0.58962  1.0000
  Fe  Fe305     1.0  0.96905  0.41810  0.54723  1.0000
  H   H2390     1.0  0.98146  0.40710  0.48154  1.0000
  H   H2391     1.0  0.56026  0.33819  0.55205  1.0000
  H   H2392     1.0  0.73701  0.45177  0.68112  1.0000
  H   H2393     1.0  0.83577  0.58401  0.63647  1.0000
  H   H2394     1.0  0.98817  0.64136  0.63976  1.0000
  C   C1496     1.0  0.88900  0.56101  0.62339  1.0000
  H   H2395     1.0  0.71001  0.39009  0.62252  1.0000
  H   H2396     1.0  0.95642  0.63164  0.66775  1.0000
  H   H2397     1.0  0.75306  0.39122  0.63421  1.0000
  H   H2398     1.0  0.56019  0.33678  0.51386  1.0000
  S   S604      1.0  0.82949  0.64208  0.68247  1.0000
  C   C1497     1.0  0.87570  0.59946  0.62679  1.0000
  H   H2399     1.0  0.91809  0.49167  0.57791  1.0000
  S   S605      1.0  0.97494  0.45315  0.54841  1.0000
  H   H2400     1.0  0.98297  0.58472  0.67299  1.0000
  H   H2401     1.0  0.89389  0.45487  0.59728  1.0000
  C   C1498     1.0  0.92623  0.43532  0.57831  1.0000
  H   H2402     1.0  0.87402  0.60484  0.61528  1.0000
  H   H2403     1.0  0.75067  0.36755  0.64817  1.0000
  N   N152      1.0  0.76649  0.46721  0.67156  1.0000
  C   C1499     1.0  0.90970  0.46472  0.56112  1.0000
  H   H2404     1.0  0.73714  0.49274  0.67333  1.0000
  C   C1500     1.0  0.89161  0.45926  0.58582  1.0000
  H   H2405     1.0  0.79858  0.47539  0.66011  1.0000
  H   H2406     1.0  0.89156  0.57153  0.64900  1.0000
  C   C1501     1.0  0.74198  0.37851  0.63955  1.0000
  S   S606      1.0  0.98700  0.39737  0.53041  1.0000
  C   C1502     1.0  0.75315  0.48865  0.66596  1.0000
  C   C1503     1.0  0.51264  0.48154  0.56537  1.0000
  C   C1504     1.0  0.77253  0.46888  0.68548  1.0000
  H   H2407     1.0  0.78346  0.46215  0.65050  1.0000
  H   H2408     1.0  0.91420  0.36679  0.52268  1.0000
  H   H2409     1.0  0.74828  0.44708  0.66312  1.0000
  H   H2410     1.0  0.78279  0.45303  0.68993  1.0000
  H   H2411     1.0  0.87160  0.55202  0.65141  1.0000
  Fe  Fe306     1.0  0.80224  0.63713  0.67095  1.0000
  H   H2412     1.0  0.95019  0.32629  0.59336  1.0000
  S   S607      1.0  0.96688  0.38892  0.56508  1.0000
  H   H2413     1.0  0.66243  0.64599  0.65539  1.0000
  H   H2414     1.0  0.50872  0.58675  0.59768  1.0000
  H   H2415     1.0  0.93062  0.46966  0.59060  1.0000
  H   H2416     1.0  0.49833  0.47039  0.50111  1.0000
  H   H2417     1.0  0.96568  0.62511  0.64188  1.0000
  C   C1505     1.0  0.97499  0.62977  0.66770  1.0000
  C   C1506     1.0  0.55064  0.32437  0.52136  1.0000
  C   C1507     1.0  0.55705  0.31807  0.58145  1.0000
  H   H2418     1.0  0.97806  0.62349  0.67891  1.0000
  C   C1508     1.0  0.98372  0.62410  0.64297  1.0000
  C   C1509     1.0  0.98012  0.59241  0.66190  1.0000
  H   H2419     1.0  0.97980  0.64691  0.66466  1.0000
  C   C1510     1.0  0.49735  0.51259  0.48597  1.0000
  C   C1511     1.0  0.92713  0.39629  0.48130  1.0000
  H   H2420     1.0  0.50421  0.49937  0.47914  1.0000
  H   H2421     1.0  0.91845  0.41342  0.48032  1.0000
  H   H2422     1.0  0.99065  0.49421  0.54844  1.0000
  H   H2423     1.0  0.56372  0.38230  0.47779  1.0000
  Fe  Fe307     1.0  0.58565  0.50581  0.94047  1.0000
  S   S608      1.0  0.56164  0.53152  0.92879  1.0000
  S   S609      1.0  0.57352  0.49403  0.96385  1.0000
  Fe  Fe308     1.0  0.61820  0.49848  0.91298  1.0000
  S   S610      1.0  0.59635  0.52353  0.89900  1.0000
  S   S611      1.0  0.64896  0.47634  0.90319  1.0000
  Fe  Fe309     1.0  0.59255  0.54472  0.91617  1.0000
  S   S612      1.0  0.59331  0.58204  0.91139  1.0000
  Fe  Fe310     1.0  0.56724  0.50817  0.91276  1.0000
  S   S613      1.0  0.53507  0.50389  0.90585  1.0000
  S   S614      1.0  0.61660  0.52089  0.92932  1.0000
  S   S615      1.0  0.58908  0.48130  0.92531  1.0000
  C   C1512     1.0  0.98408  0.60365  0.89299  1.0000
  S   S616      1.0  0.97919  0.57714  0.89091  1.0000
  H   H2424     1.0  0.87458  0.32164  0.78439  1.0000
  H   H2425     1.0  0.87399  0.33857  0.85733  1.0000
  C   C1513     1.0  0.86461  0.32071  0.77596  1.0000
  S   S617      1.0  0.83095  0.34685  0.81478  1.0000
  H   H2426     1.0  0.50423  0.45941  0.97291  1.0000
  N   N153      1.0  0.85778  0.34313  0.76783  1.0000
  H   H2427     1.0  0.52370  0.48281  0.93501  1.0000
  S   S618      1.0  0.81268  0.61619  0.83233  1.0000
  H   H2428     1.0  0.99117  0.61481  0.87025  1.0000
  Fe  Fe311     1.0  0.96219  0.55671  0.91073  1.0000
  S   S619      1.0  0.92934  0.57170  0.92259  1.0000
  H   H2429     1.0  0.58563  0.59380  0.94055  1.0000
  Fe  Fe312     1.0  0.96138  0.51095  0.92957  1.0000
  S   S620      1.0  0.92842  0.52269  0.94291  1.0000
  Fe  Fe313     1.0  0.91744  0.53933  0.92194  1.0000
  S   S621      1.0  0.88189  0.53825  0.91826  1.0000
  Fe  Fe314     1.0  0.94338  0.55365  0.94244  1.0000
  S   S622      1.0  0.94930  0.52550  0.90858  1.0000
  S   S623      1.0  0.97738  0.54081  0.93056  1.0000
  Fe  Fe315     1.0  0.77810  0.48056  0.88120  1.0000
  S   S624      1.0  0.80376  0.45016  0.88661  1.0000
  S   S625      1.0  0.74934  0.49723  0.89613  1.0000
  Fe  Fe316     1.0  0.80196  0.49111  0.85071  1.0000
  S   S626      1.0  0.82922  0.46113  0.85323  1.0000
  S   S627      1.0  0.80145  0.51612  0.83016  1.0000
  Fe  Fe317     1.0  0.80125  0.44205  0.86502  1.0000
  S   S628      1.0  0.79654  0.40608  0.86463  1.0000
  Fe  Fe318     1.0  0.82987  0.47128  0.87445  1.0000
  S   S629      1.0  0.86472  0.47169  0.87961  1.0000
  S   S630      1.0  0.77373  0.47125  0.86051  1.0000
  S   S631      1.0  0.80463  0.50241  0.87099  1.0000
  H   H2430     1.0  0.51115  0.44612  0.93603  1.0000
  C   C1514     1.0  0.87724  0.52034  0.90709  1.0000
  C   C1515     1.0  0.85500  0.51755  0.90658  1.0000
  C   C1516     1.0  0.85086  0.50252  0.89831  1.0000
  C   C1517     1.0  0.86899  0.49017  0.89052  1.0000
  C   C1518     1.0  0.89121  0.49298  0.89104  1.0000
  C   C1519     1.0  0.89531  0.50817  0.89917  1.0000
  H   H2431     1.0  0.84092  0.52690  0.91271  1.0000
  H   H2432     1.0  0.83366  0.50044  0.89800  1.0000
  H   H2433     1.0  0.90531  0.48355  0.88497  1.0000
  H   H2434     1.0  0.91246  0.51038  0.89936  1.0000
  C   C1520     1.0  0.54802  0.60696  0.95882  1.0000
  C   C1521     1.0  0.83025  0.61452  0.73254  1.0000
  C   C1522     1.0  0.93134  0.63815  0.88635  1.0000
  C   C1523     1.0  0.86048  0.51558  0.84318  1.0000
  N   N154      1.0  0.52713  0.34276  0.89405  1.0000
  C   C1524     1.0  0.80932  0.58866  0.83132  1.0000
  C   C1525     1.0  0.81619  0.57967  0.81860  1.0000
  C   C1526     1.0  0.81333  0.55751  0.81827  1.0000
  C   C1527     1.0  0.80398  0.54415  0.83069  1.0000
  C   C1528     1.0  0.79701  0.55326  0.84335  1.0000
  C   C1529     1.0  0.79951  0.57548  0.84363  1.0000
  H   H2435     1.0  0.82374  0.58973  0.80903  1.0000
  H   H2436     1.0  0.81871  0.55059  0.80841  1.0000
  H   H2437     1.0  0.78956  0.54329  0.85294  1.0000
  H   H2438     1.0  0.79412  0.58237  0.85349  1.0000
  S   S632      1.0  0.94169  0.57207  0.96103  1.0000
  H   H2439     1.0  0.90280  0.52183  0.84472  1.0000
  H   H2440     1.0  0.88947  0.50879  0.86166  1.0000
  C   C1530     1.0  0.85754  0.62206  0.75155  1.0000
  C   C1531     1.0  0.83461  0.62059  0.75628  1.0000
  C   C1532     1.0  0.82109  0.61672  0.74684  1.0000
  H   H2441     1.0  0.82736  0.62205  0.76727  1.0000
  H   H2442     1.0  0.80346  0.61520  0.75065  1.0000
  C   C1533     1.0  0.82075  0.36340  0.82855  1.0000
  C   C1534     1.0  0.82768  0.38447  0.82716  1.0000
  C   C1535     1.0  0.82025  0.39791  0.83802  1.0000
  C   C1536     1.0  0.80581  0.39034  0.85039  1.0000
  C   C1537     1.0  0.79884  0.36928  0.85175  1.0000
  C   C1538     1.0  0.80617  0.35591  0.84087  1.0000
  H   H2443     1.0  0.83891  0.39044  0.81765  1.0000
  H   H2444     1.0  0.82574  0.41406  0.83685  1.0000
  H   H2445     1.0  0.78752  0.36341  0.86124  1.0000
  H   H2446     1.0  0.80037  0.33993  0.84195  1.0000
  C   C1539     1.0  0.53065  0.47638  0.90583  1.0000
  C   C1540     1.0  0.54863  0.35202  0.88962  1.0000
  H   H2447     1.0  0.50389  0.48774  0.95078  1.0000
  C   C1541     1.0  0.52236  0.43267  0.90603  1.0000
  C   C1542     1.0  0.54454  0.43681  0.90523  1.0000
  C   C1543     1.0  0.54866  0.45862  0.90530  1.0000
  H   H2448     1.0  0.88451  0.62077  0.73354  1.0000
  H   H2449     1.0  0.84345  0.52090  0.83993  1.0000
  H   H2450     1.0  0.55854  0.42317  0.90462  1.0000
  H   H2451     1.0  0.56580  0.46177  0.90463  1.0000
  H   H2452     1.0  0.55174  0.44831  0.93528  1.0000
  H   H2453     1.0  0.91696  0.62856  0.89048  1.0000
  H   H2454     1.0  0.85414  0.33874  0.87371  1.0000
  C   C1544     1.0  0.67681  0.48179  0.90209  1.0000
  C   C1545     1.0  0.68113  0.50080  0.90658  1.0000
  C   C1546     1.0  0.70354  0.50491  0.90514  1.0000
  C   C1547     1.0  0.72174  0.49019  0.89911  1.0000
  C   C1548     1.0  0.71745  0.47098  0.89485  1.0000
  C   C1549     1.0  0.69505  0.46688  0.89629  1.0000
  H   H2455     1.0  0.66720  0.51235  0.91110  1.0000
  H   H2456     1.0  0.70675  0.51973  0.90853  1.0000
  H   H2457     1.0  0.73136  0.45942  0.89030  1.0000
  H   H2458     1.0  0.69182  0.45208  0.89288  1.0000
  C   C1550     1.0  0.57100  0.59749  0.90264  1.0000
  C   C1551     1.0  0.55402  0.58678  0.90015  1.0000
  C   C1552     1.0  0.53544  0.59941  0.89412  1.0000
  C   C1553     1.0  0.53385  0.62280  0.89036  1.0000
  H   H2459     1.0  0.84830  0.52210  0.87020  1.0000
  C   C1554     1.0  0.56949  0.62090  0.89885  1.0000
  H   H2460     1.0  0.55506  0.56874  0.90297  1.0000
  H   H2461     1.0  0.52224  0.59100  0.89239  1.0000
  H   H2462     1.0  0.58132  0.56525  0.94254  1.0000
  H   H2463     1.0  0.58260  0.62927  0.90077  1.0000
  H   H2464     1.0  0.53421  0.32098  0.87809  1.0000
  H   H2465     1.0  0.51887  0.35755  0.91325  1.0000
  C   C1555     1.0  0.54201  0.56865  0.96048  1.0000
  H   H2466     1.0  0.54690  0.36910  0.89251  1.0000
  H   H2467     1.0  0.69536  0.53571  0.87566  1.0000
  H   H2468     1.0  0.76379  0.62710  0.82798  1.0000
  C   C1556     1.0  0.70495  0.53733  0.84672  1.0000
  N   N155      1.0  0.91041  0.46031  0.93460  1.0000
  C   C1557     1.0  0.88968  0.47719  0.93517  1.0000
  C   C1558     1.0  0.92035  0.45816  0.94780  1.0000
  C   C1559     1.0  0.92699  0.46748  0.92202  1.0000
  C   C1560     1.0  0.90466  0.43842  0.93338  1.0000
  H   H2469     1.0  0.88141  0.47883  0.92555  1.0000
  H   H2470     1.0  0.89352  0.49412  0.93562  1.0000
  H   H2471     1.0  0.87701  0.47273  0.94475  1.0000
  C   C1561     1.0  0.50853  0.47223  0.90649  1.0000
  H   H2472     1.0  0.88922  0.35422  0.76809  1.0000
  H   H2473     1.0  0.92489  0.47443  0.94899  1.0000
  H   H2474     1.0  0.94325  0.45567  0.92158  1.0000
  H   H2475     1.0  0.93112  0.48427  0.92239  1.0000
  H   H2476     1.0  0.92045  0.46854  0.91182  1.0000
  H   H2477     1.0  0.91998  0.42536  0.93284  1.0000
  H   H2478     1.0  0.89710  0.43957  0.92350  1.0000
  H   H2479     1.0  0.89217  0.43248  0.94269  1.0000
  H   H2480     1.0  0.90843  0.45271  0.95756  1.0000
  C   C1562     1.0  0.98593  0.63091  0.90791  1.0000
  C   C1563     1.0  0.87824  0.35269  0.76036  1.0000
  H   H2481     1.0  0.70586  0.55556  0.84337  1.0000
  H   H2482     1.0  0.84476  0.31987  0.84116  1.0000
  C   C1564     1.0  0.84447  0.35800  0.77783  1.0000
  H   H2483     1.0  0.50663  0.37503  0.88981  1.0000
  H   H2484     1.0  0.54603  0.55320  0.95542  1.0000
  H   H2485     1.0  0.89466  0.53720  0.85955  1.0000
  H   H2486     1.0  0.84438  0.34755  0.85676  1.0000
  H   H2487     1.0  0.93629  0.44588  0.94762  1.0000
  H   H2488     1.0  0.51648  0.60715  0.85999  1.0000
  C   C1565     1.0  0.85014  0.53766  0.86233  1.0000
  H   H2489     1.0  0.51397  0.63628  0.85270  1.0000
  H   H2490     1.0  0.52326  0.57299  0.96268  1.0000
  H   H2491     1.0  0.85498  0.54998  0.86792  1.0000
  H   H2492     1.0  0.72423  0.53149  0.87840  1.0000
  H   H2493     1.0  0.82771  0.33494  0.76259  1.0000
  H   H2494     1.0  0.88854  0.34191  0.75265  1.0000
  C   C1566     1.0  0.51061  0.61984  0.85099  1.0000
  H   H2495     1.0  0.58528  0.57628  0.95777  1.0000
  H   H2496     1.0  0.82913  0.35102  0.78390  1.0000
  H   H2497     1.0  0.78079  0.63700  0.81159  1.0000
  C   C1567     1.0  0.52175  0.45233  0.96846  1.0000
  C   C1568     1.0  0.52060  0.34096  0.90976  1.0000
  C   C1569     1.0  0.84381  0.34107  0.75722  1.0000
  C   C1570     1.0  0.99135  0.64664  0.89570  1.0000
  H   H2498     1.0  0.94058  0.63740  0.89546  1.0000
  H   H2499     1.0  0.53347  0.48881  0.95014  1.0000
  H   H2500     1.0  0.55582  0.62134  0.95215  1.0000
  C   C1571     1.0  0.98977  0.61928  0.88077  1.0000
  H   H2501     1.0  0.52952  0.61275  0.96146  1.0000
  C   C1572     1.0  0.98202  0.60955  0.90658  1.0000
  S   S633      1.0  0.82480  0.64874  0.79266  1.0000
  H   H2502     1.0  0.55198  0.42753  0.95115  1.0000
  S   S634      1.0  0.97394  0.47398  0.93596  1.0000
  H   H2503     1.0  0.51118  0.42582  0.95213  1.0000
  H   H2504     1.0  0.59880  0.53048  0.96286  1.0000
  C   C1573     1.0  0.54853  0.44587  0.94721  1.0000
  H   H2505     1.0  0.83868  0.37501  0.77213  1.0000
  S   S635      1.0  0.87094  0.62379  0.80588  1.0000
  H   H2506     1.0  0.52140  0.61584  0.84085  1.0000
  N   N156      1.0  0.86703  0.53301  0.84965  1.0000
  H   H2507     1.0  0.55049  0.60763  0.93055  1.0000
  C   C1574     1.0  0.86796  0.55384  0.83908  1.0000
  C   C1575     1.0  0.57725  0.58037  0.94794  1.0000
  H   H2508     1.0  0.98455  0.63529  0.91847  1.0000
  H   H2509     1.0  0.50409  0.33469  0.91347  1.0000
  H   H2510     1.0  0.87375  0.36974  0.75423  1.0000
  H   H2511     1.0  0.88057  0.55105  0.82936  1.0000
  H   H2512     1.0  0.85129  0.56024  0.83547  1.0000
  H   H2513     1.0  0.87258  0.56744  0.84368  1.0000
  H   H2514     1.0  0.83314  0.54452  0.85934  1.0000
  H   H2515     1.0  0.68694  0.53553  0.85105  1.0000
  C   C1576     1.0  0.50437  0.45040  0.90672  1.0000
  Fe  Fe319     1.0  0.86166  0.63990  0.78424  1.0000
  H   H2516     1.0  0.87264  0.51179  0.83347  1.0000
  H   H2517     1.0  0.54623  0.57926  0.93169  1.0000
  H   H2518     1.0  0.85980  0.49958  0.85086  1.0000
  C   C1577     1.0  0.88951  0.52491  0.85407  1.0000
  H   H2519     1.0  0.72957  0.49470  0.86934  1.0000
  C   C1578     1.0  0.85675  0.33516  0.86255  1.0000
  H   H2520     1.0  0.54815  0.56424  0.97101  1.0000
  H   H2521     1.0  0.97762  0.59759  0.91607  1.0000
  C   C1579     1.0  0.71794  0.50297  0.86163  1.0000
  C   C1580     1.0  0.52134  0.47979  0.94692  1.0000
  C   C1581     1.0  0.85314  0.61625  0.72775  1.0000
  H   H2522     1.0  0.56116  0.45398  0.95069  1.0000
  S   S636      1.0  0.50985  0.63785  0.88321  1.0000
  C   C1582     1.0  0.50923  0.35789  0.88691  1.0000
  H   H2523     1.0  0.49457  0.48595  0.90685  1.0000
  C   C1583     1.0  0.50895  0.44416  0.94793  1.0000
  H   H2524     1.0  0.71319  0.55665  0.86755  1.0000
  S   S637      1.0  0.87511  0.62731  0.76299  1.0000
  C   C1584     1.0  0.55100  0.63355  0.89264  1.0000
  C   C1585     1.0  0.71279  0.53829  0.87030  1.0000
  Fe  Fe320     1.0  0.83464  0.63545  0.81439  1.0000
  H   H2525     1.0  0.85451  0.36010  0.78595  1.0000
  N   N157      1.0  0.71981  0.52708  0.85750  1.0000
  H   H2526     1.0  0.81770  0.31970  0.86397  1.0000
  H   H2527     1.0  0.75512  0.52225  0.85941  1.0000
  H   H2528     1.0  0.70985  0.52922  0.83694  1.0000
  H   H2529     1.0  0.70051  0.50025  0.86693  1.0000
  H   H2530     1.0  0.74974  0.52086  0.84193  1.0000
  C   C1586     1.0  0.74358  0.52959  0.85140  1.0000
  S   S638      1.0  0.51733  0.40531  0.90609  1.0000
  N   N158      1.0  0.55253  0.58737  0.95126  1.0000
  C   C1587     1.0  0.86675  0.61977  0.73727  1.0000
  C   C1588     1.0  0.54288  0.59357  0.93777  1.0000
  H   H2531     1.0  0.52424  0.59889  0.93975  1.0000
  H   H2532     1.0  0.72252  0.49396  0.85224  1.0000
  H   H2533     1.0  0.74571  0.54753  0.84795  1.0000
  H   H2534     1.0  0.51356  0.35965  0.87504  1.0000
  N   N159      1.0  0.52512  0.45553  0.95263  1.0000
  H   H2535     1.0  0.83918  0.35749  0.75044  1.0000
  H   H2536     1.0  0.56249  0.34123  0.89493  1.0000
  C   C1589     1.0  0.57351  0.51201  0.97611  1.0000
  H   H2537     1.0  0.55509  0.60284  0.96907  1.0000
  H   H2538     1.0  0.55413  0.35357  0.87782  1.0000
  H   H2539     1.0  0.94306  0.62901  0.87828  1.0000
  C   C1590     1.0  0.53002  0.32025  0.88992  1.0000
  H   H2540     1.0  0.53372  0.46076  0.97234  1.0000
  H   H2541     1.0  0.85283  0.32897  0.74997  1.0000
  H   H2542     1.0  0.75131  0.63621  0.81188  1.0000
  H   H2543     1.0  0.92276  0.53106  0.97325  1.0000
  H   H2544     1.0  0.53343  0.32927  0.91552  1.0000
  H   H2545     1.0  0.52447  0.43420  0.97314  1.0000
  C   C1591     1.0  0.76362  0.63983  0.81805  1.0000
  C   C1592     1.0  0.58749  0.52865  0.97297  1.0000
  H   H2546     1.0  0.49273  0.35157  0.89006  1.0000
  H   H2547     1.0  0.91256  0.80146  0.16271  1.0000
  C   C1593     1.0  0.61705  0.66535  0.22005  1.0000
  C   C1594     1.0  0.92742  0.79545  0.13557  1.0000
  S   S639      1.0  0.63964  0.69627  0.15969  1.0000
  H   H2548     1.0  0.61263  0.68075  0.22512  1.0000
  S   S640      1.0  0.73374  0.68044  0.19157  1.0000
  C   C1595     1.0  0.57545  0.67635  0.15055  1.0000
  H   H2549     1.0  0.74904  0.66245  0.16582  1.0000
  S   S641      1.0  0.54931  0.70580  0.10860  1.0000
  H   H2550     1.0  0.57224  0.70818  0.13654  1.0000
  S   S642      1.0  0.55059  0.66850  0.14744  1.0000
  Fe  Fe321     1.0  0.51946  0.73356  0.11033  1.0000
  H   H2551     1.0  0.59971  0.94978  0.99838  1.0000
  Fe  Fe322     1.0  0.53233  0.68956  0.12984  1.0000
  H   H2552     1.0  0.81115  0.87114  0.18295  1.0000
  H   H2553     1.0  0.92590  0.77728  0.13722  1.0000
  H   H2554     1.0  0.61076  0.92899  0.01223  1.0000
  N   N160      1.0  0.79504  0.85358  0.20268  1.0000
  H   H2555     1.0  0.76639  0.66207  0.14866  1.0000
  Fe  Fe323     1.0  0.81057  0.76990  0.16789  1.0000
  S   S643      1.0  0.79971  0.80089  0.17821  1.0000
  S   S644      1.0  0.78754  0.75758  0.15611  1.0000
  Fe  Fe324     1.0  0.85770  0.76191  0.17560  1.0000
  S   S645      1.0  0.85072  0.79171  0.18704  1.0000
  S   S646      1.0  0.89229  0.74082  0.17515  1.0000
  Fe  Fe325     1.0  0.81717  0.78065  0.19618  1.0000
  S   S647      1.0  0.55486  0.97656  0.07875  1.0000
  Fe  Fe326     1.0  0.83390  0.80992  0.16832  1.0000
  S   S648      1.0  0.84350  0.84461  0.16015  1.0000
  S   S649      1.0  0.82562  0.74889  0.18659  1.0000
  S   S650      1.0  0.84340  0.78087  0.15615  1.0000
  C   C1596     1.0  0.56699  0.97169  0.01563  1.0000
  C   C1597     1.0  0.50648  0.81051  0.08868  1.0000
  C   C1598     1.0  0.51182  0.77656  0.07833  1.0000
  S   S651      1.0  0.49873  0.71792  0.09919  1.0000
  C   C1599     1.0  0.90946  0.68759  0.10704  1.0000
  C   C1600     1.0  0.58173  0.94395  0.03433  1.0000
  S   S652      1.0  0.77651  0.92453  0.13071  1.0000
  H   H2556     1.0  0.73891  0.91354  0.12056  1.0000
  S   S653      1.0  0.70160  0.66817  0.16080  1.0000
  S   S654      1.0  0.94877  0.72615  0.11448  1.0000
  H   H2557     1.0  0.57306  0.68280  0.22097  1.0000
  S   S655      1.0  0.51151  0.67088  0.12048  1.0000
  Fe  Fe327     1.0  0.52685  0.68868  0.09937  1.0000
  H   H2558     1.0  0.91365  0.70233  0.11070  1.0000
  H   H2559     1.0  0.51622  0.75852  0.07918  1.0000
  H   H2560     1.0  0.83135  0.84549  0.20093  1.0000
  H   H2561     1.0  0.89963  0.67814  0.11642  1.0000
  H   H2562     1.0  0.77597  0.82766  0.20184  1.0000
  H   H2563     1.0  0.72329  0.96619  0.09597  1.0000
  H   H2564     1.0  0.92185  0.83520  0.14497  1.0000
  C   C1601     1.0  0.82474  0.86664  0.15194  1.0000
  C   C1602     1.0  0.80421  0.86293  0.14894  1.0000
  C   C1603     1.0  0.78961  0.88087  0.14247  1.0000
  C   C1604     1.0  0.79534  0.90265  0.13900  1.0000
  C   C1605     1.0  0.81578  0.90640  0.14213  1.0000
  C   C1606     1.0  0.83044  0.88842  0.14856  1.0000
  H   H2565     1.0  0.79967  0.84621  0.15145  1.0000
  H   H2566     1.0  0.77386  0.87783  0.14003  1.0000
  H   H2567     1.0  0.82037  0.92309  0.13949  1.0000
  H   H2568     1.0  0.84628  0.89144  0.15087  1.0000
  C   C1607     1.0  0.90761  0.73556  0.15838  1.0000
  C   C1608     1.0  0.93067  0.72653  0.15725  1.0000
  C   C1609     1.0  0.94347  0.72320  0.14385  1.0000
  C   C1610     1.0  0.93323  0.72903  0.13153  1.0000
  C   C1611     1.0  0.91012  0.73780  0.13268  1.0000
  C   C1612     1.0  0.89732  0.74093  0.14607  1.0000
  H   H2569     1.0  0.93872  0.72226  0.16675  1.0000
  H   H2570     1.0  0.96130  0.71640  0.14305  1.0000
  H   H2571     1.0  0.90210  0.74222  0.12318  1.0000
  H   H2572     1.0  0.87948  0.74734  0.14687  1.0000
  C   C1613     1.0  0.60525  0.97000  0.01970  1.0000
  C   C1614     1.0  0.52693  0.93729  0.05937  1.0000
  C   C1615     1.0  0.53687  0.94517  0.06921  1.0000
  C   C1616     1.0  0.81580  0.83764  0.20515  1.0000
  H   H2573     1.0  0.89615  0.78311  0.15821  1.0000
  C   C1617     1.0  0.70915  0.95644  0.10060  1.0000
  H   H2574     1.0  0.52410  0.92000  0.06119  1.0000
  H   H2575     1.0  0.54135  0.93398  0.07873  1.0000
  H   H2576     1.0  0.50700  0.78134  0.05622  1.0000
  H   H2577     1.0  0.70084  0.96659  0.12740  1.0000
  C   C1618     1.0  0.94283  0.68671  0.08899  1.0000
  S   S656      1.0  0.51136  0.94183  0.03360  1.0000
  Fe  Fe328     1.0  0.98460  0.70746  0.11280  1.0000
  C   C1619     1.0  0.50122  0.81299  0.06395  1.0000
  C   C1620     1.0  0.50663  0.78951  0.06532  1.0000
  H   H2578     1.0  0.75904  0.85334  0.20625  1.0000
  C   C1621     1.0  0.74695  0.70304  0.18167  1.0000
  C   C1622     1.0  0.74500  0.71096  0.16726  1.0000
  C   C1623     1.0  0.75741  0.72784  0.15948  1.0000
  C   C1624     1.0  0.77156  0.73697  0.16612  1.0000
  C   C1625     1.0  0.77303  0.72930  0.18059  1.0000
  C   C1626     1.0  0.76094  0.71228  0.18829  1.0000
  H   H2579     1.0  0.73410  0.70408  0.16209  1.0000
  H   H2580     1.0  0.75604  0.73387  0.14831  1.0000
  H   H2581     1.0  0.78345  0.73649  0.18589  1.0000
  H   H2582     1.0  0.76245  0.70625  0.19944  1.0000
  C   C1627     1.0  0.61512  0.68823  0.15622  1.0000
  H   H2583     1.0  0.59442  0.68637  0.18950  1.0000
  H   H2584     1.0  0.65547  0.67992  0.13069  1.0000
  H   H2585     1.0  0.94135  0.79692  0.14123  1.0000
  C   C1628     1.0  0.58231  0.69682  0.14383  1.0000
  C   C1629     1.0  0.60203  0.70280  0.14675  1.0000
  H   H2586     1.0  0.56777  0.93412  0.03491  1.0000
  C   C1630     1.0  0.60536  0.68536  0.19777  1.0000
  H   H2587     1.0  0.56727  0.66757  0.20815  1.0000
  H   H2588     1.0  0.60711  0.71881  0.14167  1.0000
  C   C1631     1.0  0.60843  0.66764  0.16279  1.0000
  Fe  Fe329     1.0  0.78208  0.96099  0.12537  1.0000
  C   C1632     1.0  0.52571  0.97382  0.04452  1.0000
  N   N161      1.0  0.58736  0.95656  0.01978  1.0000
  C   C1633     1.0  0.88801  0.80675  0.13297  1.0000
  N   N162      1.0  0.93020  0.67334  0.10127  1.0000
  C   C1634     1.0  0.77512  0.84185  0.20774  1.0000
  H   H2589     1.0  0.69345  0.96870  0.10258  1.0000
  H   H2590     1.0  0.88335  0.81095  0.16088  1.0000
  S   S657      1.0  0.49532  0.82862  0.04730  1.0000
  H   H2591     1.0  0.62362  0.65988  0.13104  1.0000
  H   H2592     1.0  0.55275  0.96233  0.01601  1.0000
  H   H2593     1.0  0.74976  0.93462  0.10681  1.0000
  H   H2594     1.0  0.59967  0.98202  0.02748  1.0000
  S   S658      1.0  0.79748  0.78347  0.21831  1.0000
  H   H2595     1.0  0.94911  0.67917  0.11664  1.0000
  H   H2596     1.0  0.93277  0.80073  0.12389  1.0000
  C   C1635     1.0  0.89921  0.80080  0.15636  1.0000
  S   S659      1.0  0.77022  0.98104  0.10523  1.0000
  H   H2597     1.0  0.93583  0.65448  0.12191  1.0000
  H   H2598     1.0  0.67866  0.93993  0.12202  1.0000
  C   C1636     1.0  0.59538  0.94069  0.00946  1.0000
  H   H2599     1.0  0.93275  0.69289  0.08011  1.0000
  S   S660      1.0  0.53814  0.67303  0.07916  1.0000
  H   H2600     1.0  0.87143  0.81651  0.13693  1.0000
  C   C1637     1.0  0.58854  0.66179  0.16004  1.0000
  H   H2601     1.0  0.78081  0.87442  0.18482  1.0000
  S   S661      1.0  0.67170  0.67156  0.19248  1.0000
  H   H2602     1.0  0.59659  0.93206  0.03773  1.0000
  Fe  Fe330     1.0  0.66495  0.67038  0.17054  1.0000
  S   S662      1.0  0.51816  0.77131  0.10657  1.0000
  H   H2603     1.0  0.91379  0.83957  0.12746  1.0000
  H   H2604     1.0  0.78161  0.66808  0.17644  1.0000
  H   H2605     1.0  0.95890  0.67669  0.08463  1.0000
  C   C1638     1.0  0.52152  0.95159  0.04693  1.0000
  H   H2606     1.0  0.88556  0.78891  0.13412  1.0000
  H   H2607     1.0  0.67848  0.65484  0.10605  1.0000
  N   N163      1.0  0.60259  0.66574  0.20918  1.0000
  H   H2608     1.0  0.57610  0.95548  0.04239  1.0000
  H   H2609     1.0  0.70686  0.94705  0.09226  1.0000
  Fe  Fe331     1.0  0.70844  0.66567  0.18318  1.0000
  H   H2610     1.0  0.66453  0.65879  0.14482  1.0000
  C   C1639     1.0  0.79619  0.86235  0.18719  1.0000
  H   H2611     1.0  0.58213  0.93040  0.00928  1.0000
  C   C1640     1.0  0.73495  0.92552  0.11079  1.0000
  S   S663      1.0  0.50438  0.71873  0.13250  1.0000
  N   N164      1.0  0.71386  0.94125  0.11393  1.0000
  H   H2612     1.0  0.62102  0.95927  0.02267  1.0000
  C   C1641     1.0  0.69485  0.92848  0.11964  1.0000
  H   H2613     1.0  0.69244  0.91815  0.11183  1.0000
  C   C1642     1.0  0.53598  0.98157  0.05420  1.0000
  H   H2614     1.0  0.89257  0.84340  0.14287  1.0000
  C   C1643     1.0  0.90869  0.83283  0.13896  1.0000
  C   C1644     1.0  0.71648  0.95461  0.12466  1.0000
  H   H2615     1.0  0.73383  0.91549  0.10251  1.0000
  H   H2616     1.0  0.81714  0.82291  0.19973  1.0000
  C   C1645     1.0  0.94455  0.66503  0.11257  1.0000
  H   H2617     1.0  0.77414  0.83443  0.21930  1.0000
  H   H2618     1.0  0.79780  0.84859  0.18084  1.0000
  H   H2619     1.0  0.73031  0.96484  0.12061  1.0000
  C   C1646     1.0  0.51192  0.78704  0.09002  1.0000
  H   H2620     1.0  0.50664  0.81874  0.09766  1.0000
  H   H2621     1.0  0.49646  0.66494  0.06939  1.0000
  H   H2622     1.0  0.94739  0.70166  0.09217  1.0000
  H   H2623     1.0  0.89823  0.69420  0.09879  1.0000
  C   C1647     1.0  0.54175  0.96724  0.06653  1.0000
  H   H2624     1.0  0.60102  0.70141  0.20216  1.0000
  C   C1648     1.0  0.66609  0.66322  0.13298  1.0000
  N   N165      1.0  0.90586  0.80896  0.14095  1.0000
  H   H2625     1.0  0.52341  0.95370  0.98737  1.0000
  H   H2626     1.0  0.68407  0.66521  0.12881  1.0000
  H   H2627     1.0  0.89232  0.81299  0.12132  1.0000
  S   S664      1.0  0.81263  0.97822  0.12275  1.0000
  C   C1649     1.0  0.57864  0.66726  0.21606  1.0000
  H   H2628     1.0  0.72080  0.94368  0.13471  1.0000
  H   H2629     1.0  0.62309  0.68454  0.19206  1.0000
  H   H2630     1.0  0.69786  0.91693  0.12974  1.0000
  C   C1650     1.0  0.50096  0.82344  0.07573  1.0000
  H   H2631     1.0  0.81583  0.83099  0.21675  1.0000
  C   C1651     1.0  0.79264  0.65729  0.16899  1.0000
  H   H2632     1.0  0.79820  0.66866  0.15898  1.0000
  C   C1652     1.0  0.51215  0.96490  0.98024  1.0000
  H   H2633     1.0  0.84514  0.78097  0.22072  1.0000
  H   H2634     1.0  0.61847  0.65631  0.17004  1.0000
  H   H2635     1.0  0.63525  0.66407  0.21528  1.0000
  H   H2636     1.0  0.64976  0.66906  0.10821  1.0000
  H   H2637     1.0  0.79219  0.86632  0.22238  1.0000
  H   H2638     1.0  0.60961  0.98022  0.00899  1.0000
  H   H2639     1.0  0.50286  0.92252  0.98618  1.0000
  H   H2640     1.0  0.96067  0.65473  0.10852  1.0000
  H   H2641     1.0  0.57598  0.65265  0.22468  1.0000
  H   H2642     1.0  0.57045  0.98114  0.00458  1.0000
  H   H2643     1.0  0.49411  0.66739  0.09525  1.0000
  C   C1653     1.0  0.76099  0.65138  0.15900  1.0000
  H   H2644     1.0  0.91355  0.65960  0.08773  1.0000
  H   H2645     1.0  0.80803  0.88144  0.20711  1.0000
  C   C1654     1.0  0.79313  0.87239  0.21065  1.0000
  H   H2646     1.0  0.49694  0.84150  0.07477  1.0000
  C   C1655     1.0  0.66077  0.65277  0.11102  1.0000
  C   C1656     1.0  0.92402  0.65404  0.09647  1.0000
  H   H2647     1.0  0.77770  0.88482  0.20896  1.0000
  H   H2648     1.0  0.51081  0.98232  0.98247  1.0000
  H   H2649     1.0  0.97110  0.98222  0.99844  1.0000
  H   H2650     1.0  0.69448  0.65901  0.24115  1.0000
  H   H2651     1.0  0.78038  0.78461  0.24782  1.0000
  H   H2652     1.0  0.88960  0.66571  0.38447  1.0000
  S   S665      1.0  0.96782  0.72277  0.38108  1.0000
  H   H2653     1.0  0.59779  0.88796  0.46929  1.0000
  C   C1657     1.0  0.79465  0.69985  0.26757  1.0000
  H   H2654     1.0  0.69330  0.68105  0.35943  1.0000
  S   S666      1.0  0.93872  0.74356  0.34840  1.0000
  H   H2655     1.0  0.89770  0.72369  0.29006  1.0000
  H   H2656     1.0  0.86523  0.94738  0.38211  1.0000
  C   C1658     1.0  0.88857  0.73938  0.29393  1.0000
  Fe  Fe332     1.0  0.79089  0.73459  0.30623  1.0000
  S   S667      1.0  0.82769  0.72754  0.29712  1.0000
  S   S668      1.0  0.76512  0.71997  0.29804  1.0000
  Fe  Fe333     1.0  0.79844  0.77017  0.32222  1.0000
  S   S669      1.0  0.83577  0.76656  0.31413  1.0000
  S   S670      1.0  0.78018  0.79198  0.33856  1.0000
  Fe  Fe334     1.0  0.82620  0.76485  0.29292  1.0000
  S   S671      1.0  0.84602  0.77903  0.27191  1.0000
  Fe  Fe335     1.0  0.83453  0.72956  0.31899  1.0000
  S   S672      1.0  0.86245  0.70439  0.32824  1.0000
  S   S673      1.0  0.78885  0.77208  0.30052  1.0000
  S   S674      1.0  0.79764  0.73302  0.32859  1.0000
  Fe  Fe336     1.0  0.96112  0.84349  0.43421  1.0000
  S   S675      1.0  0.97540  0.86832  0.41613  1.0000
  C   C1659     1.0  0.73167  0.66639  0.30852  1.0000
  Fe  Fe337     1.0  0.93889  0.88025  0.45234  1.0000
  S   S676      1.0  0.95072  0.90809  0.43541  1.0000
  H   H2657     1.0  0.87306  0.71570  0.38454  1.0000
  Fe  Fe338     1.0  0.94112  0.88943  0.41991  1.0000
  S   S677      1.0  0.92328  0.90359  0.40073  1.0000
  H   H2658     1.0  0.92538  0.69352  0.40132  1.0000
  S   S678      1.0  0.92649  0.86366  0.43702  1.0000
  Fe  Fe339     1.0  0.79561  0.90302  0.35871  1.0000
  S   S679      1.0  0.78143  0.88527  0.38022  1.0000
  S   S680      1.0  0.80928  0.88572  0.33937  1.0000
  Fe  Fe340     1.0  0.78617  0.94920  0.36841  1.0000
  S   S681      1.0  0.77062  0.93461  0.39051  1.0000
  Fe  Fe341     1.0  0.80035  0.90698  0.38872  1.0000
  S   S682      1.0  0.81916  0.89540  0.40763  1.0000
  Fe  Fe342     1.0  0.75309  0.91446  0.37992  1.0000
  S   S683      1.0  0.71532  0.91245  0.38244  1.0000
  S   S684      1.0  0.81676  0.92254  0.36721  1.0000
  S   S685      1.0  0.76643  0.93128  0.35781  1.0000
  Fe  Fe343     1.0  0.61472  0.85735  0.43155  1.0000
  S   S686      1.0  0.59918  0.82830  0.44526  1.0000
  S   S687      1.0  0.65254  0.85565  0.43110  1.0000
  Fe  Fe344     1.0  0.56935  0.88029  0.42281  1.0000
  S   S688      1.0  0.55054  0.85270  0.43528  1.0000
  S   S689      1.0  0.55295  0.91180  0.41017  1.0000
  Fe  Fe345     1.0  0.57051  0.85423  0.45258  1.0000
  H   H2659     1.0  0.53039  0.95735  0.40497  1.0000
  Fe  Fe346     1.0  0.58084  0.82919  0.42673  1.0000
  S   S690      1.0  0.58442  0.79731  0.41697  1.0000
  S   S691      1.0  0.58748  0.88323  0.44049  1.0000
  S   S692      1.0  0.59812  0.85691  0.41269  1.0000
  S   S693      1.0  0.96034  0.80660  0.43437  1.0000
  S   S694      1.0  0.51663  0.73051  0.36979  1.0000
  H   H2660     1.0  0.88155  0.73481  0.30540  1.0000
  Fe  Fe347     1.0  0.53608  0.69570  0.37322  1.0000
  S   S695      1.0  0.57100  0.69359  0.35984  1.0000
  S   S696      1.0  0.52738  0.69223  0.39719  1.0000
  C   C1660     1.0  0.53164  0.92750  0.42088  1.0000
  C   C1661     1.0  0.52261  0.91784  0.43462  1.0000
  C   C1662     1.0  0.77109  0.73511  0.26099  1.0000
  H   H2661     1.0  0.91769  0.74200  0.31108  1.0000
  C   C1663     1.0  0.69133  0.66333  0.35955  1.0000
  C   C1664     1.0  0.52320  0.94973  0.41552  1.0000
  H   H2662     1.0  0.52911  0.90077  0.43888  1.0000
  H   H2663     1.0  0.49931  0.97933  0.41965  1.0000
  H   H2664     1.0  0.88370  0.70306  0.36870  1.0000
  C   C1665     1.0  0.56128  0.78530  0.41433  1.0000
  C   C1666     1.0  0.53889  0.79305  0.41989  1.0000
  C   C1667     1.0  0.52107  0.78271  0.41783  1.0000
  C   C1668     1.0  0.52538  0.76473  0.41004  1.0000
  C   C1669     1.0  0.54776  0.75704  0.40442  1.0000
  C   C1670     1.0  0.56560  0.76721  0.40662  1.0000
  H   H2665     1.0  0.53529  0.80691  0.42586  1.0000
  S   S697      1.0  0.98215  0.68594  0.35888  1.0000
  H   H2666     1.0  0.55134  0.74320  0.39843  1.0000
  H   H2667     1.0  0.58285  0.76105  0.40229  1.0000
  H   H2668     1.0  0.92074  0.74833  0.27153  1.0000
  H   H2669     1.0  0.51682  0.73494  0.33792  1.0000
  H   H2670     1.0  0.68772  0.66611  0.33180  1.0000
  C   C1671     1.0  0.73800  0.65588  0.32170  1.0000
  N   N166      1.0  0.90523  0.69420  0.38500  1.0000
  C   C1672     1.0  0.69830  0.89670  0.39629  1.0000
  C   C1673     1.0  0.70728  0.88192  0.40751  1.0000
  C   C1674     1.0  0.69304  0.86957  0.41816  1.0000
  C   C1675     1.0  0.66973  0.87191  0.41769  1.0000
  C   C1676     1.0  0.66076  0.88661  0.40644  1.0000
  C   C1677     1.0  0.67501  0.89888  0.39579  1.0000
  H   H2671     1.0  0.72518  0.88006  0.40801  1.0000
  H   H2672     1.0  0.70016  0.85819  0.42679  1.0000
  H   H2673     1.0  0.64285  0.88865  0.40596  1.0000
  H   H2674     1.0  0.66788  0.91036  0.38719  1.0000
  C   C1678     1.0  0.89461  0.90033  0.40274  1.0000
  C   C1679     1.0  0.88444  0.90228  0.39051  1.0000
  C   C1680     1.0  0.86140  0.90040  0.39186  1.0000
  C   C1681     1.0  0.84836  0.89673  0.40544  1.0000
  C   C1682     1.0  0.85865  0.89445  0.41764  1.0000
  C   C1683     1.0  0.88168  0.89627  0.41631  1.0000
  H   H2675     1.0  0.89438  0.90538  0.37998  1.0000
  H   H2676     1.0  0.85378  0.90178  0.38238  1.0000
  H   H2677     1.0  0.84867  0.89161  0.42819  1.0000
  H   H2678     1.0  0.88921  0.89514  0.42580  1.0000
  C   C1684     1.0  0.79025  0.81699  0.33892  1.0000
  C   C1685     1.0  0.78370  0.82712  0.35124  1.0000
  C   C1686     1.0  0.79030  0.84772  0.35166  1.0000
  C   C1687     1.0  0.80312  0.85860  0.33967  1.0000
  C   C1688     1.0  0.80998  0.84831  0.32738  1.0000
  C   C1689     1.0  0.80368  0.82746  0.32702  1.0000
  H   H2679     1.0  0.77349  0.81897  0.36051  1.0000
  H   H2680     1.0  0.78518  0.85526  0.36121  1.0000
  H   H2681     1.0  0.81992  0.85664  0.31804  1.0000
  H   H2682     1.0  0.80875  0.81977  0.31745  1.0000
  C   C1690     1.0  0.84556  0.78058  0.24321  1.0000
  C   C1691     1.0  0.83264  0.78053  0.25692  1.0000
  C   C1692     1.0  0.80915  0.78179  0.25852  1.0000
  H   H2683     1.0  0.86375  0.77961  0.24190  1.0000
  H   H2684     1.0  0.79903  0.78206  0.26899  1.0000
  C   C1693     1.0  0.51945  0.71851  0.31363  1.0000
  S   S698      1.0  0.91537  0.88568  0.47296  1.0000
  H   H2685     1.0  0.86563  0.94544  0.40094  1.0000
  H   H2686     1.0  0.93470  0.75992  0.29836  1.0000
  H   H2687     1.0  0.91024  0.80381  0.39975  1.0000
  H   H2688     1.0  0.95987  0.80894  0.38951  1.0000
  H   H2689     1.0  0.65749  0.67330  0.33388  1.0000
  H   H2690     1.0  0.87569  0.78376  0.29267  1.0000
  H   H2691     1.0  0.51038  0.69544  0.33989  1.0000
  H   H2692     1.0  0.91929  0.72050  0.39057  1.0000
  C   C1694     1.0  0.91804  0.73214  0.34269  1.0000
  C   C1695     1.0  0.92163  0.71000  0.34009  1.0000
  C   C1696     1.0  0.90435  0.70148  0.33584  1.0000
  C   C1697     1.0  0.88356  0.71513  0.33404  1.0000
  C   C1698     1.0  0.88006  0.73725  0.33664  1.0000
  C   C1699     1.0  0.89727  0.74574  0.34088  1.0000
  H   H2693     1.0  0.93776  0.69953  0.34122  1.0000
  H   H2694     1.0  0.90719  0.68438  0.33375  1.0000
  H   H2695     1.0  0.86396  0.74775  0.33561  1.0000
  H   H2696     1.0  0.89436  0.76288  0.34293  1.0000
  S   S699      1.0  0.97235  0.85770  0.45117  1.0000
  Fe  Fe348     1.0  0.50567  0.72579  0.39351  1.0000
  H   H2697     1.0  0.87393  0.74548  0.28807  1.0000
  H   H2698     1.0  0.97794  0.74664  0.40485  1.0000
  H   H2699     1.0  0.96543  0.81070  0.46433  1.0000
  C   C1700     1.0  0.74007  0.68609  0.30142  1.0000
  C   C1701     1.0  0.75494  0.69532  0.30740  1.0000
  C   C1702     1.0  0.76130  0.68481  0.32058  1.0000
  C   C1703     1.0  0.75275  0.66517  0.32774  1.0000
  H   H2700     1.0  0.77923  0.74364  0.26751  1.0000
  H   H2701     1.0  0.73506  0.69415  0.29124  1.0000
  H   H2702     1.0  0.77279  0.69181  0.32525  1.0000
  H   H2703     1.0  0.75598  0.72916  0.26811  1.0000
  C   C1704     1.0  0.53422  0.73001  0.33226  1.0000
  H   H2704     1.0  0.64895  0.66432  0.37378  1.0000
  H   H2705     1.0  0.92279  0.77596  0.27450  1.0000
  C   C1705     1.0  0.79861  0.78325  0.24651  1.0000
  H   H2706     1.0  0.81566  0.73371  0.25200  1.0000
  H   H2707     1.0  0.67439  0.69177  0.33798  1.0000
  C   C1706     1.0  0.58397  0.66919  0.35270  1.0000
  C   C1707     1.0  0.60293  0.67048  0.34195  1.0000
  H   H2708     1.0  0.80306  0.70777  0.27427  1.0000
  H   H2709     1.0  0.60882  0.68646  0.33792  1.0000
  N   N167      1.0  0.53506  0.71140  0.32430  1.0000
  H   H2710     1.0  0.52410  0.73346  0.30587  1.0000
  H   H2711     1.0  0.56434  0.71993  0.30930  1.0000
  H   H2712     1.0  0.90379  0.83565  0.37958  1.0000
  Fe  Fe349     1.0  0.96900  0.72277  0.35761  1.0000
  C   C1708     1.0  0.97560  0.79357  0.41982  1.0000
  C   C1709     1.0  0.97034  0.77310  0.41783  1.0000
  N   N168      1.0  0.65407  0.80738  0.40296  1.0000
  C   C1710     1.0  0.63646  0.80672  0.39436  1.0000
  C   C1711     1.0  0.66188  0.82952  0.39913  1.0000
  C   C1712     1.0  0.67341  0.78955  0.40007  1.0000
  C   C1713     1.0  0.64449  0.80373  0.41834  1.0000
  H   H2713     1.0  0.62981  0.79041  0.39721  1.0000
  H   H2714     1.0  0.64301  0.80925  0.38268  1.0000
  H   H2715     1.0  0.62160  0.81999  0.39629  1.0000
  H   H2716     1.0  0.67511  0.83062  0.40549  1.0000
  H   H2717     1.0  0.66912  0.83302  0.38759  1.0000
  H   H2718     1.0  0.64775  0.84336  0.40136  1.0000
  H   H2719     1.0  0.66806  0.77263  0.40288  1.0000
  H   H2720     1.0  0.68693  0.78960  0.40646  1.0000
  H   H2721     1.0  0.68111  0.79179  0.38856  1.0000
  H   H2722     1.0  0.65709  0.80450  0.42523  1.0000
  H   H2723     1.0  0.63818  0.78729  0.42166  1.0000
  H   H2724     1.0  0.62983  0.81683  0.42077  1.0000
  S   S700      1.0  0.55242  0.85762  0.47503  1.0000
  H   H2725     1.0  0.69079  0.65437  0.37076  1.0000
  H   H2726     1.0  0.78015  0.69286  0.27480  1.0000
  H   H2727     1.0  0.62904  0.65235  0.32816  1.0000
  H   H2728     1.0  0.52297  0.70953  0.42630  1.0000
  C   C1714     1.0  0.51363  0.70976  0.43740  1.0000
  C   C1715     1.0  0.88872  0.71036  0.37721  1.0000
  H   H2729     1.0  0.90710  0.66174  0.39819  1.0000
  C   C1716     1.0  0.52807  0.69163  0.33436  1.0000
  H   H2730     1.0  0.80684  0.68552  0.26383  1.0000
  C   C1717     1.0  0.91138  0.76305  0.27645  1.0000
  H   H2731     1.0  0.51436  0.67093  0.42804  1.0000
  H   H2732     1.0  0.66718  0.87960  0.47487  1.0000
  H   H2733     1.0  0.65712  0.89061  0.45032  1.0000
  C   C1718     1.0  0.81152  0.78276  0.23287  1.0000
  C   C1719     1.0  0.89490  0.67421  0.39229  1.0000
  H   H2734     1.0  0.76027  0.69857  0.25387  1.0000
  H   H2735     1.0  0.90451  0.82358  0.41213  1.0000
  H   H2736     1.0  0.94691  0.79027  0.46712  1.0000
  H   H2737     1.0  0.57047  0.70014  0.32491  1.0000
  N   N169      1.0  0.90353  0.75657  0.29193  1.0000
  H   H2738     1.0  0.87965  0.67877  0.40017  1.0000
  N   N170      1.0  0.72904  0.88850  0.34387  1.0000
  C   C1720     1.0  0.71519  0.87587  0.33814  1.0000
  C   C1721     1.0  0.75018  0.89113  0.33370  1.0000
  C   C1722     1.0  0.73462  0.87605  0.35781  1.0000
  C   C1723     1.0  0.71620  0.91089  0.34588  1.0000
  H   H2739     1.0  0.72450  0.85890  0.33651  1.0000
  H   H2740     1.0  0.71069  0.88478  0.32762  1.0000
  H   H2741     1.0  0.69916  0.87352  0.34560  1.0000
  H   H2742     1.0  0.76133  0.90014  0.33782  1.0000
  H   H2743     1.0  0.76014  0.87456  0.33179  1.0000
  H   H2744     1.0  0.74675  0.90083  0.32313  1.0000
  H   H2745     1.0  0.74599  0.88457  0.36210  1.0000
  H   H2746     1.0  0.74332  0.85871  0.35687  1.0000
  H   H2747     1.0  0.71919  0.87485  0.36602  1.0000
  H   H2748     1.0  0.72619  0.92079  0.35024  1.0000
  H   H2749     1.0  0.70033  0.90956  0.35370  1.0000
  H   H2750     1.0  0.71165  0.92085  0.33562  1.0000
  N   N171      1.0  0.92881  0.83167  0.39341  1.0000
  C   C1724     1.0  0.93901  0.84605  0.40032  1.0000
  H   H2751     1.0  0.80548  0.96674  0.39681  1.0000
  C   C1725     1.0  0.94667  0.81981  0.38362  1.0000
  C   C1726     1.0  0.98197  0.76249  0.40623  1.0000
  H   H2752     1.0  0.94722  0.85897  0.39233  1.0000
  H   H2753     1.0  0.95209  0.83602  0.40659  1.0000
  H   H2754     1.0  0.92602  0.85515  0.40782  1.0000
  H   H2755     1.0  0.90153  0.79001  0.29644  1.0000
  H   H2756     1.0  0.82434  0.94545  0.38837  1.0000
  H   H2757     1.0  0.80147  0.73730  0.23675  1.0000
  H   H2758     1.0  0.93964  0.80882  0.37813  1.0000
  N   N172      1.0  0.78694  0.71630  0.25544  1.0000
  H   H2759     1.0  0.95541  0.83185  0.37521  1.0000
  H   H2760     1.0  0.50383  0.78878  0.42223  1.0000
  N   N173      1.0  0.67089  0.66200  0.35365  1.0000
  C   C1727     1.0  0.91157  0.84580  0.38524  1.0000
  C   C1728     1.0  0.92537  0.68725  0.37473  1.0000
  H   H2761     1.0  0.70699  0.65558  0.35315  1.0000
  H   H2762     1.0  0.95726  0.76538  0.42530  1.0000
  H   H2763     1.0  0.61568  0.65052  0.22869  1.0000
  H   H2764     1.0  0.89751  0.70972  0.40397  1.0000
  H   H2765     1.0  0.82395  0.94581  0.40690  1.0000
  H   H2766     1.0  0.63482  0.67154  0.35843  1.0000
  H   H2767     1.0  0.54564  0.72522  0.34051  1.0000
  H   H2768     1.0  0.91902  0.85903  0.37709  1.0000
  H   H2769     1.0  0.78674  0.69096  0.24276  1.0000
  C   C1729     1.0  0.91801  0.81511  0.40455  1.0000
  C   C1730     1.0  0.91211  0.70494  0.39571  1.0000
  H   H2770     1.0  0.81915  0.71127  0.24179  1.0000
  H   H2771     1.0  0.52615  0.70392  0.44491  1.0000
  S   S701      1.0  0.97129  0.65975  0.39936  1.0000
  N   N174      1.0  0.63373  0.88278  0.46964  1.0000
  H   H2772     1.0  0.93324  0.73229  0.29512  1.0000
  C   C1731     1.0  0.83504  0.78142  0.23121  1.0000
  H   H2773     1.0  0.49773  0.92237  0.45334  1.0000
  H   H2774     1.0  0.93055  0.80444  0.41104  1.0000
  H   H2775     1.0  0.89681  0.77024  0.27060  1.0000
  H   H2776     1.0  0.87697  0.96780  0.38839  1.0000
  S   S702      1.0  0.50766  0.67854  0.37084  1.0000
  Fe  Fe350     1.0  0.98375  0.88459  0.43326  1.0000
  C   C1732     1.0  0.61011  0.89058  0.47585  1.0000
  H   H2777     1.0  0.84114  0.97444  0.41422  1.0000
  H   H2778     1.0  0.89598  0.72579  0.37181  1.0000
  C   C1733     1.0  0.92319  0.74731  0.29941  1.0000
  C   C1734     1.0  0.89088  0.77655  0.29793  1.0000
  C   C1735     1.0  0.55844  0.70544  0.31702  1.0000
  H   H2779     1.0  0.50168  0.72308  0.31895  1.0000
  H   H2780     1.0  0.89766  0.85459  0.39243  1.0000
  H   H2781     1.0  0.93352  0.70197  0.36904  1.0000
  H   H2782     1.0  0.65115  0.69074  0.36215  1.0000
  Fe  Fe351     1.0  0.98391  0.68669  0.38184  1.0000
  H   H2783     1.0  0.52884  0.67713  0.32878  1.0000
  H   H2784     1.0  0.55983  0.69127  0.31102  1.0000
  C   C1736     1.0  0.63946  0.89621  0.45536  1.0000
  H   H2785     1.0  0.65359  0.85266  0.46300  1.0000
  C   C1737     1.0  0.50560  0.96215  0.42380  1.0000
  H   H2786     1.0  0.81865  0.97571  0.34072  1.0000
  H   H2787     1.0  0.88491  0.77232  0.30964  1.0000
  H   H2788     1.0  0.93830  0.67518  0.38020  1.0000
  H   H2789     1.0  0.76926  0.71724  0.23787  1.0000
  H   H2790     1.0  0.51950  0.70485  0.30747  1.0000
  H   H2791     1.0  0.93193  0.84011  0.46774  1.0000
  C   C1738     1.0  0.49620  0.95222  0.43739  1.0000
  H   H2792     1.0  0.62821  0.89450  0.44785  1.0000
  H   H2793     1.0  0.92093  0.67902  0.36647  1.0000
  S   S703      1.0  0.50240  0.75191  0.40804  1.0000
  H   H2794     1.0  0.91352  0.81948  0.47079  1.0000
  H   H2795     1.0  0.51733  0.66506  0.44668  1.0000
  C   C1739     1.0  0.80668  0.72499  0.24609  1.0000
  C   C1740     1.0  0.67264  0.67384  0.33869  1.0000
  H   H2796     1.0  0.83769  0.97636  0.37003  1.0000
  H   H2797     1.0  0.76504  0.74793  0.25214  1.0000
  H   H2798     1.0  0.53943  0.74521  0.32502  1.0000
  N   N175      1.0  0.84054  0.97142  0.39242  1.0000
  C   C1741     1.0  0.65059  0.67264  0.36239  1.0000
  H   H2799     1.0  0.50675  0.72770  0.43817  1.0000
  C   C1742     1.0  0.82279  0.95678  0.39634  1.0000
  H   H2800     1.0  0.53917  0.68606  0.34275  1.0000
  C   C1743     1.0  0.50518  0.67224  0.43907  1.0000
  H   H2801     1.0  0.63782  0.91438  0.45597  1.0000
  C   C1744     1.0  0.50485  0.93013  0.44281  1.0000
  Fe  Fe352     1.0  0.49676  0.67821  0.39456  1.0000
  C   C1745     1.0  0.95618  0.79911  0.47277  1.0000
  C   C1746     1.0  0.77530  0.70527  0.24711  1.0000
  C   C1747     1.0  0.86308  0.95742  0.39091  1.0000
  H   H2802     1.0  0.75774  0.65707  0.33792  1.0000
  H   H2803     1.0  0.72034  0.65932  0.30375  1.0000
  C   C1748     1.0  0.63621  0.85886  0.46818  1.0000
  H   H2804     1.0  0.62422  0.85615  0.46143  1.0000
  C   C1749     1.0  0.99262  0.80334  0.41015  1.0000
  N   N176      1.0  0.49536  0.69575  0.44053  1.0000
  H   H2805     1.0  0.49497  0.69035  0.46330  1.0000
  H   H2806     1.0  0.99251  0.93499  0.42126  1.0000
  C   C1750     1.0  0.92367  0.82780  0.47614  1.0000
  C   C1751     1.0  0.61451  0.65119  0.33648  1.0000
  Fe  Fe353     1.0  0.93889  0.87920  0.55017  1.0000
  S   S704      1.0  0.95900  0.88831  0.56511  1.0000
  S   S705      1.0  0.95883  0.86830  0.52975  1.0000
  Fe  Fe354     1.0  0.89373  0.88960  0.56991  1.0000
  S   S706      1.0  0.91045  0.89996  0.58592  1.0000
  S   S707      1.0  0.85597  0.88819  0.57363  1.0000
  Fe  Fe355     1.0  0.93131  0.91778  0.56692  1.0000
  S   S708      1.0  0.93528  0.95439  0.56395  1.0000
  Fe  Fe356     1.0  0.93629  0.86933  0.58253  1.0000
  S   S709      1.0  0.94477  0.84537  0.60241  1.0000
  S   S710      1.0  0.91253  0.90975  0.55092  1.0000
  S   S711      1.0  0.91837  0.85794  0.56748  1.0000
  Fe  Fe357     1.0  0.56357  0.90048  0.56044  1.0000
  S   S712      1.0  0.60030  0.88983  0.55175  1.0000
  S   S713      1.0  0.54806  0.93590  0.55221  1.0000
  Fe  Fe358     1.0  0.55853  0.85436  0.57766  1.0000
  S   S714      1.0  0.59428  0.84024  0.57005  1.0000
  S   S715      1.0  0.53625  0.83371  0.59448  1.0000
  Fe  Fe359     1.0  0.60300  0.87223  0.57423  1.0000
  S   S716      1.0  0.63191  0.86665  0.58704  1.0000
  Fe  Fe360     1.0  0.58824  0.85900  0.54835  1.0000
  S   S717      1.0  0.60235  0.84124  0.52918  1.0000
  S   S718      1.0  0.56734  0.88538  0.58323  1.0000
  S   S719      1.0  0.55139  0.87059  0.55562  1.0000
  Fe  Fe361     1.0  0.64048  0.76327  0.70272  1.0000
  S   S720      1.0  0.67581  0.75453  0.69120  1.0000
  Fe  Fe362     1.0  0.61872  0.75733  0.67714  1.0000
  S   S721      1.0  0.65252  0.74694  0.66457  1.0000
  S   S722      1.0  0.58897  0.76195  0.66511  1.0000
  Fe  Fe363     1.0  0.66191  0.72689  0.68510  1.0000
  S   S723      1.0  0.67758  0.69061  0.68934  1.0000
  Fe  Fe364     1.0  0.66282  0.77578  0.67179  1.0000
  S   S724      1.0  0.68139  0.79689  0.65321  1.0000
  S   S725      1.0  0.62705  0.73457  0.69718  1.0000
  S   S726      1.0  0.62847  0.78723  0.68369  1.0000
  Fe  Fe365     1.0  0.51819  0.71011  0.60499  1.0000
  S   S727      1.0  0.54134  0.67771  0.61042  1.0000
  S   S728      1.0  0.53180  0.73476  0.58615  1.0000
  H   H2807     1.0  0.60556  0.88135  0.48685  1.0000
  Fe  Fe366     1.0  0.53141  0.68427  0.63312  1.0000
  S   S729      1.0  0.55443  0.67873  0.65003  1.0000
  S   S730      1.0  0.51034  0.71757  0.62744  1.0000
  H   H2808     1.0  0.61148  0.88696  0.63081  1.0000
  Fe  Fe367     1.0  0.71090  0.91607  0.64256  1.0000
  S   S731      1.0  0.68243  0.94315  0.63696  1.0000
  S   S732      1.0  0.70322  0.88977  0.66185  1.0000
  Fe  Fe368     1.0  0.74631  0.94032  0.62164  1.0000
  S   S733      1.0  0.72017  0.96944  0.61449  1.0000
  S   S734      1.0  0.78405  0.94264  0.61651  1.0000
  Fe  Fe369     1.0  0.70512  0.96769  0.63777  1.0000
  H   H2809     1.0  0.67509  0.89533  0.64016  1.0000
  Fe  Fe370     1.0  0.69945  0.94242  0.61425  1.0000
  S   S735      1.0  0.67616  0.94701  0.59767  1.0000
  S   S736      1.0  0.73250  0.94053  0.64496  1.0000
  S   S737      1.0  0.72669  0.91333  0.61972  1.0000
  H   H2810     1.0  0.89533  0.88601  0.50238  1.0000
  S   S738      1.0  0.95076  0.69051  0.66051  1.0000
  C   C1752     1.0  0.51136  0.96895  0.55403  1.0000
  C   C1753     1.0  0.70615  0.68455  0.68180  1.0000
  H   H2811     1.0  0.55531  0.81770  0.51559  1.0000
  C   C1754     1.0  0.58748  0.83898  0.49016  1.0000
  H   H2812     1.0  0.66900  0.69126  0.72311  1.0000
  H   H2813     1.0  0.86383  0.95644  0.57685  1.0000
  C   C1755     1.0  0.58007  0.73849  0.66088  1.0000
  C   C1756     1.0  0.56687  0.74173  0.64992  1.0000
  C   C1757     1.0  0.55933  0.72349  0.64631  1.0000
  C   C1758     1.0  0.56444  0.70189  0.65388  1.0000
  C   C1759     1.0  0.57743  0.69865  0.66495  1.0000
  C   C1760     1.0  0.58543  0.71685  0.66836  1.0000
  H   H2814     1.0  0.56244  0.75841  0.64418  1.0000
  H   H2815     1.0  0.54952  0.72621  0.63769  1.0000
  H   H2816     1.0  0.54270  0.87757  0.50051  1.0000
  H   H2817     1.0  0.59522  0.71429  0.67700  1.0000
  C   C1761     1.0  0.68890  0.82182  0.65604  1.0000
  C   C1762     1.0  0.68345  0.82862  0.66950  1.0000
  C   C1763     1.0  0.68872  0.84918  0.67127  1.0000
  C   C1764     1.0  0.69920  0.86308  0.65959  1.0000
  C   C1765     1.0  0.70508  0.85604  0.64621  1.0000
  C   C1766     1.0  0.69988  0.83545  0.64444  1.0000
  H   H2818     1.0  0.67505  0.81812  0.67849  1.0000
  H   H2819     1.0  0.68427  0.85456  0.68166  1.0000
  H   H2820     1.0  0.71347  0.86653  0.63721  1.0000
  H   H2821     1.0  0.70425  0.83013  0.63404  1.0000
  H   H2822     1.0  0.66053  0.66084  0.63757  1.0000
  H   H2823     1.0  0.67435  0.87995  0.62616  1.0000
  C   C1767     1.0  0.52124  0.94774  0.56027  1.0000
  H   H2824     1.0  0.63519  0.65549  0.64978  1.0000
  H   H2825     1.0  0.67413  0.70273  0.65683  1.0000
  C   C1768     1.0  0.96737  0.81214  0.58690  1.0000
  C   C1769     1.0  0.62938  0.88907  0.62657  1.0000
  Fe  Fe371     1.0  0.98187  0.69602  0.64390  1.0000
  H   H2826     1.0  0.54115  0.81968  0.55477  1.0000
  C   C1770     1.0  0.58914  0.84725  0.51378  1.0000
  C   C1771     1.0  0.56930  0.86271  0.51298  1.0000
  C   C1772     1.0  0.59823  0.83545  0.50232  1.0000
  H   H2827     1.0  0.56223  0.87198  0.52172  1.0000
  H   H2828     1.0  0.61348  0.82331  0.50296  1.0000
  C   C1773     1.0  0.64512  0.88928  0.58856  1.0000
  C   C1774     1.0  0.66559  0.88475  0.59409  1.0000
  C   C1775     1.0  0.67566  0.90233  0.59652  1.0000
  C   C1776     1.0  0.66512  0.92457  0.59366  1.0000
  C   C1777     1.0  0.64498  0.92914  0.58775  1.0000
  C   C1778     1.0  0.63498  0.91156  0.58522  1.0000
  H   H2829     1.0  0.67366  0.86755  0.59657  1.0000
  H   H2830     1.0  0.69151  0.89868  0.60070  1.0000
  H   H2831     1.0  0.63689  0.94633  0.58532  1.0000
  H   H2832     1.0  0.61925  0.91525  0.58090  1.0000
  C   C1779     1.0  0.53597  0.80580  0.59256  1.0000
  C   C1780     1.0  0.55129  0.79559  0.58207  1.0000
  C   C1781     1.0  0.55043  0.77341  0.58062  1.0000
  C   C1782     1.0  0.53418  0.76140  0.58952  1.0000
  C   C1783     1.0  0.51934  0.77136  0.60030  1.0000
  C   C1784     1.0  0.52029  0.79350  0.60183  1.0000
  H   H2833     1.0  0.56379  0.80476  0.57512  1.0000
  H   H2834     1.0  0.56227  0.76544  0.57255  1.0000
  H   H2835     1.0  0.64779  0.90327  0.48054  1.0000
  N   N177      1.0  0.65117  0.68150  0.65412  1.0000
  H   H2836     1.0  0.51011  0.71092  0.69031  1.0000
  C   C1785     1.0  0.71831  0.66323  0.68569  1.0000
  H   H2837     1.0  0.54741  0.79053  0.51691  1.0000
  C   C1786     1.0  0.97057  0.94488  0.57960  1.0000
  C   C1787     1.0  0.65238  0.66000  0.64898  1.0000
  C   C1788     1.0  0.83632  0.90210  0.58637  1.0000
  C   C1789     1.0  0.81317  0.90097  0.58753  1.0000
  C   C1790     1.0  0.79692  0.91295  0.59692  1.0000
  C   C1791     1.0  0.80375  0.92626  0.60515  1.0000
  C   C1792     1.0  0.82693  0.92718  0.60411  1.0000
  C   C1793     1.0  0.84316  0.91504  0.59485  1.0000
  H   H2838     1.0  0.80768  0.89103  0.58101  1.0000
  H   H2839     1.0  0.77911  0.91212  0.59762  1.0000
  H   H2840     1.0  0.83236  0.93736  0.61050  1.0000
  H   H2841     1.0  0.86090  0.91594  0.59422  1.0000
  C   C1794     1.0  0.95856  0.81800  0.60042  1.0000
  N   N178      1.0  0.94060  0.81142  0.48341  1.0000
  C   C1795     1.0  0.63762  0.69959  0.64539  1.0000
  C   C1796     1.0  0.71679  0.70065  0.67191  1.0000
  H   H2842     1.0  0.65127  0.87057  0.65751  1.0000
  H   H2843     1.0  0.63733  0.87456  0.62099  1.0000
  C   C1797     1.0  0.70981  0.70410  0.71351  1.0000
  C   C1798     1.0  0.56738  0.85410  0.48951  1.0000
  C   C1799     1.0  0.55830  0.86589  0.50096  1.0000
  C   C1800     1.0  0.92758  0.88290  0.48856  1.0000
  C   C1801     1.0  0.95108  0.87934  0.48797  1.0000
  C   C1802     1.0  0.96047  0.87513  0.50069  1.0000
  C   C1803     1.0  0.94644  0.87511  0.51402  1.0000
  C   C1804     1.0  0.92292  0.87945  0.51459  1.0000
  C   C1805     1.0  0.91353  0.88317  0.50188  1.0000
  H   H2844     1.0  0.96911  0.78645  0.47783  1.0000
  H   H2845     1.0  0.97867  0.87195  0.50019  1.0000
  H   H2846     1.0  0.91200  0.87936  0.52484  1.0000
  H   H2847     1.0  0.62492  0.86626  0.65340  1.0000
  H   H2848     1.0  0.87199  0.93139  0.56893  1.0000
  H   H2849     1.0  0.96656  0.92798  0.58247  1.0000
  C   C1806     1.0  0.50972  0.93664  0.57279  1.0000
  H   H2850     1.0  0.50591  0.68204  0.69570  1.0000
  H   H2851     1.0  0.98581  0.78595  0.57521  1.0000
  C   C1807     1.0  0.97876  0.79029  0.58570  1.0000
  H   H2852     1.0  0.49799  0.73261  0.66797  1.0000
  H   H2853     1.0  0.58164  0.80159  0.53252  1.0000
  H   H2854     1.0  0.82544  0.95884  0.57186  1.0000
  S   S739      1.0  0.77994  0.66772  0.66138  1.0000
  C   C1808     1.0  0.74114  0.65801  0.67972  1.0000
  H   H2855     1.0  0.98157  0.96314  0.52908  1.0000
  H   H2856     1.0  0.62024  0.69580  0.64582  1.0000
  H   H2857     1.0  0.53333  0.76970  0.54093  1.0000
  H   H2858     1.0  0.68499  0.67345  0.65931  1.0000
  H   H2859     1.0  0.53062  0.78235  0.55659  1.0000
  H   H2860     1.0  0.63571  0.71593  0.64927  1.0000
  N   N179      1.0  0.87522  0.83779  0.61073  1.0000
  C   C1809     1.0  0.88628  0.83007  0.59711  1.0000
  C   C1810     1.0  0.85055  0.83773  0.61244  1.0000
  C   C1811     1.0  0.87943  0.86083  0.61050  1.0000
  C   C1812     1.0  0.88469  0.82262  0.62277  1.0000
  H   H2861     1.0  0.90493  0.82996  0.59548  1.0000
  H   H2862     1.0  0.87956  0.84117  0.58777  1.0000
  H   H2863     1.0  0.88352  0.81270  0.59690  1.0000
  H   H2864     1.0  0.84160  0.84348  0.62260  1.0000
  H   H2865     1.0  0.84305  0.84920  0.60348  1.0000
  H   H2866     1.0  0.84667  0.82065  0.61255  1.0000
  H   H2867     1.0  0.87087  0.86748  0.62045  1.0000
  H   H2868     1.0  0.87314  0.87254  0.60128  1.0000
  H   H2869     1.0  0.89784  0.86146  0.60953  1.0000
  H   H2870     1.0  0.87688  0.82800  0.63323  1.0000
  H   H2871     1.0  0.90334  0.82239  0.62163  1.0000
  H   H2872     1.0  0.88188  0.80504  0.62327  1.0000
  N   N180      1.0  0.59118  0.80749  0.61967  1.0000
  C   C1813     1.0  0.58935  0.78875  0.61248  1.0000
  C   C1814     1.0  0.59562  0.82730  0.60875  1.0000
  C   C1815     1.0  0.60995  0.80073  0.62817  1.0000
  C   C1816     1.0  0.56970  0.81315  0.62925  1.0000
  H   H2873     1.0  0.60515  0.78414  0.60504  1.0000
  H   H2874     1.0  0.57524  0.79330  0.60606  1.0000
  H   H2875     1.0  0.58599  0.77349  0.62038  1.0000
  H   H2876     1.0  0.59761  0.84171  0.61368  1.0000
  H   H2877     1.0  0.61143  0.82359  0.60108  1.0000
  H   H2878     1.0  0.58150  0.83312  0.60239  1.0000
  H   H2879     1.0  0.61165  0.81436  0.63389  1.0000
  H   H2880     1.0  0.62646  0.79656  0.62125  1.0000
  H   H2881     1.0  0.60719  0.78571  0.63645  1.0000
  H   H2882     1.0  0.55509  0.81777  0.62319  1.0000
  H   H2883     1.0  0.57022  0.82761  0.63458  1.0000
  H   H2884     1.0  0.56611  0.79875  0.63785  1.0000
  H   H2885     1.0  0.57339  0.77428  0.53505  1.0000
  H   H2886     1.0  0.52320  0.83162  0.54155  1.0000
  H   H2887     1.0  0.75313  0.96908  0.65891  1.0000
  H   H2888     1.0  0.74764  0.70767  0.65793  1.0000
  H   H2889     1.0  0.50859  0.67174  0.66564  1.0000
  H   H2890     1.0  0.63021  0.92597  0.63764  1.0000
  H   H2891     1.0  0.87017  0.68843  0.72507  1.0000
  C   C1817     1.0  0.75173  0.67397  0.66963  1.0000
  H   H2892     1.0  0.70754  0.71717  0.66887  1.0000
  S   S740      1.0  0.50221  0.66495  0.63715  1.0000
  Fe  Fe372     1.0  0.50980  0.66168  0.61378  1.0000
  C   C1818     1.0  0.95767  0.96109  0.57087  1.0000
  C   C1819     1.0  0.56910  0.79086  0.53878  1.0000
  H   H2893     1.0  0.70546  0.71583  0.70376  1.0000
  C   C1820     1.0  0.50934  0.69526  0.68627  1.0000
  H   H2894     1.0  0.52652  0.68982  0.68041  1.0000
  C   C1821     1.0  0.54349  0.80616  0.52176  1.0000
  H   H2895     1.0  0.91169  0.67563  0.67910  1.0000
  H   H2896     1.0  0.96569  0.82451  0.57737  1.0000
  H   H2897     1.0  0.52608  0.81433  0.52005  1.0000
  H   H2898     1.0  0.51411  0.71139  0.65813  1.0000
  H   H2899     1.0  0.60737  0.90877  0.47663  1.0000
  H   H2900     1.0  0.66533  0.72030  0.71552  1.0000
  H   H2901     1.0  0.91699  0.80434  0.50263  1.0000
  H   H2902     1.0  0.51185  0.79348  0.54381  1.0000
  C   C1822     1.0  0.96297  0.98300  0.56729  1.0000
  H   H2903     1.0  0.65042  0.66646  0.67626  1.0000
  H   H2904     1.0  0.91883  0.78616  0.48968  1.0000
  H   H2905     1.0  0.97341  0.76759  0.62099  1.0000
  C   C1823     1.0  0.89978  0.65294  0.66852  1.0000
  H   H2906     1.0  0.57175  0.78822  0.55015  1.0000
  H   H2907     1.0  0.63878  0.69561  0.67345  1.0000
  H   H2908     1.0  0.58113  0.68202  0.67098  1.0000
  H   H2909     1.0  0.86544  0.93112  0.54441  1.0000
  H   H2910     1.0  0.61297  0.90796  0.65032  1.0000
  C   C1824     1.0  0.73948  0.69527  0.66573  1.0000
  H   H2911     1.0  0.88771  0.95431  0.56280  1.0000
  N   N181      1.0  0.64184  0.89065  0.63807  1.0000
  H   H2912     1.0  0.63998  0.91163  0.65393  1.0000
  H   H2913     1.0  0.50849  0.80127  0.61003  1.0000
  C   C1825     1.0  0.63067  0.90990  0.64533  1.0000
  C   C1826     1.0  0.93456  0.66346  0.64596  1.0000
  C   C1827     1.0  0.49736  0.71646  0.66450  1.0000
  C   C1828     1.0  0.98118  0.77412  0.59798  1.0000
  C   C1829     1.0  0.66524  0.89405  0.63179  1.0000
  C   C1830     1.0  0.64034  0.67955  0.66929  1.0000
  H   H2914     1.0  0.59434  0.82953  0.48149  1.0000
  C   C1831     1.0  0.83239  0.95334  0.56131  1.0000
  H   H2915     1.0  0.70919  0.68687  0.71162  1.0000
  H   H2916     1.0  0.64532  0.87549  0.49008  1.0000
  H   H2917     1.0  0.95404  0.80623  0.62318  1.0000
  H   H2918     1.0  0.65132  0.85491  0.64356  1.0000
  H   H2919     1.0  0.68307  0.68857  0.64155  1.0000
  H   H2920     1.0  0.68998  0.74536  0.71963  1.0000
  H   H2921     1.0  0.55275  0.83420  0.53784  1.0000
  H   H2922     1.0  0.50666  0.76228  0.60715  1.0000
  H   H2923     1.0  0.78128  0.97109  0.66119  1.0000
  H   H2924     1.0  0.83264  0.93485  0.56287  1.0000
  C   C1832     1.0  0.96088  0.80182  0.61268  1.0000
  C   C1833     1.0  0.77012  0.97232  0.65304  1.0000
  C   C1834     1.0  0.52967  0.78608  0.54492  1.0000
  C   C1835     1.0  0.98855  0.95065  0.58480  1.0000
  C   C1836     1.0  0.54042  0.82265  0.54307  1.0000
  C   C1837     1.0  0.97198  0.77992  0.61147  1.0000
  H   H2925     1.0  0.94235  0.83322  0.49818  1.0000
  H   H2926     1.0  0.96284  0.83547  0.48219  1.0000
  C   C1838     1.0  0.93167  0.67324  0.65830  1.0000
  H   H2927     1.0  0.76172  0.98224  0.62575  1.0000
  C   C1839     1.0  0.86447  0.94976  0.54246  1.0000
  H   H2928     1.0  0.83775  0.71932  0.72576  1.0000
  C   C1840     1.0  0.87033  0.94998  0.56656  1.0000
  H   H2929     1.0  0.64560  0.70197  0.63394  1.0000
  C   C1841     1.0  0.91407  0.66811  0.66951  1.0000
  N   N182      1.0  0.54566  0.80142  0.53714  1.0000
  C   C1842     1.0  0.92887  0.79545  0.49448  1.0000
  C   C1843     1.0  0.64228  0.86969  0.64858  1.0000
  H   H2930     1.0  0.66557  0.90989  0.62399  1.0000
  H   H2931     1.0  0.62930  0.90443  0.61826  1.0000
  H   H2932     1.0  0.66345  0.79671  0.71987  1.0000
  H   H2933     1.0  0.96643  0.81163  0.49600  1.0000
  N   N183      1.0  0.85527  0.95928  0.55576  1.0000
  H   H2934     1.0  0.88190  0.95355  0.53808  1.0000
  C   C1844     1.0  0.67432  0.68680  0.65284  1.0000
  H   H2935     1.0  0.96205  0.87955  0.47774  1.0000
  H   H2936     1.0  0.51723  0.92028  0.57765  1.0000
  H   H2937     1.0  0.94112  0.78288  0.50023  1.0000
  H   H2938     1.0  0.91177  0.83768  0.48378  1.0000
  H   H2939     1.0  0.50194  0.96621  0.48526  1.0000
  C   C1845     1.0  0.95362  0.82339  0.49025  1.0000
  H   H2940     1.0  0.72765  0.70499  0.71428  1.0000
  S   S741      1.0  0.98587  0.68944  0.62133  1.0000
  H   H2941     1.0  0.62305  0.67506  0.67073  1.0000
  H   H2942     1.0  0.77697  0.95849  0.64664  1.0000
  H   H2943     1.0  0.94777  0.66754  0.63717  1.0000
  H   H2944     1.0  0.85368  0.95652  0.53399  1.0000
  H   H2945     1.0  0.52022  0.97757  0.54434  1.0000
  C   C1846     1.0  0.64920  0.88541  0.47920  1.0000
  H   H2946     1.0  0.63289  0.84809  0.47879  1.0000
  C   C1847     1.0  0.67068  0.70827  0.72488  1.0000
  H   H2947     1.0  0.82025  0.96107  0.55377  1.0000
  H   H2948     1.0  0.71012  0.65072  0.69335  1.0000
  N   N184      1.0  0.69410  0.70957  0.72651  1.0000
  N   N185      1.0  0.75899  0.81569  0.82536  1.0000
  C   C1848     1.0  0.75854  0.67920  0.80794  1.0000
  H   H2949     1.0  0.94958  0.91489  0.91734  1.0000
  H   H2950     1.0  0.98685  0.77234  0.90423  1.0000
  C   C1849     1.0  0.94314  0.67374  0.87519  1.0000
  Fe  Fe373     1.0  0.76847  0.95627  0.88099  1.0000
  Fe  Fe374     1.0  0.73622  0.93735  0.86561  1.0000
  S   S742      1.0  0.72647  0.90414  0.86289  1.0000
  S   S743      1.0  0.74141  0.93452  0.88849  1.0000
  Fe  Fe375     1.0  0.68819  0.83136  0.81169  1.0000
  S   S744      1.0  0.68000  0.80443  0.83027  1.0000
  S   S745      1.0  0.70003  0.86463  0.81218  1.0000
  Fe  Fe376     1.0  0.68058  0.80293  0.78979  1.0000
  S   S746      1.0  0.67252  0.77371  0.80690  1.0000
  S   S747      1.0  0.68283  0.80590  0.76557  1.0000
  Fe  Fe377     1.0  0.65172  0.80022  0.81929  1.0000
  S   S748      1.0  0.61567  0.80057  0.83115  1.0000
  Fe  Fe378     1.0  0.70146  0.78042  0.81632  1.0000
  S   S749      1.0  0.72791  0.75447  0.82632  1.0000
  S   S750      1.0  0.65816  0.82919  0.80159  1.0000
  S   S751      1.0  0.71127  0.80746  0.79832  1.0000
  H   H2951     1.0  0.62816  0.91697  0.88533  1.0000
  H   H2952     1.0  0.79214  0.66508  0.82343  1.0000
  S   S752      1.0  0.84088  0.66877  0.81827  1.0000
  H   H2953     1.0  0.90160  0.69066  0.88681  1.0000
  H   H2954     1.0  0.51428  0.79775  0.91360  1.0000
  H   H2955     1.0  0.81814  0.68860  0.76170  1.0000
  H   H2956     1.0  0.73720  0.95270  0.91557  1.0000
  Fe  Fe379     1.0  0.83422  0.68104  0.79567  1.0000
  S   S753      1.0  0.81293  0.71228  0.78594  1.0000
  H   H2957     1.0  0.72204  0.66334  0.82408  1.0000
  S   S754      1.0  0.87068  0.67314  0.78597  1.0000
  H   H2958     1.0  0.77588  0.67827  0.80156  1.0000
  S   S755      1.0  0.63355  0.76238  0.72694  1.0000
  S   S756      1.0  0.96961  0.73253  0.87973  1.0000
  H   H2959     1.0  0.73228  0.81737  0.84343  1.0000
  Fe  Fe380     1.0  0.96875  0.72867  0.85693  1.0000
  S   S757      1.0  0.93484  0.73116  0.84931  1.0000
  H   H2960     1.0  0.75989  0.84342  0.83596  1.0000
  S   S758      1.0  0.52146  0.95794  0.94011  1.0000
  H   H2961     1.0  0.65830  0.71252  0.73442  1.0000
  C   C1850     1.0  0.76271  0.83897  0.82499  1.0000
  H   H2962     1.0  0.98048  0.86685  0.93954  1.0000
  H   H2963     1.0  0.73424  0.65406  0.84027  1.0000
  H   H2964     1.0  0.92052  0.88000  0.93383  1.0000
  S   S759      1.0  0.51275  0.68477  0.85012  1.0000
  Fe  Fe381     1.0  0.52760  0.71367  0.85418  1.0000
  S   S760      1.0  0.56048  0.71909  0.83922  1.0000
  S   S761      1.0  0.52460  0.70196  0.87808  1.0000
  H   H2965     1.0  0.65024  0.89381  0.88886  1.0000
  H   H2966     1.0  0.97301  0.85581  0.91153  1.0000
  H   H2967     1.0  0.77993  0.81171  0.80508  1.0000
  C   C1851     1.0  0.93741  0.67680  0.82977  1.0000
  H   H2968     1.0  0.75848  0.79377  0.81042  1.0000
  S   S762      1.0  0.94926  0.96994  0.90942  1.0000
  H   H2969     1.0  0.77303  0.80277  0.84474  1.0000
  C   C1852     1.0  0.93673  0.88096  0.93733  1.0000
  C   C1853     1.0  0.73518  0.66602  0.83000  1.0000
  C   C1854     1.0  0.86009  0.67828  0.73395  1.0000
  C   C1855     1.0  0.91564  0.67962  0.82603  1.0000
  C   C1856     1.0  0.81277  0.96951  0.89675  1.0000
  C   C1857     1.0  0.94360  0.69252  0.83673  1.0000
  C   C1858     1.0  0.92803  0.71128  0.84011  1.0000
  C   C1859     1.0  0.90621  0.71406  0.83644  1.0000
  C   C1860     1.0  0.90002  0.69835  0.82942  1.0000
  H   H2970     1.0  0.77547  0.65418  0.83971  1.0000
  H   H2971     1.0  0.96048  0.69020  0.83935  1.0000
  H   H2972     1.0  0.89403  0.72850  0.83900  1.0000
  H   H2973     1.0  0.88322  0.70073  0.82663  1.0000
  H   H2974     1.0  0.56607  0.80748  0.79471  1.0000
  H   H2975     1.0  0.75078  0.85131  0.81880  1.0000
  H   H2976     1.0  0.75787  0.94004  0.92695  1.0000
  S   S763      1.0  0.71068  0.96896  0.86618  1.0000
  H   H2977     1.0  0.75086  0.82318  0.80400  1.0000
  H   H2978     1.0  0.65040  0.96275  0.92941  1.0000
  H   H2979     1.0  0.93939  0.86703  0.94641  1.0000
  H   H2980     1.0  0.51572  0.83266  0.92331  1.0000
  H   H2981     1.0  0.75327  0.69675  0.81009  1.0000
  H   H2982     1.0  0.73235  0.79568  0.83326  1.0000
  C   C1861     1.0  0.75205  0.74408  0.81494  1.0000
  C   C1862     1.0  0.75349  0.74912  0.80004  1.0000
  C   C1863     1.0  0.77255  0.73970  0.79122  1.0000
  C   C1864     1.0  0.79012  0.72509  0.79725  1.0000
  C   C1865     1.0  0.78890  0.72044  0.81215  1.0000
  C   C1866     1.0  0.76993  0.73001  0.82097  1.0000
  H   H2983     1.0  0.73977  0.75996  0.79531  1.0000
  H   H2984     1.0  0.77347  0.74344  0.77969  1.0000
  H   H2985     1.0  0.80256  0.70949  0.81686  1.0000
  H   H2986     1.0  0.76898  0.72633  0.83250  1.0000
  C   C1867     1.0  0.66988  0.79272  0.75498  1.0000
  C   C1868     1.0  0.67226  0.80009  0.74009  1.0000
  C   C1869     1.0  0.97368  0.95793  0.91707  1.0000
  C   C1870     1.0  0.64820  0.77405  0.73735  1.0000
  C   C1871     1.0  0.64613  0.76638  0.75219  1.0000
  C   C1872     1.0  0.65725  0.77536  0.76093  1.0000
  N   N186      1.0  0.75802  0.66293  0.82142  1.0000
  H   H2987     1.0  0.63604  0.75325  0.75694  1.0000
  H   H2988     1.0  0.65624  0.76872  0.77220  1.0000
  C   C1873     1.0  0.60108  0.77722  0.83408  1.0000
  C   C1874     1.0  0.57914  0.77857  0.84202  1.0000
  C   C1875     1.0  0.56659  0.76074  0.84396  1.0000
  C   C1876     1.0  0.57582  0.74153  0.83779  1.0000
  C   C1877     1.0  0.59772  0.74024  0.82980  1.0000
  C   C1878     1.0  0.61039  0.75790  0.82805  1.0000
  H   H2989     1.0  0.57179  0.79349  0.84669  1.0000
  H   H2990     1.0  0.54972  0.76193  0.85010  1.0000
  H   H2991     1.0  0.60498  0.72539  0.82504  1.0000
  H   H2992     1.0  0.62730  0.75651  0.82203  1.0000
  H   H2993     1.0  0.76761  0.96169  0.94363  1.0000
  C   C1879     1.0  0.71862  0.89398  0.84862  1.0000
  C   C1880     1.0  0.72048  0.90562  0.83459  1.0000
  C   C1881     1.0  0.71447  0.89649  0.82364  1.0000
  C   C1882     1.0  0.70627  0.87579  0.82658  1.0000
  C   C1883     1.0  0.70399  0.86437  0.84068  1.0000
  C   C1884     1.0  0.71033  0.87332  0.85158  1.0000
  H   H2994     1.0  0.72683  0.92151  0.83211  1.0000
  H   H2995     1.0  0.71627  0.90551  0.81278  1.0000
  H   H2996     1.0  0.69730  0.84867  0.84320  1.0000
  H   H2997     1.0  0.70870  0.86420  0.86241  1.0000
  C   C1885     1.0  0.73566  0.81315  0.83241  1.0000
  H   H2998     1.0  0.84536  0.94892  0.89779  1.0000
  Fe  Fe382     1.0  0.50751  0.67476  0.87399  1.0000
  H   H2999     1.0  0.93607  0.89777  0.90938  1.0000
  H   H3000     1.0  0.72941  0.95004  0.94781  1.0000
  H   H3001     1.0  0.84497  0.71564  0.75736  1.0000
  H   H3002     1.0  0.74690  0.67618  0.80109  1.0000
  H   H3003     1.0  0.93461  0.89707  0.94153  1.0000
  H   H3004     1.0  0.68885  0.69688  0.74907  1.0000
  H   H3005     1.0  0.71301  0.73441  0.72949  1.0000
  H   H3006     1.0  0.73049  0.68334  0.83271  1.0000
  Fe  Fe383     1.0  0.71680  0.96633  0.88881  1.0000
  S   S764      1.0  0.80220  0.94990  0.88926  1.0000
  C   C1886     1.0  0.83493  0.96455  0.89999  1.0000
  H   H3007     1.0  0.81498  0.98246  0.86419  1.0000
  H   H3008     1.0  0.81855  0.69913  0.72950  1.0000
  C   C1887     1.0  0.66165  0.79068  0.73128  1.0000
  C   C1888     1.0  0.49553  0.80229  0.91527  1.0000
  H   H3009     1.0  0.70930  0.96336  0.93612  1.0000
  H   H3010     1.0  0.69958  0.67581  0.73778  1.0000
  C   C1889     1.0  0.97699  0.88076  0.93059  1.0000
  C   C1890     1.0  0.98731  0.93905  0.91210  1.0000
  H   H3011     1.0  0.76460  0.96133  0.91206  1.0000
  S   S765      1.0  0.76629  0.95591  0.85795  1.0000
  H   H3012     1.0  0.92354  0.65364  0.85927  1.0000
  N   N187      1.0  0.95589  0.87949  0.92541  1.0000
  H   H3013     1.0  0.82146  0.66799  0.75009  1.0000
  C   C1891     1.0  0.77518  0.79973  0.83348  1.0000
  C   C1892     1.0  0.66550  0.98183  0.90993  1.0000
  H   H3014     1.0  0.71667  0.97882  0.94825  1.0000
  C   C1893     1.0  0.82836  0.70834  0.73453  1.0000
  H   H3015     1.0  0.97609  0.89691  0.93452  1.0000
  H   H3016     1.0  0.79301  0.80116  0.82851  1.0000
  H   H3017     1.0  0.77516  0.98271  0.92873  1.0000
  H   H3018     1.0  0.86901  0.69393  0.75598  1.0000
  N   N188      1.0  0.84395  0.69261  0.74321  1.0000
  H   H3019     1.0  0.72304  0.82434  0.82626  1.0000
  H   H3020     1.0  0.98310  0.93269  0.90334  1.0000
  N   N189      1.0  0.60206  0.80640  0.78836  1.0000
  C   C1894     1.0  0.58227  0.79725  0.79735  1.0000
  C   C1895     1.0  0.60109  0.80701  0.77304  1.0000
  C   C1896     1.0  0.62301  0.79194  0.79204  1.0000
  C   C1897     1.0  0.60209  0.82933  0.79107  1.0000
  H   H3021     1.0  0.58243  0.79702  0.80895  1.0000
  H   H3022     1.0  0.58211  0.77965  0.79598  1.0000
  H   H3023     1.0  0.61603  0.81358  0.76603  1.0000
  H   H3024     1.0  0.60114  0.78992  0.77065  1.0000
  H   H3025     1.0  0.58558  0.81791  0.76977  1.0000
  H   H3026     1.0  0.63830  0.79841  0.78551  1.0000
  H   H3027     1.0  0.62354  0.77438  0.79038  1.0000
  H   H3028     1.0  0.62439  0.79127  0.80344  1.0000
  H   H3029     1.0  0.61686  0.83670  0.78447  1.0000
  H   H3030     1.0  0.60319  0.82929  0.80254  1.0000
  H   H3031     1.0  0.58643  0.84077  0.78855  1.0000
  N   N190      1.0  0.66095  0.92627  0.88420  1.0000
  C   C1898     1.0  0.64372  0.91151  0.89041  1.0000
  C   C1899     1.0  0.66727  0.92555  0.86867  1.0000
  C   C1900     1.0  0.68123  0.91842  0.89127  1.0000
  C   C1901     1.0  0.65162  0.94954  0.88650  1.0000
  H   H3032     1.0  0.84197  0.66667  0.76155  1.0000
  H   H3033     1.0  0.63861  0.91163  0.90213  1.0000
  C   C1902     1.0  0.49443  0.80069  0.94070  1.0000
  H   H3034     1.0  0.68056  0.93618  0.86366  1.0000
  H   H3035     1.0  0.67434  0.90819  0.86658  1.0000
  C   C1903     1.0  0.95173  0.89832  0.91366  1.0000
  H   H3036     1.0  0.68890  0.90096  0.88968  1.0000
  H   H3037     1.0  0.67724  0.91894  0.90299  1.0000
  H   H3038     1.0  0.69456  0.92914  0.88679  1.0000
  H   H3039     1.0  0.66433  0.96109  0.88223  1.0000
  H   H3040     1.0  0.64649  0.95060  0.89812  1.0000
  H   H3041     1.0  0.63647  0.95622  0.88118  1.0000
  H   H3042     1.0  0.54989  0.65159  0.88976  1.0000
  H   H3043     1.0  0.49826  0.92067  0.94166  1.0000
  C   C1904     1.0  0.83074  0.67836  0.75462  1.0000
  H   H3044     1.0  0.89709  0.65271  0.87114  1.0000
  H   H3045     1.0  0.51320  0.79659  0.93967  1.0000
  C   C1905     1.0  0.77478  0.66670  0.82972  1.0000
  N   N191      1.0  0.74220  0.97361  0.92995  1.0000
  H   H3046     1.0  0.94282  0.85653  0.91577  1.0000
  H   H3047     1.0  0.90583  0.67926  0.86292  1.0000
  C   C1906     1.0  0.85656  0.70540  0.74977  1.0000
  H   H3048     1.0  0.86616  0.71692  0.74153  1.0000
  H   H3049     1.0  0.96068  0.84335  0.92886  1.0000
  C   C1907     1.0  0.64800  0.97746  0.92133  1.0000
  H   H3050     1.0  0.65248  0.93152  0.86291  1.0000
  H   H3051     1.0  0.81602  0.71943  0.74124  1.0000
  H   H3052     1.0  0.96603  0.89795  0.90458  1.0000
  C   C1908     1.0  0.95812  0.85792  0.92014  1.0000
  C   C1909     1.0  0.75084  0.95618  0.92074  1.0000
  H   H3053     1.0  0.85120  0.66794  0.72909  1.0000
  H   H3054     1.0  0.86083  0.97558  0.90861  1.0000
  H   H3055     1.0  0.52076  0.96476  0.96898  1.0000
  H   H3056     1.0  0.87229  0.66640  0.74016  1.0000
  H   H3057     1.0  0.78021  0.84154  0.81986  1.0000
  C   C1910     1.0  0.49802  0.95553  0.93240  1.0000
  H   H3058     1.0  0.68220  0.81335  0.73535  1.0000
  C   C1911     1.0  0.76224  0.81086  0.81056  1.0000
  S   S766      1.0  0.69115  0.96317  0.90900  1.0000
  H   H3059     1.0  0.77268  0.78204  0.83385  1.0000
  C   C1912     1.0  0.97967  0.96668  0.92801  1.0000
  Fe  Fe384     1.0  0.87684  0.65809  0.80840  1.0000
  H   H3060     1.0  0.95544  0.66583  0.86681  1.0000
  H   H3061     1.0  0.93781  0.69151  0.87049  1.0000
  N   N192      1.0  0.92352  0.66161  0.88014  1.0000
  H   H3062     1.0  0.68428  0.73691  0.73858  1.0000
  H   H3063     1.0  0.91596  0.67297  0.90055  1.0000
  H   H3064     1.0  0.77079  0.68369  0.83284  1.0000
  H   H3065     1.0  0.95225  0.67407  0.88417  1.0000
  C   C1913     1.0  0.72360  0.96612  0.94105  1.0000
  C   C1914     1.0  0.91196  0.66179  0.86786  1.0000
  H   H3066     1.0  0.98640  0.78803  0.92635  1.0000
  H   H3067     1.0  0.50007  0.93393  0.96783  1.0000
  C   C1915     1.0  0.90767  0.67286  0.89115  1.0000
  H   H3068     1.0  0.71799  0.69384  0.74064  1.0000
  S   S767      1.0  0.49412  0.73665  0.85523  1.0000
  H   H3069     1.0  0.89258  0.66423  0.89514  1.0000
  C   C1916     1.0  0.70042  0.69330  0.73908  1.0000
  C   C1917     1.0  0.49690  0.83582  0.92462  1.0000
  S   S768      1.0  0.90887  0.65897  0.81745  1.0000
  H   H3070     1.0  0.94963  0.66242  0.82714  1.0000
  C   C1918     1.0  0.76074  0.97731  0.93684  1.0000
  C   C1919     1.0  0.69547  0.73252  0.72865  1.0000
  C   C1920     1.0  0.84376  0.97962  0.90612  1.0000
  H   H3071     1.0  0.96929  0.98127  0.93186  1.0000
  H   H3072     1.0  0.99192  0.87929  0.92197  1.0000
