data_image0
_chemical_formula_structural       CSHFeS2FeSHSHSHSHFeSFeSFeHFeHCFeS2HCHS2FeS2C2FeSHSNHFeH3C6H3C7H3C2H2C3H3FeC6H4C6H4C2H9NCHNH3C2N2HSH2CH3SCHFeH8CHFeH4SH2CHCH2SH4FeCH4SNS2HSH3CH2NCHC7H3CH7CHC2H2C3H4CSH7NCH2CH2CHFeCHSCSC2H3C2H3SHNH4CHC2HCSCNH2SFeSHFeSFeS2FeS2FeS2FeSFeNS2CSC6H4C6H3C6H4C3HNC4H14CHCH6CHFeSCH7CNC4HCH9CS2HCH3SH3CH5SH6CNHCHCH3C2H3C3HFeS2CSFeSFeS2H2SHSFe2SH2FeS2FeS2FeSFeS3FeS2CHFeHNSCHC2HC5HC6H4C6H3CHC6H4C2HFeNC6H3C2H3SCHNHC2H2CH2CHSHCHCH2FeNH3CH9SHC3HFeHCH9C2H4CNH3CH2NC4H11C2SH4CHCH4CH5SHFeH3S2HNHFeS2FeS2FeSFeS3HSH2FeS2FeS2FeSCS2C6H4C6H4FeC6H4C6H4C6H5C2HCHNH3CH2CFeHC2H4NH3SHCHC2H4CHCHCH3NCH3CH9SCH6CHS3H2C2HCHNCHFeSFeSCS2HFeS2FeS2FeSFeS3HCSH2C6H5C2H3SH2CSC7H4C6H4NC3HCFeH4CFeH2FeH3CH2NH9C2H2C2H4NH4SH4CH2CH2SNC2FeHCNS2H5CH2CHNC9H6C2NCH2FeSCSH11CH4SC2HCH6CHCH2C2HC2H3CSH3CSFeS2HFeH2S2HFeS2FeHSHFeCS2FeCFeSFeHS3CSFeSFeSHSC4HCHSCHCH2C2HCH2CFeNFe2H2C4H3C6H4C6H5NHCH7SH3FeHCHNC3H2CNCH3C2HC2HCHSHCHCH2NFeH3SHCHCH4C2SCNH4CH8SFeS2FeS2FeSFeS3HFeS2FeSFeHS3C7HCHC6H3C6H4C2H2CHCHC6HCH2C6H5CHSH5CNC3H2CH5NC4H9CH2NC4H14FeHNHCH2CH4SC3H6FeHSH4FeSFeS2CS2HSHFeSFe2SHS2FeS2FeS2FeSFeS3FeHSFeH4SHC2HC2HC6H4C6H4C6H4CHC4H4C6H3CNCHC3SNSHCHSH2NC4HSH6CH6CH4FeHCH4N2C2HSCH9CH3CH3CHCHSH2FeHCH4NHC2HCFeH2SHCHSH2CNH3CH2CH5SH7CHCNC2H7CHCH2FeS2FeS2FeSFeS3HSCHSCFe2SCHFeS2FeNSFeSHS2HSH2SHFeSFeSC7H4C6H3CH2C7H4C6H4C4HSH3FeC4HCHCNSH2CNC4H16CS2H6NHC3H3FeH4C3HSH4SFeHCH6SNHC2HCH4CSFeC2H10FeSFeS2FeSFeS3HSFeS2FeS2FeSFeS3C7H4C6SH4C4HCHC7H4C6H4C6H3CNC3H8CSH4NFeSHCH4CNC4H12CHCH4SH2C2H8NH2CH8CH5CHCHSHCH2FeS2NFe2CS2FeS2Fe2SH2FeHS2FeS2HSHFeS2CSH2SHFeSFeSCSHC6H5CH2C6H4NHC2HC6H7C6H5C5H3CH5NHC4HS2HCHCNHFeSCH4FeHFeH8NCHCH4CHCH6CH2CH3CHS2H2CH2NH5CHCH2CH2C2H2SH2SNH2SC7H4C2FeCHCSCH2SCH3C2HCSH7C2H7CNH2C3HCNCH4CH7SH2CSFeSCFeS2FeSFeS4FeHSFeS2HFeS3C7H3C6H4C6H4C4HCH4NC4H10C2H2SH3CHSH3CH4NC4H13CFeH2CSH5SNHC2N2CH4S2FeS2HCHFeS4C2FeSFeS2FeS2FeSFeS3HC6H5C2HC6H4C6H4CH2CH4C6H4C2H6CH2CHCH2FeHCH4CHNHCH2C2H3CNC4H13CH2C4HNH3CH3CH3NFeHCHS2CFeS2FeS2FeSFeS3FeS2H3FeHSFeSFeS3FeCSFeHFeSCS2C5H3CHC4H3CHC6H4C6H5C2HFeC6H5SHCHCH2CNC4H12NC3NH4CHCH5CH7C2HC2FeC2H4SH2NH3CSH2CH2FeNHS2H2CH2CH6CHSH2SH2CH2CH3FeH3NCNH3CH4C2H2FeS2FeS2FeSFeHS2HSH2Fe2S3NHC4H3FeC6H4C6H2CHC4H2SCSNC4H15FeSC2H2CH2CHS2CHCSHFeH4NSH2CH4SH3CH3C2HCH4CHCSFeHC2SNHFeSHSC6H5C2H3CH3C2HCH10SC2H4SNHCSC4HNC4H11CH3C2H2NHCSH4CHCH3FeS2FeSH2S2HFeSFe2SHS2FeS2CSFeSHSFeHSFe2SHFeHS2HC4H4CH2C6H4C7H4CHC4H2C6H4SH2CH2CSC2H6CH2NH4CSH3FeH2NC4H12NSC4HSFeH4CFeCHCHC2NHCH2NH4CH2
_chemical_formula_sum              "C960 S384 H1536 Fe192 N96"
_cell_length_a       103.055
_cell_length_b       30.7205
_cell_length_c       68.5638
_cell_angle_alpha    82.6472
_cell_angle_beta     83.9519
_cell_angle_gamma    83.1913

_space_group_name_H-M_alt    "P 1"
_space_group_IT_number       1

loop_
  _space_group_symop_operation_xyz
  'x, y, z'

loop_
  _atom_site_type_symbol
  _atom_site_label
  _atom_site_symmetry_multiplicity
  _atom_site_fract_x
  _atom_site_fract_y
  _atom_site_fract_z
  _atom_site_occupancy
  C   C1        1.0  0.02061  0.21776  0.25028  1.0000
  S   S1        1.0  0.20135  0.21528  0.31129  1.0000
  H   H1        1.0  0.08508  0.99236  0.32574  1.0000
  Fe  Fe1       1.0  0.16499  0.21176  0.30080  1.0000
  S   S2        1.0  0.17692  0.26856  0.28892  1.0000
  S   S3        1.0  0.14384  0.21437  0.29262  1.0000
  Fe  Fe2       1.0  0.19336  0.21578  0.28154  1.0000
  S   S4        1.0  0.20852  0.21278  0.25409  1.0000
  H   H2        1.0  0.04301  0.17915  0.23324  1.0000
  S   S5        1.0  0.18109  0.15997  0.29189  1.0000
  H   H3        1.0  0.23338  0.99518  0.11160  1.0000
  S   S6        1.0  0.22700  0.08473  0.12302  1.0000
  H   H4        1.0  0.04608  0.23053  0.24095  1.0000
  S   S7        1.0  0.21753  0.18744  0.10989  1.0000
  H   H5        1.0  0.22487  0.00711  0.05988  1.0000
  Fe  Fe3       1.0  0.22301  0.14692  0.13831  1.0000
  S   S8        1.0  0.20919  0.15304  0.16698  1.0000
  Fe  Fe4       1.0  0.22332  0.12685  0.09404  1.0000
  S   S9        1.0  0.21036  0.10567  0.07176  1.0000
  Fe  Fe5       1.0  0.06122  0.00402  0.31084  1.0000
  H   H6        1.0  0.11803  0.21573  0.28007  1.0000
  Fe  Fe6       1.0  0.07858  0.08000  0.30531  1.0000
  H   H7        1.0  0.01610  0.27520  0.05941  1.0000
  C   C2        1.0  0.22613  0.30048  0.17294  1.0000
  Fe  Fe7       1.0  0.06052  0.07124  0.27248  1.0000
  S   S10       1.0  0.04500  0.04472  0.29477  1.0000
  S   S11       1.0  0.05865  0.08982  0.23912  1.0000
  H   H8        1.0  0.00176  0.21607  0.06915  1.0000
  C   C3        1.0  0.20918  0.06972  0.00779  1.0000
  H   H9        1.0  0.23017  0.07093  0.00523  1.0000
  S   S12       1.0  0.06382  0.12746  0.28909  1.0000
  S   S13       1.0  0.24297  0.27050  0.09411  1.0000
  Fe  Fe8       1.0  0.01554  0.14569  0.10181  1.0000
  S   S14       1.0  0.01867  0.07885  0.11968  1.0000
  S   S15       1.0  0.02906  0.18082  0.07751  1.0000
  C   C4        1.0  0.22160  0.26547  0.14520  1.0000
  C   C5        1.0  0.24400  0.26775  0.15199  1.0000
  Fe  Fe9       1.0  0.01050  0.11186  0.14663  1.0000
  S   S16       1.0  0.01534  0.08540  0.17842  1.0000
  H   H10       1.0  0.20737  0.06370  0.25523  1.0000
  S   S17       1.0  0.00918  0.17976  0.12929  1.0000
  N   N1        1.0  0.03199  0.19522  0.26030  1.0000
  H   H11       1.0  0.23801  0.35540  0.14457  1.0000
  Fe  Fe10      1.0  0.04857  0.09993  0.31170  1.0000
  H   H12       1.0  0.05695  0.12538  0.19846  1.0000
  H   H13       1.0  0.03825  0.13059  0.27401  1.0000
  H   H14       1.0  0.23461  0.32915  0.12406  1.0000
  C   C6        1.0  0.04643  0.08807  0.22256  1.0000
  C   C7        1.0  0.03507  0.06696  0.22818  1.0000
  C   C8        1.0  0.02572  0.06676  0.21451  1.0000
  C   C9        1.0  0.02749  0.08773  0.19502  1.0000
  C   C10       1.0  0.03881  0.10904  0.18943  1.0000
  C   C11       1.0  0.04820  0.10907  0.20308  1.0000
  H   H15       1.0  0.03356  0.05035  0.24301  1.0000
  H   H16       1.0  0.01704  0.05006  0.21907  1.0000
  H   H17       1.0  0.04041  0.12518  0.17453  1.0000
  C   C12       1.0  0.12343  0.11038  0.31693  1.0000
  C   C13       1.0  0.03623  0.16142  0.01118  1.0000
  C   C14       1.0  0.02853  0.13364  0.02433  1.0000
  C   C15       1.0  0.02609  0.13948  0.04453  1.0000
  C   C16       1.0  0.03146  0.17299  0.05198  1.0000
  C   C17       1.0  0.03912  0.20099  0.03883  1.0000
  C   C18       1.0  0.04144  0.19547  0.01854  1.0000
  H   H18       1.0  0.02446  0.10714  0.01887  1.0000
  H   H19       1.0  0.02019  0.11760  0.05438  1.0000
  H   H20       1.0  0.04334  0.22703  0.04440  1.0000
  C   C19       1.0  0.22257  0.12029  0.28407  1.0000
  C   C20       1.0  0.13164  0.17684  0.29888  1.0000
  H   H21       1.0  0.07568  0.15122  0.02560  1.0000
  H   H22       1.0  0.20160  0.07923  0.29890  1.0000
  C   C21       1.0  0.11139  0.11986  0.30844  1.0000
  C   C22       1.0  0.10956  0.15796  0.29503  1.0000
  C   C23       1.0  0.11960  0.18624  0.29036  1.0000
  H   H23       1.0  0.21389  0.14313  0.28858  1.0000
  H   H24       1.0  0.00023  0.99974  0.17425  1.0000
  H   H25       1.0  0.09811  0.14084  0.00742  1.0000
  Fe  Fe11      1.0  0.99757  0.07237  0.11536  1.0000
  C   C24       1.0  0.20841  0.19629  0.22988  1.0000
  C   C25       1.0  0.22009  0.19530  0.21709  1.0000
  C   C26       1.0  0.22058  0.18189  0.19796  1.0000
  C   C27       1.0  0.20935  0.16950  0.19118  1.0000
  C   C28       1.0  0.19772  0.17021  0.20404  1.0000
  C   C29       1.0  0.19724  0.18333  0.22320  1.0000
  H   H26       1.0  0.22885  0.20479  0.22206  1.0000
  H   H27       1.0  0.22967  0.18093  0.18851  1.0000
  H   H28       1.0  0.18894  0.16067  0.19909  1.0000
  H   H29       1.0  0.18816  0.18374  0.23271  1.0000
  C   C30       1.0  0.00727  0.29986  0.06078  1.0000
  C   C31       1.0  0.22119  0.07576  0.01475  1.0000
  C   C32       1.0  0.22174  0.08805  0.03388  1.0000
  C   C33       1.0  0.21028  0.09354  0.04671  1.0000
  C   C34       1.0  0.19828  0.08763  0.03971  1.0000
  C   C35       1.0  0.19770  0.07634  0.02042  1.0000
  H   H30       1.0  0.00345  0.30707  0.04598  1.0000
  H   H31       1.0  0.23107  0.09266  0.03877  1.0000
  H   H32       1.0  0.18932  0.09166  0.04936  1.0000
  H   H33       1.0  0.21611  0.31864  0.17382  1.0000
  C   C36       1.0  0.13350  0.13853  0.31217  1.0000
  C   C37       1.0  0.04395  0.19620  0.24634  1.0000
  H   H34       1.0  0.22840  0.13913  0.27193  1.0000
  H   H35       1.0  0.07821  0.05293  0.99830  1.0000
  H   H36       1.0  0.20693  0.02748  0.28953  1.0000
  H   H37       1.0  0.10511  0.99253  0.30275  1.0000
  H   H38       1.0  0.20202  0.11628  0.26386  1.0000
  H   H39       1.0  0.22764  0.01993  0.26709  1.0000
  H   H40       1.0  0.22129  0.23268  0.15418  1.0000
  H   H41       1.0  0.05272  0.17897  0.25333  1.0000
  H   H42       1.0  0.22129  0.35361  0.13947  1.0000
  N   N2        1.0  0.21853  0.08023  0.27762  1.0000
  C   C38       1.0  0.09470  0.11419  0.00029  1.0000
  H   H43       1.0  0.22562  0.26906  0.18294  1.0000
  N   N3        1.0  0.08041  0.12166  0.99853  1.0000
  H   H44       1.0  0.00584  0.30379  0.09998  1.0000
  H   H45       1.0  0.99702  0.39775  0.21403  1.0000
  H   H46       1.0  0.21605  0.04660  0.30707  1.0000
  C   C39       1.0  0.23116  0.33450  0.13962  1.0000
  C   C40       1.0  0.02967  0.14893  0.26706  1.0000
  N   N4        1.0  0.23072  0.29208  0.15246  1.0000
  N   N5        1.0  0.99722  0.28288  0.07594  1.0000
  H   H47       1.0  0.23636  0.04029  0.28481  1.0000
  S   S18       1.0  0.07665  0.02590  0.28683  1.0000
  H   H48       1.0  0.99551  0.26030  0.10699  1.0000
  H   H49       1.0  0.01912  0.20139  0.23720  1.0000
  C   C41       1.0  0.07328  0.12311  0.01836  1.0000
  H   H50       1.0  0.09745  0.08222  0.00927  1.0000
  H   H51       1.0  0.04736  0.21720  0.00868  1.0000
  H   H52       1.0  0.02107  0.14667  0.27829  1.0000
  S   S19       1.0  0.99516  0.13650  0.09570  1.0000
  C   C42       1.0  0.23033  0.05049  0.27209  1.0000
  H   H53       1.0  0.00400  0.01946  0.14887  1.0000
  Fe  Fe12      1.0  0.18390  0.26368  0.31962  1.0000
  H   H54       1.0  0.21671  0.10975  0.24770  1.0000
  H   H55       1.0  0.18836  0.07188  0.01549  1.0000
  H   H56       1.0  0.06246  0.12703  0.01752  1.0000
  H   H57       1.0  0.22460  0.25952  0.12962  1.0000
  H   H58       1.0  0.23281  0.32029  0.17896  1.0000
  H   H59       1.0  0.07566  0.09219  0.02826  1.0000
  H   H60       1.0  0.01059  0.33071  0.06450  1.0000
  H   H61       1.0  0.03572  0.25262  0.27305  1.0000
  C   C43       1.0  0.03371  0.21781  0.27751  1.0000
  H   H62       1.0  0.01143  0.21718  0.26040  1.0000
  Fe  Fe13      1.0  0.18801  0.16260  0.32168  1.0000
  H   H63       1.0  0.21140  0.28208  0.14577  1.0000
  H   H64       1.0  0.10039  0.16585  0.28835  1.0000
  H   H65       1.0  0.23627  0.06129  0.07381  1.0000
  H   H66       1.0  0.02200  0.25284  0.24504  1.0000
  S   S20       1.0  0.09901  0.08314  0.31533  1.0000
  H   H67       1.0  0.22859  0.11209  0.29686  1.0000
  H   H68       1.0  0.02800  0.13107  0.25458  1.0000
  C   C44       1.0  0.21043  0.05736  0.29396  1.0000
  H   H69       1.0  0.04201  0.20088  0.28570  1.0000
  C   C45       1.0  0.21082  0.09287  0.26037  1.0000
  H   H70       1.0  0.22099  0.01686  0.09527  1.0000
  H   H71       1.0  0.02481  0.21796  0.28826  1.0000
  S   S21       1.0  0.02953  0.14050  0.32114  1.0000
  H   H72       1.0  0.01158  0.24878  0.09462  1.0000
  H   H73       1.0  0.20588  0.16122  0.99551  1.0000
  H   H74       1.0  0.14266  0.13081  0.31888  1.0000
  H   H75       1.0  0.23668  0.06685  0.25985  1.0000
  Fe  Fe14      1.0  0.23885  0.19965  0.10491  1.0000
  C   C46       1.0  0.00278  0.27356  0.09522  1.0000
  H   H76       1.0  0.02748  0.01040  0.15440  1.0000
  H   H77       1.0  0.11472  0.99774  0.32236  1.0000
  H   H78       1.0  0.12498  0.08117  0.32736  1.0000
  H   H79       1.0  0.24406  0.23555  0.16153  1.0000
  S   S22       1.0  0.24404  0.16209  0.13390  1.0000
  N   N6        1.0  0.23931  0.99095  0.08084  1.0000
  S   S23       1.0  0.19338  0.43111  0.40944  1.0000
  S   S24       1.0  0.19281  0.09850  0.34127  1.0000
  H   H80       1.0  0.07978  0.47977  0.38701  1.0000
  S   S25       1.0  0.17093  0.21014  0.33154  1.0000
  H   H81       1.0  0.00703  0.20085  0.32998  1.0000
  H   H82       1.0  0.00102  0.46538  0.65457  1.0000
  H   H83       1.0  0.22820  0.44529  0.35226  1.0000
  C   C47       1.0  0.02480  0.27570  0.34454  1.0000
  H   H84       1.0  0.20229  0.01312  0.35946  1.0000
  H   H85       1.0  0.09426  0.47848  0.39968  1.0000
  N   N7        1.0  0.19083  0.18575  0.38367  1.0000
  C   C48       1.0  0.21069  0.03128  0.35496  1.0000
  H   H86       1.0  0.20946  0.15328  0.39200  1.0000
  C   C49       1.0  0.19661  0.20562  0.36443  1.0000
  C   C50       1.0  0.19058  0.40280  0.38891  1.0000
  C   C51       1.0  0.19587  0.35836  0.38833  1.0000
  C   C52       1.0  0.19403  0.33450  0.37258  1.0000
  C   C53       1.0  0.18678  0.35438  0.35697  1.0000
  C   C54       1.0  0.18164  0.39903  0.35742  1.0000
  C   C55       1.0  0.18350  0.42299  0.37315  1.0000
  H   H87       1.0  0.20145  0.34216  0.40022  1.0000
  H   H88       1.0  0.19834  0.30076  0.37246  1.0000
  H   H89       1.0  0.01350  0.20600  0.43565  1.0000
  C   C56       1.0  0.17763  0.17372  0.38144  1.0000
  H   H90       1.0  0.17299  0.15829  0.39562  1.0000
  H   H91       1.0  0.17096  0.20319  0.37623  1.0000
  H   H92       1.0  0.17808  0.14966  0.37046  1.0000
  H   H93       1.0  0.20019  0.12056  0.37995  1.0000
  H   H94       1.0  0.19775  0.18182  0.35329  1.0000
  H   H95       1.0  0.19536  0.12985  0.40510  1.0000
  H   H96       1.0  0.18334  0.24856  0.39331  1.0000
  C   C57       1.0  0.01340  0.28393  0.41275  1.0000
  H   H97       1.0  0.02057  0.27987  0.42405  1.0000
  C   C58       1.0  0.23425  0.03444  0.35313  1.0000
  C   C59       1.0  0.19933  0.14568  0.39054  1.0000
  H   H98       1.0  0.20650  0.21570  0.36552  1.0000
  H   H99       1.0  0.02239  0.18807  0.39256  1.0000
  C   C60       1.0  0.00634  0.21217  0.42428  1.0000
  C   C61       1.0  0.02809  0.19254  0.33006  1.0000
  C   C62       1.0  0.03737  0.25303  0.34132  1.0000
  H   H100      1.0  0.01735  0.30611  0.39988  1.0000
  H   H101      1.0  0.00465  0.27091  0.37913  1.0000
  H   H102      1.0  0.24166  0.44431  0.61204  1.0000
  H   H103      1.0  0.09456  0.99971  0.34516  1.0000
  C   C63       1.0  0.18973  0.21801  0.39817  1.0000
  S   S26       1.0  0.02313  0.32608  0.35503  1.0000
  H   H104      1.0  0.02771  0.24152  0.38476  1.0000
  H   H105      1.0  0.18541  0.20417  0.41289  1.0000
  H   H106      1.0  0.17931  0.45696  0.37315  1.0000
  H   H107      1.0  0.19035  0.23552  0.35854  1.0000
  H   H108      1.0  0.20718  0.47465  0.36892  1.0000
  H   H109      1.0  0.06017  0.47752  0.42407  1.0000
  H   H110      1.0  0.17601  0.41513  0.34555  1.0000
  N   N8        1.0  0.01123  0.24100  0.40678  1.0000
  C   C64       1.0  0.20888  0.07455  0.34542  1.0000
  H   H111      1.0  0.19949  0.22810  0.40012  1.0000
  H   H112      1.0  0.04876  0.19450  0.33166  1.0000
  C   C65       1.0  0.23242  0.07779  0.34360  1.0000
  H   H113      1.0  0.08033  0.47564  0.44143  1.0000
  H   H114      1.0  0.23652  0.42469  0.39413  1.0000
  C   C66       1.0  0.03903  0.21170  0.33401  1.0000
  H   H115      1.0  0.00408  0.30133  0.41905  1.0000
  Fe  Fe15      1.0  0.00362  0.36628  0.36238  1.0000
  C   C67       1.0  0.01554  0.21538  0.33311  1.0000
  H   H116      1.0  0.23040  0.42221  0.59870  1.0000
  S   S27       1.0  0.00061  0.39101  0.39222  1.0000
  C   C68       1.0  0.01389  0.25690  0.34018  1.0000
  S   S28       1.0  0.06339  0.05707  0.32964  1.0000
  C   C69       1.0  0.21979  0.09779  0.33972  1.0000
  C   C70       1.0  0.02371  0.21998  0.39781  1.0000
  H   H117      1.0  0.22101  0.41461  0.38663  1.0000
  H   H118      1.0  0.22647  0.45594  0.56442  1.0000
  H   H119      1.0  0.22139  0.44653  0.40656  1.0000
  C   C71       1.0  0.22333  0.01118  0.35873  1.0000
  C   C72       1.0  0.08344  0.47705  0.40189  1.0000
  H   H120      1.0  0.21852  0.13123  0.33250  1.0000
  H   H121      1.0  0.08166  0.44387  0.40961  1.0000
  H   H122      1.0  0.24084  0.09599  0.33930  1.0000
  S   S29       1.0  0.18379  0.32502  0.33686  1.0000
  H   H123      1.0  0.99692  0.22746  0.43129  1.0000
  N   N9        1.0  0.22627  0.48046  0.37775  1.0000
  H   H124      1.0  0.03134  0.21344  0.40845  1.0000
  H   H125      1.0  0.99977  0.21683  0.38677  1.0000
  H   H126      1.0  0.00451  0.17959  0.42024  1.0000
  H   H127      1.0  0.00417  0.27418  0.34236  1.0000
  C   C73       1.0  0.22636  0.43977  0.39185  1.0000
  H   H128      1.0  0.04587  0.26739  0.34460  1.0000
  C   C74       1.0  0.23959  0.43853  0.59699  1.0000
  C   C75       1.0  0.00140  0.24822  0.39219  1.0000
  H   H129      1.0  0.24348  0.45642  0.36007  1.0000
  C   C76       1.0  0.23309  0.47012  0.35856  1.0000
  S   S30       1.0  0.99612  0.43109  0.34572  1.0000
  C   C77       1.0  0.23574  0.47153  0.56383  1.0000
  N   N10       1.0  0.23840  0.48035  0.58365  1.0000
  H   H130      1.0  0.24382  0.44908  0.55721  1.0000
  H   H131      1.0  0.22172  0.13532  0.91424  1.0000
  S   S31       1.0  0.17641  0.06267  0.91107  1.0000
  Fe  Fe16      1.0  0.19543  0.05099  0.95877  1.0000
  S   S32       1.0  0.18162  0.11078  0.94952  1.0000
  H   H132      1.0  0.20310  0.25374  0.88416  1.0000
  Fe  Fe17      1.0  0.16796  0.06384  0.94255  1.0000
  S   S33       1.0  0.14605  0.05815  0.95058  1.0000
  Fe  Fe18      1.0  0.19140  0.10403  0.91895  1.0000
  S   S34       1.0  0.19628  0.16716  0.89966  1.0000
  S   S35       1.0  0.20550  0.04496  0.92789  1.0000
  Fe  Fe19      1.0  0.07579  0.18813  0.93118  1.0000
  S   S36       1.0  0.06105  0.23568  0.94660  1.0000
  S   S37       1.0  0.09727  0.19950  0.93065  1.0000
  Fe  Fe20      1.0  0.05411  0.14584  0.91522  1.0000
  S   S38       1.0  0.03808  0.19061  0.92932  1.0000
  S   S39       1.0  0.05109  0.09359  0.89595  1.0000
  Fe  Fe21      1.0  0.05107  0.24460  0.91834  1.0000
  S   S40       1.0  0.04309  0.31277  0.90427  1.0000
  Fe  Fe22      1.0  0.04954  0.17739  0.95622  1.0000
  N   N11       1.0  0.21087  0.19125  0.96600  1.0000
  S   S41       1.0  0.06640  0.20062  0.90257  1.0000
  S   S42       1.0  0.06501  0.12923  0.94243  1.0000
  C   C78       1.0  0.21988  0.15304  0.96015  1.0000
  S   S43       1.0  0.06093  0.42435  0.82221  1.0000
  C   C79       1.0  0.04856  0.34339  0.88160  1.0000
  C   C80       1.0  0.04508  0.38931  0.87874  1.0000
  C   C81       1.0  0.04893  0.41473  0.86085  1.0000
  C   C82       1.0  0.05612  0.39439  0.84538  1.0000
  C   C83       1.0  0.05955  0.34836  0.84823  1.0000
  C   C84       1.0  0.05587  0.32304  0.86622  1.0000
  H   H133      1.0  0.03933  0.40548  0.89042  1.0000
  H   H134      1.0  0.04613  0.45001  0.85888  1.0000
  H   H135      1.0  0.06505  0.33223  0.83633  1.0000
  H   H136      1.0  0.05848  0.28775  0.86799  1.0000
  C   C85       1.0  0.03586  0.07378  0.89380  1.0000
  C   C86       1.0  0.02402  0.09283  0.90255  1.0000
  C   C87       1.0  0.01208  0.07730  0.89980  1.0000
  C   C88       1.0  0.01186  0.04216  0.88857  1.0000
  C   C89       1.0  0.02371  0.02268  0.88009  1.0000
  C   C90       1.0  0.03563  0.03867  0.88258  1.0000
  H   H137      1.0  0.02406  0.11953  0.91138  1.0000
  H   H138      1.0  0.19682  0.24087  0.95277  1.0000
  H   H139      1.0  0.19868  0.18931  0.94251  1.0000
  C   C91       1.0  0.13269  0.09765  0.94425  1.0000
  C   C92       1.0  0.11986  0.08513  0.94763  1.0000
  C   C93       1.0  0.10892  0.11555  0.94309  1.0000
  C   C94       1.0  0.11071  0.15910  0.93547  1.0000
  C   C95       1.0  0.12353  0.17156  0.93205  1.0000
  C   C96       1.0  0.13448  0.14093  0.93624  1.0000
  H   H140      1.0  0.11838  0.05166  0.95377  1.0000
  H   H141      1.0  0.09913  0.10541  0.94561  1.0000
  H   H142      1.0  0.12503  0.20516  0.92617  1.0000
  H   H143      1.0  0.14429  0.15102  0.93359  1.0000
  C   C97       1.0  0.22290  0.25743  0.89109  1.0000
  C   C98       1.0  0.21156  0.23597  0.89081  1.0000
  C   C99       1.0  0.21098  0.19202  0.89939  1.0000
  H   H144      1.0  0.22313  0.29146  0.88472  1.0000
  N   N12       1.0  0.09094  0.31902  0.89303  1.0000
  C   C100      1.0  0.08815  0.36082  0.88012  1.0000
  C   C101      1.0  0.10385  0.31797  0.90075  1.0000
  C   C102      1.0  0.09111  0.28127  0.88158  1.0000
  C   C103      1.0  0.08064  0.31582  0.90971  1.0000
  H   H145      1.0  0.07835  0.36305  0.87437  1.0000
  H   H146      1.0  0.09554  0.36405  0.86710  1.0000
  H   H147      1.0  0.08811  0.39005  0.88820  1.0000
  H   H148      1.0  0.10623  0.28661  0.91046  1.0000
  H   H149      1.0  0.11186  0.32041  0.88856  1.0000
  H   H150      1.0  0.10406  0.34571  0.90964  1.0000
  H   H151      1.0  0.09878  0.28255  0.86887  1.0000
  H   H152      1.0  0.08153  0.28090  0.87556  1.0000
  H   H153      1.0  0.09317  0.24921  0.89092  1.0000
  H   H154      1.0  0.08005  0.34410  0.91852  1.0000
  H   H155      1.0  0.08252  0.28495  0.91988  1.0000
  H   H156      1.0  0.07080  0.31569  0.90446  1.0000
  H   H157      1.0  0.04440  0.20653  0.86062  1.0000
  H   H158      1.0  0.19572  0.14999  0.97758  1.0000
  C   C104      1.0  0.14199  0.02183  0.90522  1.0000
  H   H159      1.0  0.22588  0.23549  0.96123  1.0000
  C   C105      1.0  0.23331  0.19070  0.90806  1.0000
  H   H160      1.0  0.01439  0.28551  0.85512  1.0000
  H   H161      1.0  0.01890  0.16372  0.86921  1.0000
  H   H162      1.0  0.02456  0.19209  0.84595  1.0000
  H   H163      1.0  0.22458  0.13428  0.97303  1.0000
  H   H164      1.0  0.03849  0.17878  0.88385  1.0000
  H   H165      1.0  0.00630  0.24719  0.88754  1.0000
  C   C106      1.0  0.22197  0.16932  0.90785  1.0000
  H   H166      1.0  0.02075  0.25711  0.89813  1.0000
  Fe  Fe23      1.0  0.18970  0.00319  0.92215  1.0000
  S   S44       1.0  0.18104  0.00386  0.95396  1.0000
  C   C107      1.0  0.23379  0.23493  0.89989  1.0000
  H   H167      1.0  0.14921  0.04526  0.90661  1.0000
  H   H168      1.0  0.06660  0.17073  0.98464  1.0000
  H   H169      1.0  0.01638  0.20180  0.89940  1.0000
  H   H170      1.0  0.21112  0.22628  0.93674  1.0000
  H   H171      1.0  0.19374  0.20343  0.98625  1.0000
  H   H172      1.0  0.04263  0.23434  0.88242  1.0000
  H   H173      1.0  0.08161  0.08270  0.97435  1.0000
  C   C108      1.0  0.21846  0.22312  0.97303  1.0000
  N   N13       1.0  0.02450  0.22844  0.87079  1.0000
  C   C109      1.0  0.01885  0.19686  0.86038  1.0000
  C   C110      1.0  0.03811  0.21130  0.87457  1.0000
  C   C111      1.0  0.01662  0.23386  0.88980  1.0000
  C   C112      1.0  0.02449  0.27171  0.85852  1.0000
  H   H174      1.0  0.00851  0.20836  0.85744  1.0000
  C   C113      1.0  0.20406  0.21287  0.94879  1.0000
  H   H175      1.0  0.13711  0.03362  0.89152  1.0000
  H   H176      1.0  0.21195  0.25227  0.97768  1.0000
  H   H177      1.0  0.00296  0.09254  0.90645  1.0000
  H   H178      1.0  0.04473  0.02375  0.87571  1.0000
  H   H179      1.0  0.16640  0.99457  0.88889  1.0000
  H   H180      1.0  0.02368  0.99573  0.87135  1.0000
  H   H181      1.0  0.03060  0.26920  0.84424  1.0000
  H   H182      1.0  0.22783  0.16349  0.94891  1.0000
  H   H183      1.0  0.02851  0.29635  0.86620  1.0000
  C   C114      1.0  0.20110  0.17595  0.98202  1.0000
  S   S45       1.0  0.03952  0.15028  0.98610  1.0000
  S   S46       1.0  0.20923  0.05413  0.98331  1.0000
  H   H184      1.0  0.21459  0.12940  0.95376  1.0000
  C   C115      1.0  0.07732  0.16403  0.98622  1.0000
  H   H185      1.0  0.24300  0.23324  0.83890  1.0000
  H   H186      1.0  0.10036  0.11349  0.98553  1.0000
  H   H187      1.0  0.13444  0.02444  0.91800  1.0000
  S   S47       1.0  0.99652  0.02432  0.88545  1.0000
  H   H188      1.0  0.24175  0.17288  0.91470  1.0000
  H   H189      1.0  0.08252  0.16409  0.97111  1.0000
  H   H190      1.0  0.22381  0.20771  0.98590  1.0000
  C   C116      1.0  0.07629  0.08533  0.98922  1.0000
  H   H191      1.0  0.06557  0.09049  0.98733  1.0000
  H   H192      1.0  0.22224  0.48882  0.87947  1.0000
  H   H193      1.0  0.99978  0.48893  0.68759  1.0000
  H   H194      1.0  0.08027  0.19226  0.99278  1.0000
  H   H195      1.0  0.02181  0.89370  0.17177  1.0000
  S   S48       1.0  0.06263  0.92916  0.32094  1.0000
  H   H196      1.0  0.10485  0.89190  0.31072  1.0000
  H   H197      1.0  0.02708  0.92316  0.13669  1.0000
  H   H198      1.0  0.03519  0.95726  0.16361  1.0000
  H   H199      1.0  0.11903  0.95290  0.30758  1.0000
  H   H200      1.0  0.22489  0.95823  0.10057  1.0000
  H   H201      1.0  0.01961  0.97654  0.12731  1.0000
  C   C117      1.0  0.01805  0.94669  0.13800  1.0000
  N   N14       1.0  0.01490  0.95822  0.15838  1.0000
  H   H202      1.0  0.01039  0.92555  0.18750  1.0000
  C   C118      1.0  0.01286  0.91782  0.17202  1.0000
  H   H203      1.0  0.00465  0.90121  0.16795  1.0000
  C   C119      1.0  0.23346  0.98245  0.06309  1.0000
  H   H204      1.0  0.00987  0.93147  0.13297  1.0000
  H   H205      1.0  0.22990  0.94922  0.06501  1.0000
  H   H206      1.0  0.99428  0.97454  0.15492  1.0000
  C   C120      1.0  0.02583  0.97937  0.16423  1.0000
  C   C121      1.0  0.11065  0.97321  0.31471  1.0000
  H   H207      1.0  0.09091  0.93133  0.30579  1.0000
  H   H208      1.0  0.24063  0.98449  0.04977  1.0000
  H   H209      1.0  0.02375  0.98869  0.17952  1.0000
  C   C122      1.0  0.09686  0.91396  0.31771  1.0000
  C   C123      1.0  0.00279  0.98917  0.15925  1.0000
  C   C124      1.0  0.22920  0.99021  0.09782  1.0000
  H   H210      1.0  0.09027  0.89286  0.32768  1.0000
  Fe  Fe24      1.0  0.19377  0.54064  0.46163  1.0000
  S   S49       1.0  0.19046  0.60947  0.44623  1.0000
  S   S50       1.0  0.19700  0.52556  0.49491  1.0000
  C   C125      1.0  0.21857  0.69326  0.41986  1.0000
  S   S51       1.0  0.18674  0.56526  0.40587  1.0000
  Fe  Fe25      1.0  0.20333  0.58447  0.42068  1.0000
  S   S52       1.0  0.21877  0.61926  0.40033  1.0000
  Fe  Fe26      1.0  0.17405  0.58499  0.43274  1.0000
  S   S53       1.0  0.15649  0.63704  0.42954  1.0000
  S   S54       1.0  0.20781  0.51648  0.43662  1.0000
  H   H211      1.0  0.21210  0.67751  0.43136  1.0000
  H   H212      1.0  0.23897  0.79718  0.47820  1.0000
  S   S55       1.0  0.21613  0.59355  0.62637  1.0000
  H   H213      1.0  0.20679  0.65652  0.52466  1.0000
  S   S56       1.0  0.22100  0.69144  0.60726  1.0000
  Fe  Fe27      1.0  0.21891  0.65674  0.63843  1.0000
  Fe  Fe28      1.0  0.22044  0.62658  0.59524  1.0000
  S   S57       1.0  0.21139  0.62784  0.56537  1.0000
  H   H214      1.0  0.04212  0.61104  0.65577  1.0000
  H   H215      1.0  0.09021  0.55962  0.40032  1.0000
  Fe  Fe29      1.0  0.07744  0.65288  0.43495  1.0000
  S   S58       1.0  0.06890  0.71443  0.44872  1.0000
  S   S59       1.0  0.09596  0.60450  0.43848  1.0000
  Fe  Fe30      1.0  0.05250  0.64754  0.41511  1.0000
  S   S60       1.0  0.04216  0.70809  0.42731  1.0000
  S   S61       1.0  0.04693  0.60638  0.39243  1.0000
  Fe  Fe31      1.0  0.06113  0.73833  0.41892  1.0000
  S   S62       1.0  0.06006  0.81132  0.40553  1.0000
  Fe  Fe32      1.0  0.05042  0.68050  0.45622  1.0000
  S   S63       1.0  0.03563  0.68371  0.48365  1.0000
  S   S64       1.0  0.07106  0.67934  0.40492  1.0000
  S   S65       1.0  0.05934  0.61779  0.44433  1.0000
  Fe  Fe33      1.0  0.01862  0.62016  0.60054  1.0000
  S   S66       1.0  0.01275  0.55724  0.61827  1.0000
  S   S67       1.0  0.03566  0.61475  0.57625  1.0000
  C   C126      1.0  0.23607  0.75251  0.64345  1.0000
  H   H216      1.0  0.05119  0.73842  0.35693  1.0000
  Fe  Fe34      1.0  0.01423  0.58973  0.64563  1.0000
  H   H217      1.0  0.02657  0.69668  0.39632  1.0000
  N   N15       1.0  0.07689  0.51258  0.41323  1.0000
  S   S68       1.0  0.02173  0.64971  0.62797  1.0000
  C   C127      1.0  0.23041  0.75677  0.40656  1.0000
  H   H218      1.0  0.15300  0.52209  0.50602  1.0000
  C   C128      1.0  0.03248  0.57989  0.39258  1.0000
  C   C129      1.0  0.03249  0.54734  0.37989  1.0000
  H   H219      1.0  0.03939  0.55496  0.63441  1.0000
  C   C130      1.0  0.00935  0.54021  0.38968  1.0000
  C   C131      1.0  0.00938  0.57268  0.40244  1.0000
  C   C132      1.0  0.02092  0.59198  0.40411  1.0000
  C   C133      1.0  0.22184  0.73595  0.42120  1.0000
  C   C134      1.0  0.22746  0.51053  0.59167  1.0000
  H   H220      1.0  0.02074  0.61688  0.41399  1.0000
  C   C135      1.0  0.03597  0.66380  0.50931  1.0000
  C   C136      1.0  0.02453  0.67134  0.52212  1.0000
  C   C137      1.0  0.02424  0.65651  0.54254  1.0000
  C   C138      1.0  0.03544  0.63390  0.55050  1.0000
  C   C139      1.0  0.04690  0.62627  0.53770  1.0000
  C   C140      1.0  0.04718  0.64103  0.51725  1.0000
  H   H221      1.0  0.01580  0.68893  0.51622  1.0000
  H   H222      1.0  0.01535  0.66279  0.55210  1.0000
  H   H223      1.0  0.05563  0.60888  0.54362  1.0000
  H   H224      1.0  0.05606  0.63498  0.50766  1.0000
  C   C141      1.0  0.06192  0.89717  0.34467  1.0000
  C   C142      1.0  0.05911  0.91638  0.36227  1.0000
  C   C143      1.0  0.05866  0.88957  0.38065  1.0000
  C   C144      1.0  0.06105  0.84322  0.38180  1.0000
  C   C145      1.0  0.06404  0.82402  0.36419  1.0000
  C   C146      1.0  0.06440  0.85081  0.34579  1.0000
  H   H225      1.0  0.01565  0.76662  0.35141  1.0000
  H   H226      1.0  0.05635  0.90490  0.39414  1.0000
  H   H227      1.0  0.06617  0.78861  0.36478  1.0000
  C   C147      1.0  0.04894  0.56227  0.62622  1.0000
  H   H228      1.0  0.23468  0.50267  0.55353  1.0000
  C   C148      1.0  0.13972  0.62730  0.43203  1.0000
  C   C149      1.0  0.13584  0.58478  0.43655  1.0000
  C   C150      1.0  0.12240  0.57857  0.43852  1.0000
  C   C151      1.0  0.11270  0.61464  0.43597  1.0000
  C   C152      1.0  0.11659  0.65716  0.43152  1.0000
  C   C153      1.0  0.13003  0.66340  0.42959  1.0000
  H   H229      1.0  0.14317  0.55667  0.43840  1.0000
  H   H230      1.0  0.11950  0.54555  0.44196  1.0000
  H   H231      1.0  0.10924  0.68521  0.42957  1.0000
  H   H232      1.0  0.13291  0.69645  0.42616  1.0000
  C   C154      1.0  0.22360  0.67127  0.40360  1.0000
  C   C155      1.0  0.23225  0.69191  0.38904  1.0000
  H   H233      1.0  0.05318  0.53221  0.61937  1.0000
  Fe  Fe35      1.0  0.00050  0.67758  0.62785  1.0000
  N   N16       1.0  0.22834  0.79601  0.64021  1.0000
  C   C156      1.0  0.20155  0.55459  0.51395  1.0000
  C   C157      1.0  0.22188  0.80817  0.65935  1.0000
  C   C158      1.0  0.20590  0.62146  0.52703  1.0000
  C   C159      1.0  0.20789  0.59820  0.54580  1.0000
  C   C160      1.0  0.20661  0.55282  0.54847  1.0000
  C   C161      1.0  0.20342  0.53139  0.53275  1.0000
  H   H234      1.0  0.21206  0.82573  0.62413  1.0000
  H   H235      1.0  0.07563  0.56093  0.38762  1.0000
  H   H236      1.0  0.20767  0.53442  0.56280  1.0000
  C   C162      1.0  0.21826  0.79371  0.62667  1.0000
  C   C163      1.0  0.04467  0.71653  0.36652  1.0000
  H   H237      1.0  0.16652  0.53420  0.51840  1.0000
  H   H238      1.0  0.02106  0.79503  0.38191  1.0000
  H   H239      1.0  0.05033  0.64418  0.63593  1.0000
  S   S69       1.0  0.23373  0.81122  0.40870  1.0000
  C   C164      1.0  0.23570  0.73437  0.39054  1.0000
  H   H240      1.0  0.20229  0.49649  0.53523  1.0000
  N   N17       1.0  0.03112  0.73814  0.36930  1.0000
  H   H241      1.0  0.18025  0.78759  0.39574  1.0000
  C   C165      1.0  0.03115  0.77841  0.37905  1.0000
  C   C166      1.0  0.08204  0.50797  0.43281  1.0000
  H   H242      1.0  0.04679  0.58885  0.61396  1.0000
  H   H243      1.0  0.04134  0.53797  0.37076  1.0000
  C   C167      1.0  0.09106  0.97433  0.33733  1.0000
  H   H244      1.0  0.05836  0.51297  0.40131  1.0000
  H   H245      1.0  0.11364  0.94475  0.35288  1.0000
  C   C168      1.0  0.16158  0.54148  0.50447  1.0000
  H   H246      1.0  0.03712  0.80280  0.36991  1.0000
  S   S70       1.0  0.24075  0.64120  0.63996  1.0000
  H   H247      1.0  0.17697  0.60189  0.48698  1.0000
  C   C169      1.0  0.06014  0.53972  0.65567  1.0000
  H   H248      1.0  0.02115  0.50258  0.36862  1.0000
  C   C170      1.0  0.16937  0.61345  0.49849  1.0000
  H   H249      1.0  0.05715  0.95188  0.36176  1.0000
  H   H250      1.0  0.22978  0.72699  0.65075  1.0000
  Fe  Fe36      1.0  0.23819  0.57956  0.62669  1.0000
  N   N18       1.0  0.15766  0.58929  0.49988  1.0000
  H   H251      1.0  0.21795  0.49620  0.59298  1.0000
  H   H252      1.0  0.21593  0.84085  0.65757  1.0000
  H   H253      1.0  0.15874  0.58641  0.46858  1.0000
  C   C171      1.0  0.02281  0.70722  0.38166  1.0000
  H   H254      1.0  0.14286  0.57975  0.48127  1.0000
  H   H255      1.0  0.11807  0.89958  0.33832  1.0000
  H   H256      1.0  0.01251  0.72233  0.38428  1.0000
  H   H257      1.0  0.14489  0.64070  0.51272  1.0000
  H   H258      1.0  0.10339  0.90061  0.35507  1.0000
  H   H259      1.0  0.24341  0.50121  0.38784  1.0000
  H   H260      1.0  0.22812  0.52194  0.40013  1.0000
  H   H261      1.0  0.14868  0.63327  0.47677  1.0000
  H   H262      1.0  0.21774  0.75294  0.43369  1.0000
  S   S71       1.0  0.99784  0.65235  0.59915  1.0000
  H   H263      1.0  0.07531  0.55408  0.62160  1.0000
  C   C172      1.0  0.07047  0.58409  0.62799  1.0000
  C   C173      1.0  0.10966  0.92152  0.34440  1.0000
  C   C174      1.0  0.05186  0.61605  0.64772  1.0000
  H   H264      1.0  0.21205  0.52981  0.36481  1.0000
  Fe  Fe37      1.0  0.19037  0.49799  0.42304  1.0000
  H   H265      1.0  0.02578  0.72071  0.34206  1.0000
  C   C175      1.0  0.14801  0.60469  0.51571  1.0000
  H   H266      1.0  0.00038  0.58305  0.41102  1.0000
  H   H267      1.0  0.16870  0.52865  0.49264  1.0000
  H   H268      1.0  0.15218  0.59887  0.53028  1.0000
  H   H269      1.0  0.17404  0.60826  0.51266  1.0000
  H   H270      1.0  0.03544  0.77087  0.39350  1.0000
  H   H271      1.0  0.24231  0.75001  0.37916  1.0000
  H   H272      1.0  0.05730  0.53633  0.42405  1.0000
  H   H273      1.0  0.06466  0.50853  0.65000  1.0000
  H   H274      1.0  0.04500  0.68528  0.35975  1.0000
  C   C176      1.0  0.02105  0.52716  0.37863  1.0000
  C   C177      1.0  0.06258  0.50955  0.41580  1.0000
  H   H275      1.0  0.02259  0.67649  0.37468  1.0000
  H   H276      1.0  0.23172  0.86261  0.62873  1.0000
  H   H277      1.0  0.07476  0.58324  0.41059  1.0000
  H   H278      1.0  0.22907  0.51756  0.60667  1.0000
  C   C178      1.0  0.20289  0.59991  0.51121  1.0000
  N   N19       1.0  0.05786  0.57550  0.63940  1.0000
  H   H279      1.0  0.23626  0.67520  0.37642  1.0000
  H   H280      1.0  0.22282  0.78503  0.61200  1.0000
  H   H281      1.0  0.20154  0.61853  0.49695  1.0000
  C   C179      1.0  0.23718  0.82924  0.63134  1.0000
  H   H282      1.0  0.13902  0.58724  0.51712  1.0000
  H   H283      1.0  0.22463  0.97784  0.36610  1.0000
  N   N20       1.0  0.18426  0.72036  0.38936  1.0000
  C   C180      1.0  0.17784  0.68790  0.38060  1.0000
  C   C181      1.0  0.19694  0.72783  0.37786  1.0000
  C   C182      1.0  0.18661  0.70306  0.40993  1.0000
  C   C183      1.0  0.17566  0.76244  0.38922  1.0000
  H   H284      1.0  0.18416  0.65592  0.38037  1.0000
  H   H285      1.0  0.17572  0.69995  0.36513  1.0000
  H   H286      1.0  0.16838  0.68075  0.38924  1.0000
  H   H287      1.0  0.20351  0.69641  0.37725  1.0000
  H   H288      1.0  0.19557  0.74212  0.36237  1.0000
  H   H289      1.0  0.20232  0.75076  0.38455  1.0000
  H   H290      1.0  0.19136  0.72669  0.41714  1.0000
  H   H291      1.0  0.19316  0.67155  0.41045  1.0000
  H   H292      1.0  0.17729  0.69641  0.41903  1.0000
  H   H293      1.0  0.16605  0.75781  0.39792  1.0000
  H   H294      1.0  0.17361  0.77642  0.37392  1.0000
  C   C184      1.0  0.15172  0.59751  0.48086  1.0000
  C   C185      1.0  0.02588  0.75033  0.34985  1.0000
  S   S72       1.0  0.17650  0.51677  0.44949  1.0000
  H   H295      1.0  0.04897  0.70773  0.38089  1.0000
  H   H296      1.0  0.16689  0.64958  0.49468  1.0000
  H   H297      1.0  0.07739  0.59472  0.63743  1.0000
  H   H298      1.0  0.06899  0.61063  0.61548  1.0000
  C   C186      1.0  0.23301  0.51347  0.38563  1.0000
  H   H299      1.0  0.23314  0.50013  0.34757  1.0000
  C   C187      1.0  0.21257  0.49850  0.37498  1.0000
  H   H300      1.0  0.07728  0.53431  0.44175  1.0000
  H   H301      1.0  0.21159  0.76817  0.63271  1.0000
  H   H302      1.0  0.24211  0.82068  0.61683  1.0000
  H   H303      1.0  0.09277  0.51103  0.43143  1.0000
  C   C188      1.0  0.07952  0.55585  0.40238  1.0000
  H   H304      1.0  0.23824  0.78051  0.45415  1.0000
  H   H305      1.0  0.23295  0.54496  0.37555  1.0000
  H   H306      1.0  0.03193  0.77367  0.34014  1.0000
  H   H307      1.0  0.22636  0.54275  0.58216  1.0000
  H   H308      1.0  0.08436  0.95494  0.34791  1.0000
  S   S73       1.0  0.24226  0.60978  0.59528  1.0000
  H   H309      1.0  0.20712  0.50556  0.38928  1.0000
  Fe  Fe38      1.0  0.24266  0.67329  0.60833  1.0000
  H   H310      1.0  0.06668  0.83551  0.33230  1.0000
  H   H311      1.0  0.05804  0.62614  0.65839  1.0000
  H   H312      1.0  0.24066  0.74138  0.62925  1.0000
  S   S74       1.0  0.99634  0.74729  0.63652  1.0000
  S   S75       1.0  0.99433  0.51941  0.38701  1.0000
  H   H313      1.0  0.24406  0.75315  0.65308  1.0000
  N   N21       1.0  0.10207  0.94572  0.32853  1.0000
  H   H314      1.0  0.24406  0.85334  0.43883  1.0000
  Fe  Fe39      1.0  0.16290  0.71447  0.80737  1.0000
  S   S76       1.0  0.17522  0.76664  0.79122  1.0000
  S   S77       1.0  0.14168  0.71962  0.79905  1.0000
  Fe  Fe40      1.0  0.18635  0.66770  0.82852  1.0000
  S   S78       1.0  0.20002  0.71564  0.81323  1.0000
  S   S79       1.0  0.19198  0.61276  0.85276  1.0000
  Fe  Fe41      1.0  0.18358  0.76858  0.82058  1.0000
  S   S80       1.0  0.18776  0.83294  0.83277  1.0000
  Fe  Fe42      1.0  0.19051  0.70965  0.78536  1.0000
  S   S81       1.0  0.20277  0.69123  0.75658  1.0000
  S   S82       1.0  0.17016  0.72041  0.83677  1.0000
  S   S83       1.0  0.17793  0.65787  0.80069  1.0000
  H   H315      1.0  0.07575  0.62752  0.87264  1.0000
  S   S84       1.0  0.18912  0.93608  0.90958  1.0000
  H   H316      1.0  0.21388  0.67192  0.84968  1.0000
  H   H317      1.0  0.07798  0.66084  0.81854  1.0000
  Fe  Fe43      1.0  0.07756  0.57463  0.80384  1.0000
  S   S85       1.0  0.06513  0.54733  0.83054  1.0000
  S   S86       1.0  0.09827  0.58265  0.81175  1.0000
  Fe  Fe44      1.0  0.05539  0.57143  0.77651  1.0000
  S   S87       1.0  0.04171  0.54406  0.80192  1.0000
  S   S88       1.0  0.04958  0.59932  0.74529  1.0000
  Fe  Fe45      1.0  0.04856  0.59425  0.81881  1.0000
  S   S89       1.0  0.03563  0.62993  0.84217  1.0000
  C   C189      1.0  0.17305  0.63448  0.74741  1.0000
  S   S90       1.0  0.06121  0.62438  0.79316  1.0000
  S   S91       1.0  0.07284  0.52355  0.78542  1.0000
  C   C190      1.0  0.04136  0.58380  0.72592  1.0000
  C   C191      1.0  0.03699  0.61680  0.71109  1.0000
  C   C192      1.0  0.03088  0.60639  0.69502  1.0000
  C   C193      1.0  0.02932  0.56248  0.69321  1.0000
  C   C194      1.0  0.03365  0.52942  0.70803  1.0000
  C   C195      1.0  0.03953  0.53996  0.72434  1.0000
  H   H318      1.0  0.03830  0.65083  0.71214  1.0000
  H   H319      1.0  0.02745  0.63246  0.68402  1.0000
  H   H320      1.0  0.14158  0.64790  0.76829  1.0000
  H   H321      1.0  0.14949  0.71966  0.75500  1.0000
  C   C196      1.0  0.02195  0.77833  0.84105  1.0000
  C   C197      1.0  0.03080  0.76289  0.82575  1.0000
  C   C198      1.0  0.03462  0.71742  0.82535  1.0000
  C   C199      1.0  0.02995  0.68697  0.84065  1.0000
  C   C200      1.0  0.02107  0.70237  0.85592  1.0000
  C   C201      1.0  0.01696  0.74779  0.85602  1.0000
  H   H322      1.0  0.03467  0.78633  0.81408  1.0000
  H   H323      1.0  0.04122  0.70609  0.81329  1.0000
  H   H324      1.0  0.01741  0.67906  0.86782  1.0000
  H   H325      1.0  0.01024  0.75925  0.86795  1.0000
  Fe  Fe46      1.0  0.00037  0.87363  0.85640  1.0000
  C   C202      1.0  0.18785  0.86122  0.85440  1.0000
  C   C203      1.0  0.18452  0.84192  0.87369  1.0000
  C   C204      1.0  0.18519  0.86497  0.89019  1.0000
  C   C205      1.0  0.18889  0.90829  0.88789  1.0000
  C   C206      1.0  0.19190  0.92806  0.86859  1.0000
  C   C207      1.0  0.19150  0.90463  0.85211  1.0000
  H   H326      1.0  0.18129  0.80938  0.87595  1.0000
  H   H327      1.0  0.18265  0.84922  0.90491  1.0000
  H   H328      1.0  0.19473  0.96127  0.86632  1.0000
  H   H329      1.0  0.19406  0.92037  0.83739  1.0000
  C   C208      1.0  0.12964  0.68138  0.80316  1.0000
  C   C209      1.0  0.13198  0.63937  0.81352  1.0000
  C   C210      1.0  0.12226  0.60982  0.81591  1.0000
  C   C211      1.0  0.11011  0.62159  0.80792  1.0000
  C   C212      1.0  0.10777  0.66362  0.79754  1.0000
  C   C213      1.0  0.11747  0.69326  0.79521  1.0000
  H   H330      1.0  0.14125  0.62960  0.81973  1.0000
  H   H331      1.0  0.12420  0.57746  0.82400  1.0000
  H   H332      1.0  0.09852  0.67323  0.79121  1.0000
  H   H333      1.0  0.11555  0.72560  0.78709  1.0000
  C   C214      1.0  0.20329  0.69277  0.73017  1.0000
  C   C215      1.0  0.19415  0.71941  0.71887  1.0000
  C   C216      1.0  0.19492  0.71883  0.69813  1.0000
  C   C217      1.0  0.20484  0.69180  0.68821  1.0000
  C   C218      1.0  0.21405  0.66549  0.69948  1.0000
  C   C219      1.0  0.21327  0.66607  0.72021  1.0000
  H   H334      1.0  0.18659  0.74087  0.72608  1.0000
  H   H335      1.0  0.18777  0.73963  0.68968  1.0000
  H   H336      1.0  0.22176  0.64447  0.69226  1.0000
  H   H337      1.0  0.22045  0.64534  0.72865  1.0000
  H   H338      1.0  0.15184  0.59741  0.76494  1.0000
  C   C220      1.0  0.20896  0.54339  0.86749  1.0000
  C   C221      1.0  0.20673  0.57668  0.85173  1.0000
  H   H339      1.0  0.19142  0.69564  0.86385  1.0000
  C   C222      1.0  0.15961  0.70264  0.75279  1.0000
  H   H340      1.0  0.04286  0.51412  0.73552  1.0000
  N   N22       1.0  0.20921  0.71047  0.87401  1.0000
  H   H341      1.0  0.13340  0.95549  0.88980  1.0000
  H   H342      1.0  0.15849  0.67141  0.71822  1.0000
  H   H343      1.0  0.15996  0.92829  0.92364  1.0000
  C   C223      1.0  0.23025  0.51876  0.85139  1.0000
  H   H344      1.0  0.21514  0.78343  0.66625  1.0000
  H   H345      1.0  0.21996  0.66079  0.89293  1.0000
  C   C224      1.0  0.19551  0.72308  0.86935  1.0000
  Fe  Fe47      1.0  0.05942  0.49919  0.81197  1.0000
  H   H346      1.0  0.22918  0.80958  0.67004  1.0000
  C   C225      1.0  0.15308  0.65433  0.73136  1.0000
  C   C226      1.0  0.22066  0.51443  0.86732  1.0000
  H   H347      1.0  0.14295  0.91143  0.90345  1.0000
  H   H348      1.0  0.23540  0.55591  0.82332  1.0000
  H   H349      1.0  0.00463  0.96431  0.91785  1.0000
  H   H350      1.0  0.15394  0.98610  0.87367  1.0000
  N   N23       1.0  0.15944  0.65606  0.74954  1.0000
  H   H351      1.0  0.16451  0.70523  0.76622  1.0000
  H   H352      1.0  0.15620  0.63482  0.78065  1.0000
  H   H353      1.0  0.20809  0.75688  0.89528  1.0000
  S   S92       1.0  0.02260  0.54687  0.67238  1.0000
  H   H354      1.0  0.15271  0.61963  0.72852  1.0000
  C   C227      1.0  0.21745  0.69959  0.85594  1.0000
  H   H355      1.0  0.16498  0.72141  0.74015  1.0000
  C   C228      1.0  0.21408  0.74786  0.88161  1.0000
  C   C229      1.0  0.21634  0.58109  0.83585  1.0000
  H   H356      1.0  0.06080  0.67056  0.82648  1.0000
  H   H357      1.0  0.07036  0.71626  0.82008  1.0000
  H   H358      1.0  0.08070  0.60926  0.84880  1.0000
  H   H359      1.0  0.21474  0.60647  0.82361  1.0000
  C   C230      1.0  0.07058  0.68168  0.82735  1.0000
  H   H360      1.0  0.06357  0.62025  0.85677  1.0000
  C   C231      1.0  0.15196  0.63292  0.76655  1.0000
  H   H361      1.0  0.05078  0.53247  0.66450  1.0000
  C   C232      1.0  0.07342  0.63175  0.85700  1.0000
  H   H362      1.0  0.03253  0.49530  0.70689  1.0000
  H   H363      1.0  0.08730  0.72684  0.84180  1.0000
  H   H364      1.0  0.17331  0.59893  0.74556  1.0000
  N   N24       1.0  0.07361  0.67812  0.84807  1.0000
  C   C233      1.0  0.22805  0.55231  0.83572  1.0000
  H   H365      1.0  0.22445  0.73989  0.88513  1.0000
  H   H366      1.0  0.22783  0.68921  0.85895  1.0000
  H   H367      1.0  0.21735  0.72841  0.84429  1.0000
  C   C234      1.0  0.08677  0.69218  0.84870  1.0000
  H   H368      1.0  0.20612  0.64276  0.88362  1.0000
  H   H369      1.0  0.08942  0.69000  0.86413  1.0000
  H   H370      1.0  0.20157  0.53976  0.87984  1.0000
  H   H371      1.0  0.16291  0.93983  0.88675  1.0000
  H   H372      1.0  0.18901  0.73186  0.88258  1.0000
  H   H373      1.0  0.06321  0.74172  0.85244  1.0000
  H   H374      1.0  0.06556  0.70508  0.87479  1.0000
  H   H375      1.0  0.21358  0.77793  0.87059  1.0000
  H   H376      1.0  0.19476  0.75180  0.85769  1.0000
  S   S93       1.0  0.01835  0.83605  0.84160  1.0000
  C   C235      1.0  0.06360  0.70660  0.85906  1.0000
  H   H377      1.0  0.09447  0.67100  0.84049  1.0000
  H   H378      1.0  0.17836  0.63659  0.76051  1.0000
  H   H379      1.0  0.05359  0.69627  0.85888  1.0000
  H   H380      1.0  0.14281  0.67054  0.73246  1.0000
  H   H381      1.0  0.20356  0.67818  0.90287  1.0000
  H   H382      1.0  0.17884  0.65036  0.73438  1.0000
  C   C236      1.0  0.20975  0.67142  0.88907  1.0000
  H   H383      1.0  0.00404  0.91048  0.93121  1.0000
  S   S94       1.0  0.99653  0.94347  0.84140  1.0000
  S   S95       1.0  0.99799  0.89350  0.88743  1.0000
  S   S96       1.0  0.20531  0.69290  0.66184  1.0000
  H   H384      1.0  0.06669  0.54877  0.66609  1.0000
  H   H385      1.0  0.13078  0.94699  0.91630  1.0000
  C   C237      1.0  0.00238  0.94640  0.93277  1.0000
  C   C238      1.0  0.13842  0.94620  0.90357  1.0000
  H   H386      1.0  0.16243  0.98431  0.92494  1.0000
  C   C239      1.0  0.15486  0.96239  0.92338  1.0000
  H   H387      1.0  0.14773  0.96381  0.93672  1.0000
  N   N25       1.0  0.14840  0.97619  0.90499  1.0000
  C   C240      1.0  0.15831  0.97419  0.88780  1.0000
  H   H388      1.0  0.00969  0.95382  0.94239  1.0000
  Fe  Fe48      1.0  0.32767  0.44373  0.05120  1.0000
  S   S97       1.0  0.34904  0.42915  0.03902  1.0000
  Fe  Fe49      1.0  0.30331  0.41296  0.07582  1.0000
  S   S98       1.0  0.29687  0.35235  0.09552  1.0000
  C   C241      1.0  0.40504  0.26088  0.09982  1.0000
  S   S99       1.0  0.31217  0.40254  0.04520  1.0000
  S   S100      1.0  0.31997  0.44871  0.08281  1.0000
  H   H389      1.0  0.40976  0.23538  0.11066  1.0000
  Fe  Fe50      1.0  0.42206  0.36086  0.07344  1.0000
  S   S101      1.0  0.42814  0.30840  0.05311  1.0000
  S   S102      1.0  0.40073  0.38109  0.08460  1.0000
  Fe  Fe51      1.0  0.45029  0.36197  0.08426  1.0000
  S   S103      1.0  0.45770  0.30753  0.06559  1.0000
  S   S104      1.0  0.46611  0.38528  0.10028  1.0000
  Fe  Fe52      1.0  0.44561  0.34643  0.04244  1.0000
  S   S105      1.0  0.45822  0.36291  0.01323  1.0000
  Fe  Fe53      1.0  0.43976  0.27447  0.07806  1.0000
  S   S106      1.0  0.43906  0.19961  0.08624  1.0000
  S   S107      1.0  0.43858  0.40188  0.06106  1.0000
  S   S108      1.0  0.43331  0.32576  0.09853  1.0000
  H   H390      1.0  0.28046  0.39558  0.04007  1.0000
  C   C242      1.0  0.40595  0.20936  0.07585  1.0000
  S   S109      1.0  0.42703  0.07527  0.16744  1.0000
  H   H391      1.0  0.38027  0.24129  0.10809  1.0000
  H   H392      1.0  0.38081  0.20305  0.09017  1.0000
  C   C243      1.0  0.43064  0.10889  0.14465  1.0000
  C   C244      1.0  0.43422  0.09131  0.12676  1.0000
  C   C245      1.0  0.43682  0.11956  0.10915  1.0000
  C   C246      1.0  0.43603  0.16569  0.10912  1.0000
  C   C247      1.0  0.43257  0.18324  0.12705  1.0000
  C   C248      1.0  0.42984  0.15504  0.14462  1.0000
  H   H393      1.0  0.43490  0.05600  0.12644  1.0000
  H   H394      1.0  0.43949  0.10548  0.09541  1.0000
  H   H395      1.0  0.43197  0.21854  0.12738  1.0000
  H   H396      1.0  0.42707  0.16916  0.15832  1.0000
  H   H397      1.0  0.46833  0.03231  0.22240  1.0000
  C   C249      1.0  0.48114  0.45088  0.10457  1.0000
  C   C250      1.0  0.46868  0.44104  0.10095  1.0000
  H   H398      1.0  0.46849  0.08898  0.17098  1.0000
  H   H399      1.0  0.41391  0.22566  0.06647  1.0000
  H   H400      1.0  0.39862  0.29543  0.06393  1.0000
  S   S110      1.0  0.28666  0.46961  0.01025  1.0000
  H   H401      1.0  0.25078  0.35670  0.08110  1.0000
  H   H402      1.0  0.41088  0.18259  0.08594  1.0000
  C   C251      1.0  0.27187  0.30597  0.02212  1.0000
  S   S111      1.0  0.26651  0.05616  0.11749  1.0000
  C   C252      1.0  0.46824  0.03847  0.20604  1.0000
  C   C253      1.0  0.36323  0.41454  0.05204  1.0000
  C   C254      1.0  0.37558  0.40845  0.04126  1.0000
  C   C255      1.0  0.38716  0.39792  0.05094  1.0000
  C   C256      1.0  0.38651  0.39380  0.07155  1.0000
  C   C257      1.0  0.37415  0.39953  0.08235  1.0000
  C   C258      1.0  0.36256  0.40957  0.07267  1.0000
  H   H403      1.0  0.39129  0.19127  0.11000  1.0000
  H   H404      1.0  0.39658  0.39354  0.04244  1.0000
  H   H405      1.0  0.37354  0.39600  0.09831  1.0000
  H   H406      1.0  0.35312  0.41347  0.08114  1.0000
  C   C259      1.0  0.28177  0.33037  0.09519  1.0000
  C   C260      1.0  0.28062  0.28625  0.10305  1.0000
  C   C261      1.0  0.26885  0.26726  0.10270  1.0000
  C   C262      1.0  0.25805  0.29250  0.09472  1.0000
  C   C263      1.0  0.25913  0.33681  0.08714  1.0000
  C   C264      1.0  0.27094  0.35564  0.08728  1.0000
  H   H407      1.0  0.28894  0.26649  0.10925  1.0000
  H   H408      1.0  0.26817  0.23312  0.10860  1.0000
  H   H409      1.0  0.44882  0.46798  0.09665  1.0000
  H   H410      1.0  0.27165  0.38979  0.08141  1.0000
  N   N26       1.0  0.28114  0.33338  0.02850  1.0000
  C   C265      1.0  0.29117  0.34364  0.01201  1.0000
  C   C266      1.0  0.28757  0.30904  0.04554  1.0000
  C   C267      1.0  0.27389  0.37494  0.03427  1.0000
  H   H411      1.0  0.44244  0.03701  0.20415  1.0000
  C   C268      1.0  0.26913  0.00376  0.13148  1.0000
  Fe  Fe54      1.0  0.24766  0.10284  0.11689  1.0000
  H   H412      1.0  0.34418  0.48281  0.09796  1.0000
  H   H413      1.0  0.46210  0.11275  0.22336  1.0000
  H   H414      1.0  0.28655  0.35961  0.99855  1.0000
  H   H415      1.0  0.29777  0.36688  0.01581  1.0000
  C   C269      1.0  0.45865  0.08260  0.17835  1.0000
  Fe  Fe55      1.0  0.30028  0.46614  0.03547  1.0000
  H   H416      1.0  0.24874  0.99583  0.13971  1.0000
  H   H417      1.0  0.45151  0.11093  0.17335  1.0000
  Fe  Fe56      1.0  0.42803  0.00082  0.17832  1.0000
  H   H418      1.0  0.45578  0.05305  0.17268  1.0000
  H   H419      1.0  0.38533  0.26307  0.06288  1.0000
  H   H420      1.0  0.38438  0.30085  0.08107  1.0000
  C   C270      1.0  0.44538  0.06710  0.20911  1.0000
  H   H421      1.0  0.40046  0.19369  0.06601  1.0000
  H   H422      1.0  0.43777  0.09459  0.20486  1.0000
  N   N27       1.0  0.39725  0.24121  0.08702  1.0000
  H   H423      1.0  0.28022  0.29892  0.05786  1.0000
  H   H424      1.0  0.26579  0.36859  0.04596  1.0000
  H   H425      1.0  0.41302  0.27771  0.09094  1.0000
  H   H426      1.0  0.29738  0.31345  0.00792  1.0000
  H   H427      1.0  0.45494  0.14553  0.20275  1.0000
  H   H428      1.0  0.39893  0.28614  0.10809  1.0000
  H   H429      1.0  0.47200  0.12449  0.20046  1.0000
  H   H430      1.0  0.44497  0.06128  0.22552  1.0000
  H   H431      1.0  0.29412  0.32957  0.05146  1.0000
  C   C271      1.0  0.38694  0.21816  0.09936  1.0000
  C   C272      1.0  0.39111  0.27653  0.07309  1.0000
  H   H432      1.0  0.47835  0.04397  0.19957  1.0000
  H   H433      1.0  0.37620  0.41211  0.02529  1.0000
  C   C273      1.0  0.24428  0.03468  0.07725  1.0000
  C   C274      1.0  0.46209  0.11657  0.20698  1.0000
  H   H434      1.0  0.26955  0.39540  0.02145  1.0000
  H   H435      1.0  0.24768  0.26058  0.13674  1.0000
  H   H436      1.0  0.47522  0.44802  0.17046  1.0000
  H   H437      1.0  0.46582  0.00739  0.20117  1.0000
  N   N28       1.0  0.45860  0.07618  0.20011  1.0000
  H   H438      1.0  0.48689  0.47420  0.19605  1.0000
  H   H439      1.0  0.29364  0.27853  0.04153  1.0000
  H   H440      1.0  0.48271  0.44791  0.14573  1.0000
  H   H441      1.0  0.27704  0.27452  0.01748  1.0000
  S   S112      1.0  0.29070  0.47536  0.06632  1.0000
  H   H442      1.0  0.29017  0.00133  0.12581  1.0000
  H   H443      1.0  0.26677  0.32362  0.00937  1.0000
  H   H444      1.0  0.26420  0.29743  0.03427  1.0000
  H   H445      1.0  0.24864  0.04233  0.09043  1.0000
  C   C275      1.0  0.45846  0.47518  0.09937  1.0000
  H   H446      1.0  0.48902  0.40842  0.16494  1.0000
  H   H447      1.0  0.25122  0.28698  0.15712  1.0000
  C   C276      1.0  0.48483  0.44332  0.16150  1.0000
  H   H448      1.0  0.48911  0.42463  0.10566  1.0000
  H   H449      1.0  0.25202  0.03657  0.06467  1.0000
  S   S113      1.0  0.24424  0.14216  0.08735  1.0000
  N   N29       1.0  0.49386  0.47459  0.16535  1.0000
  C   C277      1.0  0.48106  0.25729  0.64738  1.0000
  C   C278      1.0  0.31851  0.00163  0.48300  1.0000
  Fe  Fe57      1.0  0.30332  0.01691  0.57327  1.0000
  H   H450      1.0  0.31995  0.03181  0.47254  1.0000
  C   C279      1.0  0.48775  0.03341  0.55893  1.0000
  N   N30       1.0  0.46531  0.43212  0.62626  1.0000
  S   S114      1.0  0.29862  0.08214  0.58788  1.0000
  S   S115      1.0  0.47375  0.20446  0.62160  1.0000
  H   H451      1.0  0.30002  0.00503  0.61672  1.0000
  H   H452      1.0  0.25314  0.42373  0.65816  1.0000
  H   H453      1.0  0.44540  0.31118  0.65884  1.0000
  H   H454      1.0  0.27836  0.02097  0.60417  1.0000
  H   H455      1.0  0.44969  0.39767  0.61923  1.0000
  C   C280      1.0  0.45803  0.26496  0.64211  1.0000
  H   H456      1.0  0.33511  0.01276  0.50922  1.0000
  H   H457      1.0  0.37030  0.13903  0.64105  1.0000
  C   C281      1.0  0.47085  0.24475  0.63819  1.0000
  H   H458      1.0  0.32014  0.09226  0.64879  1.0000
  N   N31       1.0  0.28186  0.99341  0.63381  1.0000
  C   C282      1.0  0.26179  0.44029  0.65308  1.0000
  C   C283      1.0  0.47537  0.39546  0.62173  1.0000
  C   C284      1.0  0.45810  0.99734  0.59963  1.0000
  C   C285      1.0  0.30822  0.15295  0.64032  1.0000
  C   C286      1.0  0.30008  0.17434  0.62609  1.0000
  C   C287      1.0  0.29744  0.15238  0.61017  1.0000
  C   C288      1.0  0.30303  0.10891  0.60785  1.0000
  C   C289      1.0  0.31139  0.08781  0.62188  1.0000
  C   C290      1.0  0.31382  0.10945  0.63801  1.0000
  H   H459      1.0  0.29564  0.20764  0.62750  1.0000
  H   H460      1.0  0.29095  0.16932  0.59955  1.0000
  H   H461      1.0  0.31597  0.05475  0.62038  1.0000
  H   H462      1.0  0.45244  0.39103  0.64489  1.0000
  H   H463      1.0  0.28344  0.06319  0.62976  1.0000
  H   H464      1.0  0.48578  0.05408  0.57132  1.0000
  C   C291      1.0  0.28000  0.03702  0.64128  1.0000
  C   C292      1.0  0.27474  0.99573  0.61602  1.0000
  N   N32       1.0  0.35168  0.16912  0.65277  1.0000
  C   C293      1.0  0.28553  0.43941  0.65009  1.0000
  H   H465      1.0  0.46176  0.45221  0.59592  1.0000
  H   H466      1.0  0.48522  0.40717  0.61776  1.0000
  Fe  Fe58      1.0  0.49220  0.15615  0.62046  1.0000
  S   S116      1.0  0.25029  0.01127  0.35800  1.0000
  C   C294      1.0  0.45243  0.41493  0.63125  1.0000
  S   S117      1.0  0.31276  0.01138  0.54228  1.0000
  H   H467      1.0  0.47408  0.47981  0.60473  1.0000
  H   H468      1.0  0.46959  0.03925  0.61234  1.0000
  H   H469      1.0  0.26404  0.00483  0.61927  1.0000
  H   H470      1.0  0.46136  0.47973  0.64711  1.0000
  H   H471      1.0  0.47620  0.36977  0.63469  1.0000
  H   H472      1.0  0.34951  0.14874  0.62448  1.0000
  H   H473      1.0  0.45010  0.25553  0.63494  1.0000
  H   H474      1.0  0.47293  0.37891  0.60926  1.0000
  H   H475      1.0  0.34894  0.20751  0.62469  1.0000
  H   H476      1.0  0.48111  0.04775  0.54742  1.0000
  H   H477      1.0  0.44451  0.44205  0.63390  1.0000
  C   C295      1.0  0.33258  0.47711  0.64822  1.0000
  H   H478      1.0  0.24776  0.41488  0.59144  1.0000
  H   H479      1.0  0.27281  0.99954  0.47423  1.0000
  H   H480      1.0  0.44933  0.02054  0.60005  1.0000
  H   H481      1.0  0.33521  0.17916  0.63527  1.0000
  S   S118      1.0  0.30148  0.41286  0.65368  1.0000
  C   C296      1.0  0.46454  0.46602  0.60894  1.0000
  C   C297      1.0  0.34613  0.17639  0.63343  1.0000
  H   H482      1.0  0.31327  0.01242  0.49692  1.0000
  C   C298      1.0  0.46957  0.00805  0.60658  1.0000
  H   H483      1.0  0.26948  0.04709  0.64568  1.0000
  H   H484      1.0  0.46944  0.42744  0.65659  1.0000
  H   H485      1.0  0.34019  0.47130  0.63579  1.0000
  H   H486      1.0  0.48482  0.00013  0.56472  1.0000
  H   H487      1.0  0.34920  0.23835  0.65611  1.0000
  H   H488      1.0  0.49101  0.24271  0.64407  1.0000
  C   C299      1.0  0.45535  0.29656  0.65558  1.0000
  H   H489      1.0  0.34192  0.03137  0.48479  1.0000
  C   C300      1.0  0.33972  0.00152  0.49503  1.0000
  H   H490      1.0  0.32318  0.46788  0.64404  1.0000
  H   H491      1.0  0.25928  0.47885  0.57643  1.0000
  C   C301      1.0  0.26041  0.48331  0.64313  1.0000
  C   C302      1.0  0.36615  0.16657  0.64969  1.0000
  H   H492      1.0  0.28561  0.03712  0.65429  1.0000
  C   C303      1.0  0.46882  0.45211  0.64322  1.0000
  C   C304      1.0  0.28416  0.48239  0.64004  1.0000
  H   H493      1.0  0.34629  0.39564  0.65311  1.0000
  H   H494      1.0  0.36942  0.19775  0.64157  1.0000
  H   H495      1.0  0.47846  0.46559  0.64004  1.0000
  C   C305      1.0  0.27427  0.41852  0.65668  1.0000
  S   S119      1.0  0.32189  0.29960  0.66034  1.0000
  H   H496      1.0  0.35698  0.45745  0.66057  1.0000
  H   H497      1.0  0.32903  0.39310  0.65963  1.0000
  H   H498      1.0  0.35122  0.09873  0.65565  1.0000
  C   C306      1.0  0.47840  0.28905  0.66075  1.0000
  S   S120      1.0  0.31169  0.17821  0.66130  1.0000
  Fe  Fe59      1.0  0.30377  0.29308  0.71325  1.0000
  S   S121      1.0  0.31532  0.34973  0.70051  1.0000
  S   S122      1.0  0.29061  0.29173  0.74289  1.0000
  H   H499      1.0  0.35165  0.12127  0.67856  1.0000
  Fe  Fe60      1.0  0.33072  0.29849  0.68905  1.0000
  H   H500      1.0  0.47251  0.30084  0.80933  1.0000
  H   H501      1.0  0.33683  0.12873  0.66649  1.0000
  S   S123      1.0  0.31988  0.24127  0.70353  1.0000
  S   S124      1.0  0.29333  0.29286  0.68559  1.0000
  H   H502      1.0  0.48144  0.16440  0.67167  1.0000
  Fe  Fe61      1.0  0.27664  0.35860  0.85758  1.0000
  S   S125      1.0  0.25498  0.35846  0.85716  1.0000
  S   S126      1.0  0.29145  0.34387  0.83091  1.0000
  Fe  Fe62      1.0  0.27343  0.38923  0.90069  1.0000
  H   H503      1.0  0.32832  0.44011  0.69713  1.0000
  S   S127      1.0  0.28648  0.39928  0.92515  1.0000
  H   H504      1.0  0.46956  0.22239  0.94922  1.0000
  Fe  Fe63      1.0  0.30574  0.34712  0.67267  1.0000
  C   C307      1.0  0.45537  0.48752  0.77984  1.0000
  S   S128      1.0  0.27689  0.32348  0.88851  1.0000
  S   S129      1.0  0.27526  0.42408  0.86956  1.0000
  Fe  Fe64      1.0  0.44490  0.39555  0.68883  1.0000
  C   C308      1.0  0.26011  0.18060  0.86048  1.0000
  Fe  Fe65      1.0  0.41596  0.42811  0.69949  1.0000
  S   S130      1.0  0.39399  0.41985  0.70686  1.0000
  Fe  Fe66      1.0  0.43800  0.46447  0.71772  1.0000
  H   H505      1.0  0.47142  0.28474  0.91049  1.0000
  S   S131      1.0  0.43233  0.39601  0.71791  1.0000
  S   S132      1.0  0.35321  0.29602  0.68449  1.0000
  S   S133      1.0  0.47200  0.44949  0.87197  1.0000
  C   C309      1.0  0.27516  0.45369  0.97731  1.0000
  S   S134      1.0  0.47901  0.34482  0.87134  1.0000
  Fe  Fe67      1.0  0.47919  0.40465  0.84861  1.0000
  S   S135      1.0  0.47127  0.39027  0.82020  1.0000
  Fe  Fe68      1.0  0.47379  0.39009  0.89480  1.0000
  S   S136      1.0  0.45782  0.37360  0.91949  1.0000
  H   H506      1.0  0.49310  0.33564  0.80179  1.0000
  S   S137      1.0  0.25133  0.39226  0.90194  1.0000
  C   C310      1.0  0.45798  0.37180  0.94551  1.0000
  C   C311      1.0  0.46884  0.38174  0.95408  1.0000
  C   C312      1.0  0.46866  0.37883  0.97479  1.0000
  C   C313      1.0  0.48881  0.18755  0.71618  1.0000
  H   H507      1.0  0.49017  0.10269  0.70816  1.0000
  C   C314      1.0  0.44695  0.35922  0.95791  1.0000
  H   H508      1.0  0.47740  0.39142  0.94482  1.0000
  S   S138      1.0  0.46287  0.34676  0.68253  1.0000
  C   C315      1.0  0.25072  0.24983  0.84433  1.0000
  H   H509      1.0  0.43848  0.35151  0.95146  1.0000
  C   C316      1.0  0.45463  0.41749  0.76778  1.0000
  H   H510      1.0  0.46238  0.36040  0.78635  1.0000
  H   H511      1.0  0.47713  0.38638  0.98130  1.0000
  C   C317      1.0  0.46387  0.41991  0.79926  1.0000
  C   C318      1.0  0.49406  0.24910  0.79754  1.0000
  H   H512      1.0  0.24662  0.26134  0.85871  1.0000
  C   C319      1.0  0.45199  0.46351  0.76525  1.0000
  H   H513      1.0  0.48163  0.16830  0.72586  1.0000
  H   H514      1.0  0.25244  0.27968  0.83376  1.0000
  C   C320      1.0  0.37745  0.32689  0.68240  1.0000
  Fe  Fe69      1.0  0.25489  0.32731  0.88877  1.0000
  N   N33       1.0  0.33632  0.45121  0.66685  1.0000
  Fe  Fe70      1.0  0.43407  0.48953  0.67288  1.0000
  Fe  Fe71      1.0  0.49347  0.45255  0.87560  1.0000
  H   H515      1.0  0.29086  0.44151  0.82562  1.0000
  H   H516      1.0  0.28220  0.22185  0.85571  1.0000
  C   C321      1.0  0.27477  0.43823  0.95877  1.0000
  C   C322      1.0  0.28622  0.41920  0.94884  1.0000
  C   C323      1.0  0.29801  0.41569  0.95802  1.0000
  C   C324      1.0  0.29840  0.43102  0.97659  1.0000
  H   H517      1.0  0.48455  0.22279  0.71456  1.0000
  H   H518      1.0  0.30697  0.40124  0.95059  1.0000
  H   H519      1.0  0.49287  0.20802  0.83505  1.0000
  C   C325      1.0  0.36439  0.33071  0.69100  1.0000
  C   C326      1.0  0.36067  0.36156  0.70444  1.0000
  C   C327      1.0  0.36990  0.38827  0.70911  1.0000
  C   C328      1.0  0.38295  0.38456  0.70048  1.0000
  C   C329      1.0  0.38667  0.35367  0.68705  1.0000
  C   C330      1.0  0.46051  0.39594  0.78464  1.0000
  H   H520      1.0  0.35077  0.36436  0.71151  1.0000
  H   H521      1.0  0.36695  0.41170  0.71968  1.0000
  H   H522      1.0  0.47838  0.25409  0.96265  1.0000
  H   H523      1.0  0.26103  0.18873  0.82072  1.0000
  C   C331      1.0  0.29103  0.30791  0.76705  1.0000
  C   C332      1.0  0.27948  0.30869  0.78013  1.0000
  C   C333      1.0  0.27934  0.32009  0.79953  1.0000
  C   C334      1.0  0.29084  0.33022  0.80636  1.0000
  C   C335      1.0  0.30237  0.32958  0.79329  1.0000
  C   C336      1.0  0.30246  0.31884  0.77379  1.0000
  H   H524      1.0  0.27056  0.30048  0.77513  1.0000
  H   H525      1.0  0.27035  0.32079  0.80919  1.0000
  H   H526      1.0  0.31136  0.33721  0.79832  1.0000
  H   H527      1.0  0.31146  0.31821  0.76409  1.0000
  H   H528      1.0  0.45208  0.39851  0.75677  1.0000
  N   N34       1.0  0.26294  0.21985  0.84650  1.0000
  H   H529      1.0  0.26806  0.42440  0.82870  1.0000
  C   C337      1.0  0.32585  0.45939  0.68286  1.0000
  H   H530      1.0  0.37061  0.16126  0.66404  1.0000
  H   H531      1.0  0.47476  0.20918  0.68529  1.0000
  H   H532      1.0  0.30759  0.42817  0.98319  1.0000
  H   H533      1.0  0.48969  0.21729  0.79892  1.0000
  H   H534      1.0  0.34021  0.38318  0.67838  1.0000
  H   H535      1.0  0.47223  0.15364  0.69518  1.0000
  H   H536      1.0  0.25623  0.19006  0.87533  1.0000
  S   S139      1.0  0.24523  0.48382  0.85020  1.0000
  H   H537      1.0  0.49041  0.18546  0.93457  1.0000
  H   H538      1.0  0.27518  0.38548  0.66442  1.0000
  H   H539      1.0  0.33584  0.20854  0.66716  1.0000
  Fe  Fe72      1.0  0.31028  0.24481  0.67494  1.0000
  H   H540      1.0  0.35082  0.20254  0.67874  1.0000
  C   C338      1.0  0.44677  0.35635  0.97866  1.0000
  H   H541      1.0  0.45336  0.46811  0.93691  1.0000
  N   N35       1.0  0.49174  0.17076  0.69675  1.0000
  C   C339      1.0  0.34876  0.46437  0.67202  1.0000
  C   C340      1.0  0.26819  0.20607  0.82707  1.0000
  C   C341      1.0  0.34771  0.12753  0.66384  1.0000
  H   H542      1.0  0.43823  0.34658  0.98802  1.0000
  H   H543      1.0  0.25262  0.16252  0.85532  1.0000
  C   C342      1.0  0.27274  0.24302  0.85421  1.0000
  N   N36       1.0  0.27619  0.47205  0.80661  1.0000
  C   C343      1.0  0.33805  0.40377  0.66434  1.0000
  H   H544      1.0  0.29309  0.42541  0.80121  1.0000
  H   H545      1.0  0.26911  0.15721  0.86252  1.0000
  H   H546      1.0  0.27492  0.27342  0.84431  1.0000
  C   C344      1.0  0.46127  0.46596  0.79672  1.0000
  C   C345      1.0  0.47952  0.17459  0.68682  1.0000
  H   H547      1.0  0.27742  0.18339  0.82818  1.0000
  C   C346      1.0  0.28696  0.45033  0.98643  1.0000
  C   C347      1.0  0.28985  0.45385  0.80978  1.0000
  H   H548      1.0  0.26982  0.40897  0.80418  1.0000
  C   C348      1.0  0.27524  0.48736  0.78543  1.0000
  H   H549      1.0  0.25688  0.45025  0.81140  1.0000
  S   S140      1.0  0.45140  0.46252  0.68968  1.0000
  H   H550      1.0  0.27054  0.23497  0.81625  1.0000
  C   C349      1.0  0.45765  0.36609  0.98724  1.0000
  H   H551      1.0  0.39666  0.35031  0.68033  1.0000
  C   C350      1.0  0.47727  0.27825  0.82117  1.0000
  H   H552      1.0  0.48979  0.27118  0.78510  1.0000
  H   H553      1.0  0.26919  0.25299  0.86905  1.0000
  N   N37       1.0  0.49157  0.26964  0.81612  1.0000
  Fe  Fe73      1.0  0.25339  0.42334  0.86994  1.0000
  H   H554      1.0  0.47507  0.29456  0.83493  1.0000
  H   H555      1.0  0.35169  0.44591  0.68620  1.0000
  H   H556      1.0  0.26561  0.44144  0.95205  1.0000
  S   S141      1.0  0.24824  0.26002  0.90131  1.0000
  H   H557      1.0  0.38049  0.30300  0.67208  1.0000
  C   C351      1.0  0.47443  0.25315  0.94822  1.0000
  H   H558      1.0  0.46665  0.28145  0.94641  1.0000
  C   C352      1.0  0.26734  0.43739  0.81293  1.0000
  H   H559      1.0  0.48661  0.25847  0.90001  1.0000
  H   H560      1.0  0.29683  0.47904  0.80529  1.0000
  H   H561      1.0  0.47241  0.24734  0.82339  1.0000
  H   H562      1.0  0.47420  0.22561  0.91250  1.0000
  C   C353      1.0  0.34669  0.20620  0.66417  1.0000
  C   C354      1.0  0.46554  0.30836  0.66508  1.0000
  S   S142      1.0  0.42816  0.42190  0.67053  1.0000
  C   C355      1.0  0.47902  0.25601  0.91283  1.0000
  N   N38       1.0  0.48485  0.25555  0.93166  1.0000
  H   H563      1.0  0.47992  0.47309  0.91354  1.0000
  H   H564      1.0  0.48403  0.32598  0.92855  1.0000
  H   H565      1.0  0.31634  0.44958  0.67948  1.0000
  H   H566      1.0  0.46376  0.48500  0.80774  1.0000
  C   C356      1.0  0.49118  0.29636  0.93126  1.0000
  H   H567      1.0  0.26622  0.46859  0.98461  1.0000
  H   H568      1.0  0.45641  0.47062  0.91064  1.0000
  H   H569      1.0  0.48634  0.29896  0.66772  1.0000
  H   H570      1.0  0.27812  0.45976  0.77623  1.0000
  H   H571      1.0  0.47711  0.47205  0.93988  1.0000
  H   H572      1.0  0.25807  0.95627  0.07266  1.0000
  H   H573      1.0  0.25549  0.75619  0.13615  1.0000
  H   H574      1.0  0.33531  0.60313  0.08452  1.0000
  S   S143      1.0  0.30817  0.57857  0.08387  1.0000
  Fe  Fe74      1.0  0.31269  0.74148  0.17379  1.0000
  S   S144      1.0  0.31405  0.80643  0.15470  1.0000
  S   S145      1.0  0.31267  0.67335  0.16193  1.0000
  Fe  Fe75      1.0  0.30820  0.78967  0.21261  1.0000
  S   S146      1.0  0.30896  0.85662  0.19516  1.0000
  S   S147      1.0  0.30687  0.78158  0.24676  1.0000
  Fe  Fe76      1.0  0.29668  0.83255  0.17427  1.0000
  S   S148      1.0  0.27699  0.86377  0.16391  1.0000
  Fe  Fe77      1.0  0.32638  0.82445  0.17748  1.0000
  S   S149      1.0  0.34462  0.86088  0.16769  1.0000
  S   S150      1.0  0.29486  0.76712  0.19284  1.0000
  S   S151      1.0  0.32617  0.75794  0.19550  1.0000
  H   H575      1.0  0.28740  0.79551  0.14075  1.0000
  Fe  Fe78      1.0  0.43729  0.90210  0.17668  1.0000
  S   S152      1.0  0.44722  0.95927  0.18320  1.0000
  S   S153      1.0  0.44356  0.84490  0.15847  1.0000
  Fe  Fe79      1.0  0.41196  0.92791  0.20122  1.0000
  S   S154      1.0  0.39252  0.90000  0.21309  1.0000
  Fe  Fe80      1.0  0.43879  0.94414  0.21490  1.0000
  H   H576      1.0  0.34548  0.52532  0.11320  1.0000
  S   S155      1.0  0.41862  0.94466  0.16917  1.0000
  S   S156      1.0  0.43034  0.88356  0.20851  1.0000
  S   S157      1.0  0.31636  0.50751  0.03951  1.0000
  C   C357      1.0  0.45510  0.93830  0.26265  1.0000
  C   C358      1.0  0.44695  0.91026  0.27456  1.0000
  C   C359      1.0  0.46056  0.51837  0.10216  1.0000
  C   C360      1.0  0.45965  0.91104  0.30300  1.0000
  C   C361      1.0  0.46780  0.93905  0.29110  1.0000
  C   C362      1.0  0.46551  0.95259  0.27112  1.0000
  C   C363      1.0  0.36310  0.53173  0.08104  1.0000
  H   H577      1.0  0.34476  0.90917  0.22058  1.0000
  C   C364      1.0  0.44920  0.89687  0.29456  1.0000
  H   H578      1.0  0.48637  0.52694  0.14419  1.0000
  C   C365      1.0  0.48534  0.78167  0.14191  1.0000
  C   C366      1.0  0.48350  0.82151  0.15041  1.0000
  C   C367      1.0  0.47078  0.84089  0.15603  1.0000
  C   C368      1.0  0.45980  0.82081  0.15290  1.0000
  C   C369      1.0  0.46167  0.78080  0.14455  1.0000
  C   C370      1.0  0.47437  0.76109  0.13923  1.0000
  H   H579      1.0  0.46946  0.87181  0.16234  1.0000
  H   H580      1.0  0.45324  0.76510  0.14201  1.0000
  H   H581      1.0  0.47566  0.73050  0.13265  1.0000
  C   C371      1.0  0.35796  0.87058  0.18054  1.0000
  C   C372      1.0  0.36654  0.90129  0.17160  1.0000
  C   C373      1.0  0.37719  0.91048  0.18125  1.0000
  C   C374      1.0  0.37943  0.88892  0.20002  1.0000
  C   C375      1.0  0.37092  0.85790  0.20892  1.0000
  C   C376      1.0  0.36034  0.84843  0.19917  1.0000
  H   H582      1.0  0.36482  0.91862  0.15718  1.0000
  H   H583      1.0  0.38348  0.93495  0.17432  1.0000
  H   H584      1.0  0.37259  0.84084  0.22339  1.0000
  H   H585      1.0  0.35403  0.82396  0.20599  1.0000
  C   C377      1.0  0.27425  0.91829  0.15192  1.0000
  C   C378      1.0  0.28464  0.94152  0.14313  1.0000
  H   H586      1.0  0.35090  0.61284  0.07150  1.0000
  H   H587      1.0  0.33250  0.93909  0.25925  1.0000
  C   C379      1.0  0.26129  0.93802  0.15048  1.0000
  H   H588      1.0  0.29465  0.92668  0.14403  1.0000
  C   C380      1.0  0.33581  0.90344  0.25856  1.0000
  H   H589      1.0  0.25321  0.92032  0.15732  1.0000
  C   C381      1.0  0.30020  0.79547  0.27078  1.0000
  C   C382      1.0  0.30629  0.77346  0.28714  1.0000
  C   C383      1.0  0.30196  0.78304  0.30645  1.0000
  C   C384      1.0  0.29137  0.81492  0.31012  1.0000
  C   C385      1.0  0.28516  0.83752  0.29378  1.0000
  C   C386      1.0  0.28957  0.82788  0.27418  1.0000
  H   H590      1.0  0.31446  0.74847  0.28493  1.0000
  C   C387      1.0  0.34378  0.53604  0.06355  1.0000
  H   H591      1.0  0.27697  0.86223  0.29626  1.0000
  H   H592      1.0  0.28472  0.84533  0.26179  1.0000
  C   C388      1.0  0.30957  0.60386  0.10585  1.0000
  C   C389      1.0  0.31054  0.64970  0.10421  1.0000
  C   C390      1.0  0.31178  0.67130  0.12093  1.0000
  C   C391      1.0  0.31191  0.64760  0.13984  1.0000
  C   C392      1.0  0.31102  0.60172  0.14145  1.0000
  C   C393      1.0  0.30992  0.58003  0.12469  1.0000
  H   H593      1.0  0.31040  0.66872  0.08980  1.0000
  H   H594      1.0  0.31270  0.70630  0.11912  1.0000
  H   H595      1.0  0.31110  0.58270  0.15586  1.0000
  H   H596      1.0  0.30918  0.54488  0.12643  1.0000
  H   H597      1.0  0.31219  0.87497  0.26127  1.0000
  C   C394      1.0  0.28207  0.98384  0.13280  1.0000
  H   H598      1.0  0.49193  0.83774  0.15245  1.0000
  S   S158      1.0  0.47488  0.58221  0.11076  1.0000
  H   H599      1.0  0.34879  0.55373  0.05023  1.0000
  H   H600      1.0  0.48510  0.61910  0.07046  1.0000
  H   H601      1.0  0.25505  0.96313  0.09838  1.0000
  H   H602      1.0  0.28502  0.67495  0.14077  1.0000
  H   H603      1.0  0.29648  0.74213  0.14305  1.0000
  C   C395      1.0  0.25873  0.98078  0.14050  1.0000
  N   N39       1.0  0.32991  0.88630  0.24273  1.0000
  C   C396      1.0  0.33448  0.83889  0.24249  1.0000
  C   C397      1.0  0.31546  0.89197  0.24655  1.0000
  C   C398      1.0  0.33389  0.91084  0.22345  1.0000
  H   H604      1.0  0.33054  0.82515  0.23031  1.0000
  H   H605      1.0  0.47828  0.52719  0.16858  1.0000
  C   C399      1.0  0.48449  0.59683  0.05906  1.0000
  H   H606      1.0  0.31066  0.87759  0.23544  1.0000
  H   H607      1.0  0.34537  0.83308  0.24043  1.0000
  H   H608      1.0  0.47822  0.61528  0.04784  1.0000
  H   H609      1.0  0.34526  0.50028  0.06179  1.0000
  H   H610      1.0  0.47191  0.97423  0.26214  1.0000
  N   N40       1.0  0.27586  0.74144  0.14120  1.0000
  C   C400      1.0  0.27719  0.69789  0.13373  1.0000
  C   C401      1.0  0.27310  0.73555  0.16292  1.0000
  C   C402      1.0  0.26499  0.77044  0.13235  1.0000
  C   C403      1.0  0.28819  0.76204  0.13589  1.0000
  H   H611      1.0  0.33004  0.94635  0.22271  1.0000
  H   H612      1.0  0.26794  0.68191  0.13694  1.0000
  H   H613      1.0  0.27985  0.70060  0.11749  1.0000
  H   H614      1.0  0.28116  0.71383  0.17005  1.0000
  H   H615      1.0  0.33134  0.52731  0.09982  1.0000
  H   H616      1.0  0.26385  0.72019  0.16752  1.0000
  H   H617      1.0  0.26386  0.80355  0.13781  1.0000
  H   H618      1.0  0.33112  0.81908  0.25649  1.0000
  H   H619      1.0  0.26679  0.77566  0.11598  1.0000
  C   C404      1.0  0.48797  0.52031  0.16014  1.0000
  H   H620      1.0  0.47586  0.95036  0.29727  1.0000
  H   H621      1.0  0.36549  0.49614  0.07911  1.0000
  N   N41       1.0  0.40626  0.80802  0.16323  1.0000
  C   C405      1.0  0.41085  0.80777  0.18297  1.0000
  C   C406      1.0  0.41503  0.77617  0.15216  1.0000
  C   C407      1.0  0.40649  0.85270  0.15233  1.0000
  C   C408      1.0  0.39271  0.79558  0.16547  1.0000
  H   H622      1.0  0.41087  0.77461  0.19163  1.0000
  H   H623      1.0  0.40449  0.83145  0.19173  1.0000
  H   H624      1.0  0.42099  0.81744  0.18187  1.0000
  H   H625      1.0  0.42534  0.78477  0.15033  1.0000
  H   H626      1.0  0.41513  0.74207  0.15994  1.0000
  H   H627      1.0  0.41194  0.77580  0.13712  1.0000
  H   H628      1.0  0.40269  0.85462  0.13762  1.0000
  H   H629      1.0  0.41664  0.86258  0.14983  1.0000
  H   H630      1.0  0.40040  0.87784  0.16063  1.0000
  H   H631      1.0  0.38884  0.79582  0.15089  1.0000
  H   H632      1.0  0.38589  0.81901  0.17381  1.0000
  H   H633      1.0  0.39213  0.76208  0.17366  1.0000
  H   H634      1.0  0.36721  0.53726  0.09478  1.0000
  H   H635      1.0  0.33303  0.88540  0.27329  1.0000
  Fe  Fe81      1.0  0.30795  0.51122  0.07136  1.0000
  H   H636      1.0  0.44282  0.87518  0.30352  1.0000
  N   N42       1.0  0.34879  0.54477  0.08193  1.0000
  H   H637      1.0  0.47925  0.56862  0.06650  1.0000
  C   C409      1.0  0.34604  0.59233  0.08409  1.0000
  H   H638      1.0  0.33024  0.89720  0.21101  1.0000
  H   H639      1.0  0.45249  0.54431  0.10145  1.0000
  C   C410      1.0  0.48330  0.49424  0.10696  1.0000
  H   H640      1.0  0.34673  0.89980  0.25615  1.0000
  H   H641      1.0  0.31155  0.92736  0.24622  1.0000
  H   H642      1.0  0.49048  0.56892  0.02324  1.0000
  H   H643      1.0  0.43890  0.89894  0.26837  1.0000
  S   S159      1.0  0.45271  0.95710  0.23732  1.0000
  C   C411      1.0  0.47293  0.52794  0.10626  1.0000
  C   C412      1.0  0.34218  0.51891  0.09900  1.0000
  C   C413      1.0  0.25031  0.95679  0.08524  1.0000
  H   H644      1.0  0.29090  0.76550  0.11968  1.0000
  H   H645      1.0  0.27211  0.76779  0.16907  1.0000
  H   H646      1.0  0.36839  0.55068  0.06835  1.0000
  H   H647      1.0  0.34945  0.60013  0.09798  1.0000
  H   H648      1.0  0.30687  0.76523  0.31873  1.0000
  H   H649      1.0  0.33308  0.54672  0.06348  1.0000
  Fe  Fe82      1.0  0.49375  0.60665  0.11724  1.0000
  H   H650      1.0  0.49292  0.50140  0.10964  1.0000
  S   S160      1.0  0.41985  0.98725  0.21021  1.0000
  H   H651      1.0  0.49139  0.52247  0.04206  1.0000
  H   H652      1.0  0.24694  0.92333  0.08842  1.0000
  H   H653      1.0  0.45432  0.84448  0.61015  1.0000
  H   H654      1.0  0.24848  0.74757  0.47133  1.0000
  Fe  Fe83      1.0  0.32425  0.94895  0.55501  1.0000
  S   S161      1.0  0.34566  0.94767  0.54223  1.0000
  Fe  Fe84      1.0  0.29961  0.91844  0.57917  1.0000
  S   S162      1.0  0.29049  0.87324  0.60472  1.0000
  S   S163      1.0  0.28670  0.82417  0.33543  1.0000
  C   C414      1.0  0.26467  0.80932  0.47347  1.0000
  S   S164      1.0  0.30948  0.90424  0.54924  1.0000
  S   S165      1.0  0.31565  0.95701  0.58608  1.0000
  H   H655      1.0  0.33116  0.51312  0.64953  1.0000
  S   S166      1.0  0.27098  0.82430  0.39089  1.0000
  H   H656      1.0  0.24510  0.87042  0.46267  1.0000
  Fe  Fe85      1.0  0.25613  0.94040  0.37104  1.0000
  S   S167      1.0  0.27799  0.92052  0.37091  1.0000
  Fe  Fe86      1.0  0.27340  0.85865  0.35960  1.0000
  Fe  Fe87      1.0  0.27358  0.88855  0.40221  1.0000
  S   S168      1.0  0.28544  0.88220  0.42978  1.0000
  H   H657      1.0  0.37322  0.95456  0.53340  1.0000
  S   S169      1.0  0.25212  0.91265  0.40282  1.0000
  S   S170      1.0  0.47094  0.94651  0.37384  1.0000
  Fe  Fe88      1.0  0.44574  0.82062  0.54065  1.0000
  S   S171      1.0  0.43062  0.87898  0.54477  1.0000
  S   S172      1.0  0.46063  0.81505  0.51344  1.0000
  Fe  Fe89      1.0  0.44081  0.77912  0.58429  1.0000
  S   S173      1.0  0.42583  0.83586  0.59068  1.0000
  S   S174      1.0  0.44449  0.73372  0.61296  1.0000
  Fe  Fe90      1.0  0.41802  0.82912  0.56205  1.0000
  S   S175      1.0  0.39627  0.81823  0.56560  1.0000
  Fe  Fe91      1.0  0.43972  0.88021  0.57323  1.0000
  S   S176      1.0  0.44285  0.94362  0.58520  1.0000
  S   S177      1.0  0.43259  0.77000  0.55610  1.0000
  S   S178      1.0  0.45529  0.82443  0.56860  1.0000
  Fe  Fe92      1.0  0.47437  0.88786  0.39657  1.0000
  H   H658      1.0  0.39729  0.76370  0.63036  1.0000
  S   S179      1.0  0.45806  0.87059  0.42074  1.0000
  Fe  Fe93      1.0  0.47665  0.90075  0.35048  1.0000
  H   H659      1.0  0.26753  0.75227  0.44620  1.0000
  H   H660      1.0  0.46691  0.89887  0.63518  1.0000
  H   H661      1.0  0.47531  0.85417  0.62275  1.0000
  H   H662      1.0  0.38650  0.68634  0.59919  1.0000
  S   S180      1.0  0.47891  0.84137  0.37342  1.0000
  H   H663      1.0  0.25939  0.82563  0.48606  1.0000
  C   C415      1.0  0.45781  0.95667  0.59242  1.0000
  C   C416      1.0  0.43556  0.94594  0.35623  1.0000
  H   H664      1.0  0.26507  0.74700  0.62684  1.0000
  C   C417      1.0  0.46922  0.92707  0.59182  1.0000
  C   C418      1.0  0.46957  0.86241  0.63672  1.0000
  H   H665      1.0  0.46919  0.89595  0.58604  1.0000
  C   C419      1.0  0.45912  0.83664  0.48830  1.0000
  C   C420      1.0  0.47028  0.85018  0.47649  1.0000
  C   C421      1.0  0.46993  0.86315  0.45602  1.0000
  C   C422      1.0  0.45854  0.86088  0.44690  1.0000
  C   C423      1.0  0.44732  0.84797  0.45873  1.0000
  C   C424      1.0  0.44755  0.83635  0.47932  1.0000
  H   H666      1.0  0.47926  0.85076  0.48328  1.0000
  H   H667      1.0  0.47850  0.87460  0.44735  1.0000
  H   H668      1.0  0.43842  0.84623  0.45193  1.0000
  H   H669      1.0  0.43891  0.82560  0.48812  1.0000
  C   C425      1.0  0.44227  0.67719  0.62077  1.0000
  C   C426      1.0  0.44048  0.64775  0.60754  1.0000
  C   C427      1.0  0.43845  0.60359  0.61454  1.0000
  C   C428      1.0  0.43824  0.58806  0.63481  1.0000
  C   C429      1.0  0.44010  0.61741  0.64802  1.0000
  C   C430      1.0  0.44214  0.66160  0.64102  1.0000
  H   H670      1.0  0.44081  0.65879  0.59188  1.0000
  H   H671      1.0  0.43710  0.58117  0.60415  1.0000
  H   H672      1.0  0.27072  0.53742  0.62892  1.0000
  H   H673      1.0  0.44006  0.85033  0.38694  1.0000
  C   C431      1.0  0.35959  0.91258  0.55005  1.0000
  C   C432      1.0  0.35844  0.87295  0.56233  1.0000
  C   C433      1.0  0.36978  0.84476  0.56708  1.0000
  C   C434      1.0  0.38239  0.85615  0.55991  1.0000
  C   C435      1.0  0.38356  0.89619  0.54796  1.0000
  C   C436      1.0  0.37220  0.92401  0.54292  1.0000
  H   H674      1.0  0.34881  0.86359  0.56781  1.0000
  H   H675      1.0  0.36875  0.81379  0.57625  1.0000
  H   H676      1.0  0.39318  0.90533  0.54228  1.0000
  H   H677      1.0  0.44358  0.68385  0.65143  1.0000
  C   C437      1.0  0.28678  0.94878  0.48695  1.0000
  H   H678      1.0  0.40172  0.78649  0.60547  1.0000
  C   C438      1.0  0.27794  0.94858  0.45484  1.0000
  C   C439      1.0  0.28558  0.90882  0.45167  1.0000
  C   C440      1.0  0.29370  0.88904  0.46644  1.0000
  C   C441      1.0  0.29422  0.90853  0.48396  1.0000
  H   H679      1.0  0.34705  0.94018  0.47020  1.0000
  H   H680      1.0  0.47622  0.85409  0.64875  1.0000
  H   H681      1.0  0.29962  0.85819  0.46432  1.0000
  H   H682      1.0  0.30036  0.89235  0.49516  1.0000
  C   C442      1.0  0.26473  0.76589  0.59556  1.0000
  C   C443      1.0  0.26820  0.76987  0.61440  1.0000
  C   C444      1.0  0.27605  0.80298  0.61703  1.0000
  C   C445      1.0  0.28062  0.83204  0.60086  1.0000
  C   C446      1.0  0.27714  0.82799  0.58207  1.0000
  C   C447      1.0  0.26923  0.79516  0.57947  1.0000
  H   H683      1.0  0.27881  0.80559  0.63159  1.0000
  H   H684      1.0  0.28056  0.85007  0.56950  1.0000
  H   H685      1.0  0.26664  0.79229  0.56483  1.0000
  C   C448      1.0  0.32863  0.93559  0.50078  1.0000
  N   N43       1.0  0.25595  0.80781  0.45783  1.0000
  C   C449      1.0  0.33755  0.96063  0.46790  1.0000
  H   H686      1.0  0.49366  0.53993  0.35251  1.0000
  C   C450      1.0  0.44915  0.85153  0.62466  1.0000
  C   C451      1.0  0.26348  0.78665  0.44135  1.0000
  C   C452      1.0  0.48064  0.93749  0.59907  1.0000
  S   S181      1.0  0.25169  0.87963  0.35877  1.0000
  N   N44       1.0  0.45777  0.83848  0.64081  1.0000
  S   S182      1.0  0.25477  0.72553  0.59102  1.0000
  H   H687      1.0  0.33793  0.91504  0.50430  1.0000
  C   C453      1.0  0.44185  0.87437  0.37361  1.0000
  H   H688      1.0  0.33125  0.94045  0.46126  1.0000
  S   S183      1.0  0.43572  0.53180  0.64255  1.0000
  H   H689      1.0  0.25877  0.87348  0.44428  1.0000
  H   H690      1.0  0.30178  0.98012  0.64154  1.0000
  N   N45       1.0  0.40195  0.71587  0.60965  1.0000
  C   C454      1.0  0.40481  0.67886  0.62516  1.0000
  C   C455      1.0  0.41092  0.70962  0.59170  1.0000
  C   C456      1.0  0.40386  0.75786  0.61680  1.0000
  C   C457      1.0  0.38823  0.71730  0.60487  1.0000
  H   H691      1.0  0.48521  0.82464  0.42321  1.0000
  S   S184      1.0  0.28698  0.97856  0.56720  1.0000
  H   H692      1.0  0.27312  0.82831  0.46771  1.0000
  H   H693      1.0  0.40839  0.73508  0.57925  1.0000
  H   H694      1.0  0.43178  0.91280  0.40564  1.0000
  H   H695      1.0  0.41055  0.67680  0.58669  1.0000
  H   H696      1.0  0.48936  0.91411  0.59889  1.0000
  H   H697      1.0  0.41417  0.75810  0.62029  1.0000
  C   C458      1.0  0.48082  0.97781  0.60665  1.0000
  H   H698      1.0  0.43485  0.93108  0.34242  1.0000
  H   H699      1.0  0.32369  0.94531  0.51498  1.0000
  H   H700      1.0  0.38580  0.74517  0.59326  1.0000
  H   H701      1.0  0.27811  0.92651  0.64375  1.0000
  H   H702      1.0  0.27607  0.96345  0.60986  1.0000
  H   H703      1.0  0.44392  0.94461  0.39227  1.0000
  C   C459      1.0  0.25073  0.85324  0.45061  1.0000
  H   H704      1.0  0.41780  0.88737  0.36093  1.0000
  H   H705      1.0  0.27166  0.96451  0.44375  1.0000
  H   H706      1.0  0.48308  0.71038  0.41349  1.0000
  H   H707      1.0  0.41174  0.93296  0.37456  1.0000
  Fe  Fe94      1.0  0.24965  0.84940  0.39068  1.0000
  H   H708      1.0  0.34921  0.98201  0.49840  1.0000
  C   C460      1.0  0.27863  0.96845  0.47223  1.0000
  H   H709      1.0  0.46667  0.78061  0.62788  1.0000
  H   H710      1.0  0.26878  0.77564  0.47935  1.0000
  H   H711      1.0  0.44575  0.95510  0.35543  1.0000
  H   H712      1.0  0.29282  0.49877  0.63485  1.0000
  N   N46       1.0  0.33111  0.97488  0.48666  1.0000
  N   N47       1.0  0.43256  0.91483  0.37401  1.0000
  C   C461      1.0  0.27678  0.95970  0.64912  1.0000
  C   C462      1.0  0.46173  0.79040  0.64217  1.0000
  H   H713      1.0  0.38116  0.72202  0.61804  1.0000
  S   S185      1.0  0.28762  0.97682  0.50824  1.0000
  C   C463      1.0  0.25078  0.50097  0.58215  1.0000
  H   H714      1.0  0.42695  0.96628  0.39282  1.0000
  H   H715      1.0  0.42879  0.97696  0.35597  1.0000
  H   H716      1.0  0.32222  0.91447  0.49501  1.0000
  H   H717      1.0  0.29775  0.94786  0.62335  1.0000
  H   H718      1.0  0.25299  0.50859  0.59684  1.0000
  H   H719      1.0  0.25723  0.78529  0.42919  1.0000
  H   H720      1.0  0.45212  0.88214  0.37324  1.0000
  H   H721      1.0  0.44576  0.88751  0.62332  1.0000
  H   H722      1.0  0.44031  0.83325  0.62700  1.0000
  C   C464      1.0  0.41903  0.90319  0.37427  1.0000
  H   H723      1.0  0.47705  0.76734  0.40752  1.0000
  H   H724      1.0  0.39811  0.68209  0.63884  1.0000
  H   H725      1.0  0.41647  0.87965  0.38748  1.0000
  C   C465      1.0  0.43380  0.93562  0.39194  1.0000
  H   H726      1.0  0.40382  0.64643  0.62015  1.0000
  H   H727      1.0  0.46992  0.77410  0.44227  1.0000
  H   H728      1.0  0.41502  0.67746  0.62930  1.0000
  C   C466      1.0  0.27165  0.50438  0.63665  1.0000
  H   H729      1.0  0.42123  0.71241  0.59426  1.0000
  C   C467      1.0  0.45059  0.84965  0.65964  1.0000
  H   H730      1.0  0.25028  0.53251  0.57211  1.0000
  S   S186      1.0  0.46182  0.89317  0.32848  1.0000
  H   H731      1.0  0.44129  0.85783  0.36023  1.0000
  H   H732      1.0  0.45308  0.77130  0.64577  1.0000
  Fe  Fe95      1.0  0.29774  0.96684  0.53743  1.0000
  H   H733      1.0  0.27189  0.80514  0.43497  1.0000
  C   C468      1.0  0.47875  0.75166  0.44650  1.0000
  H   H734      1.0  0.44751  0.88578  0.65906  1.0000
  H   H735      1.0  0.47583  0.71755  0.44936  1.0000
  H   H736      1.0  0.48127  0.76096  0.46073  1.0000
  H   H737      1.0  0.46859  0.77940  0.65376  1.0000
  N   N48       1.0  0.48979  0.75523  0.43094  1.0000
  H   H738      1.0  0.31176  0.98255  0.47669  1.0000
  C   C469      1.0  0.24492  0.78210  0.46578  1.0000
  C   C470      1.0  0.29598  0.98104  0.62867  1.0000
  H   H739      1.0  0.26613  0.96780  0.65336  1.0000
  C   C471      1.0  0.48574  0.74473  0.41216  1.0000
  Fe  Fe96      1.0  0.49253  0.95324  0.37356  1.0000
  H   H740      1.0  0.24508  0.83131  0.64098  1.0000
  H   H741      1.0  0.45702  0.49415  0.61211  1.0000
  S   S187      1.0  0.24446  0.50827  0.63844  1.0000
  H   H742      1.0  0.49375  0.74843  0.39996  1.0000
  C   C472      1.0  0.49350  0.80069  0.42817  1.0000
  H   H743      1.0  0.33957  0.98945  0.45687  1.0000
  S   S188      1.0  0.44451  0.49247  0.74425  1.0000
  H   H744      1.0  0.45677  0.84005  0.67219  1.0000
  H   H745      1.0  0.45164  0.56809  0.93866  1.0000
  C   C473      1.0  0.46542  0.55041  0.90454  1.0000
  N   N49       1.0  0.46452  0.52081  0.92332  1.0000
  H   H746      1.0  0.46041  0.52591  0.95437  1.0000
  H   H747      1.0  0.48539  0.51531  0.92528  1.0000
  H   H748      1.0  0.28176  0.51366  0.78013  1.0000
  C   C474      1.0  0.27232  0.50945  0.81833  1.0000
  H   H749      1.0  0.26202  0.52379  0.81643  1.0000
  H   H750      1.0  0.27280  0.49874  0.83443  1.0000
  C   C475      1.0  0.46120  0.54740  0.94000  1.0000
  H   H751      1.0  0.47328  0.57260  0.90408  1.0000
  H   H752      1.0  0.34792  0.50015  0.67372  1.0000
  H   H753      1.0  0.45601  0.57129  0.90220  1.0000
  H   H754      1.0  0.32421  0.49489  0.68515  1.0000
  H   H755      1.0  0.46883  0.56985  0.94069  1.0000
  S   S189      1.0  0.42093  0.49739  0.70092  1.0000
  H   H756      1.0  0.46793  0.53134  0.89165  1.0000
  H   H757      1.0  0.26502  0.50100  0.78258  1.0000
  H   H758      1.0  0.44444  0.51013  0.92130  1.0000
  H   H759      1.0  0.45337  0.52310  0.77808  1.0000
  H   H760      1.0  0.44001  0.60601  0.66364  1.0000
  H   H761      1.0  0.27879  0.53625  0.81409  1.0000
  H   H762      1.0  0.28201  0.95692  0.66270  1.0000
  C   C476      1.0  0.47728  0.49412  0.92569  1.0000
  H   H763      1.0  0.44157  0.83238  0.66307  1.0000
  C   C477      1.0  0.45423  0.49125  0.92305  1.0000
  N   N50       1.0  0.73962  0.48337  0.08553  1.0000
  C   C478      1.0  0.49618  0.46805  0.18649  1.0000
  C   C479      1.0  0.50650  0.46685  0.15329  1.0000
  H   H764      1.0  0.71920  0.47243  0.09049  1.0000
  H   H765      1.0  0.51132  0.43285  0.15700  1.0000
  H   H766      1.0  0.55456  0.21142  0.32464  1.0000
  H   H767      1.0  0.74146  0.45348  0.05856  1.0000
  H   H768      1.0  0.73623  0.44378  0.11352  1.0000
  H   H769      1.0  0.50059  0.43386  0.19099  1.0000
  H   H770      1.0  0.73754  0.41702  0.08050  1.0000
  C   C480      1.0  0.74215  0.47052  0.10644  1.0000
  H   H771      1.0  0.50516  0.47115  0.13725  1.0000
  C   C481      1.0  0.74330  0.44495  0.07439  1.0000
  H   H772      1.0  0.51349  0.49031  0.15571  1.0000
  H   H773      1.0  0.51438  0.99865  0.52905  1.0000
  Fe  Fe97      1.0  0.56215  0.23524  0.41239  1.0000
  S   S190      1.0  0.57286  0.16826  0.40776  1.0000
  S   S191      1.0  0.56893  0.29249  0.38992  1.0000
  Fe  Fe98      1.0  0.54793  0.19707  0.45171  1.0000
  S   S192      1.0  0.55754  0.12838  0.44927  1.0000
  S   S193      1.0  0.53409  0.21663  0.47827  1.0000
  Fe  Fe99      1.0  0.57614  0.16025  0.43984  1.0000
  S   S194      1.0  0.59416  0.12804  0.45499  1.0000
  Fe  Fe100     1.0  0.55344  0.14139  0.41735  1.0000
  S   S195      1.0  0.54950  0.08520  0.40064  1.0000
  S   S196      1.0  0.56677  0.22861  0.44422  1.0000
  S   S197      1.0  0.54245  0.20880  0.42005  1.0000
  H   H774      1.0  0.57404  0.42533  0.34231  1.0000
  S   S198      1.0  0.51316  0.17166  0.61733  1.0000
  C   C482      1.0  0.55933  0.15483  0.35700  1.0000
  H   H775      1.0  0.71994  0.05463  0.57522  1.0000
  S   S199      1.0  0.52142  0.06621  0.61805  1.0000
  C   C483      1.0  0.54478  0.38725  0.35906  1.0000
  Fe  Fe101     1.0  0.51607  0.11337  0.64095  1.0000
  Fe  Fe102     1.0  0.51679  0.12301  0.59466  1.0000
  S   S200      1.0  0.53020  0.11568  0.56599  1.0000
  C   C484      1.0  0.72026  0.24388  0.55184  1.0000
  H   H776      1.0  0.54523  0.25971  0.36071  1.0000
  Fe  Fe103     1.0  0.70086  0.09209  0.41017  1.0000
  S   S201      1.0  0.70706  0.02602  0.42667  1.0000
  S   S202      1.0  0.71353  0.13355  0.38759  1.0000
  Fe  Fe104     1.0  0.67225  0.08956  0.42662  1.0000
  N   N51       1.0  0.54872  0.19158  0.35519  1.0000
  S   S203      1.0  0.65364  0.13370  0.41895  1.0000
  Fe  Fe105     1.0  0.69443  0.05209  0.45284  1.0000
  S   S204      1.0  0.70424  0.04550  0.48231  1.0000
  H   H777      1.0  0.58357  0.20382  0.53087  1.0000
  S   S205      1.0  0.68921  0.11896  0.43629  1.0000
  S   S206      1.0  0.68360  0.06755  0.39914  1.0000
  H   H778      1.0  0.59643  0.17683  0.49089  1.0000
  S   S207      1.0  0.71692  0.19836  0.60308  1.0000
  H   H779      1.0  0.73220  0.29556  0.52247  1.0000
  H   H780      1.0  0.71319  0.25941  0.51476  1.0000
  S   S208      1.0  0.71394  0.09757  0.61899  1.0000
  H   H781      1.0  0.56672  0.12284  0.51012  1.0000
  Fe  Fe106     1.0  0.71592  0.13630  0.58887  1.0000
  S   S209      1.0  0.70296  0.13366  0.56335  1.0000
  Fe  Fe107     1.0  0.71730  0.15728  0.63312  1.0000
  S   S210      1.0  0.73242  0.31038  0.40858  1.0000
  C   C485      1.0  0.55293  0.23113  0.36189  1.0000
  C   C486      1.0  0.70397  0.07364  0.50387  1.0000
  C   C487      1.0  0.69295  0.10026  0.51105  1.0000
  C   C488      1.0  0.69291  0.11857  0.52904  1.0000
  C   C489      1.0  0.70393  0.11140  0.54008  1.0000
  C   C490      1.0  0.71513  0.08622  0.53251  1.0000
  C   C491      1.0  0.71505  0.06696  0.51481  1.0000
  H   H782      1.0  0.68429  0.10566  0.50304  1.0000
  H   H783      1.0  0.68416  0.13802  0.53455  1.0000
  H   H784      1.0  0.72387  0.08121  0.54027  1.0000
  H   H785      1.0  0.72369  0.04674  0.50945  1.0000
  C   C492      1.0  0.72708  0.26174  0.40233  1.0000
  C   C493      1.0  0.72319  0.22948  0.41755  1.0000
  C   C494      1.0  0.71887  0.19030  0.41323  1.0000
  C   C495      1.0  0.71845  0.18302  0.39361  1.0000
  C   C496      1.0  0.72194  0.21584  0.37839  1.0000
  C   C497      1.0  0.72605  0.25536  0.38275  1.0000
  H   H786      1.0  0.72371  0.23455  0.43277  1.0000
  H   H787      1.0  0.71615  0.16532  0.42509  1.0000
  H   H788      1.0  0.72133  0.21087  0.36318  1.0000
  C   C498      1.0  0.53495  0.02604  0.38846  1.0000
  H   H789      1.0  0.72252  0.47963  0.36180  1.0000
  H   H790      1.0  0.54422  0.00574  0.38667  1.0000
  C   C499      1.0  0.55367  0.41488  0.34820  1.0000
  C   C500      1.0  0.61060  0.12870  0.44439  1.0000
  C   C501      1.0  0.61383  0.15492  0.42674  1.0000
  C   C502      1.0  0.62706  0.15588  0.41918  1.0000
  C   C503      1.0  0.63717  0.13036  0.42905  1.0000
  C   C504      1.0  0.63394  0.10364  0.44657  1.0000
  C   C505      1.0  0.62071  0.10301  0.45423  1.0000
  H   H791      1.0  0.60616  0.17493  0.41905  1.0000
  H   H792      1.0  0.62945  0.17668  0.40562  1.0000
  H   H793      1.0  0.64163  0.08408  0.45439  1.0000
  H   H794      1.0  0.61829  0.08271  0.46793  1.0000
  C   C506      1.0  0.53240  0.18691  0.50230  1.0000
  C   C507      1.0  0.53920  0.14524  0.50679  1.0000
  C   C508      1.0  0.53839  0.12416  0.52634  1.0000
  C   C509      1.0  0.53051  0.14382  0.54159  1.0000
  C   C510      1.0  0.52335  0.18481  0.53699  1.0000
  C   C511      1.0  0.52438  0.20632  0.51748  1.0000
  H   H795      1.0  0.54516  0.12947  0.49519  1.0000
  H   H796      1.0  0.54386  0.09223  0.52968  1.0000
  H   H797      1.0  0.51722  0.20036  0.54851  1.0000
  H   H798      1.0  0.51901  0.23845  0.51417  1.0000
  C   C512      1.0  0.51151  0.03781  0.38478  1.0000
  C   C513      1.0  0.51108  0.07862  0.39227  1.0000
  C   C514      1.0  0.52247  0.09280  0.39809  1.0000
  C   C515      1.0  0.53453  0.06686  0.39589  1.0000
  H   H799      1.0  0.71165  0.20276  0.52425  1.0000
  S   S211      1.0  0.74082  0.01015  0.62537  1.0000
  H   H800      1.0  0.50185  0.09934  0.39357  1.0000
  H   H801      1.0  0.52194  0.12410  0.40393  1.0000
  H   H802      1.0  0.58313  0.11524  0.49833  1.0000
  Fe  Fe108     1.0  0.49992  0.05756  0.61980  1.0000
  C   C516      1.0  0.73518  0.18587  0.53862  1.0000
  C   C517      1.0  0.54918  0.35012  0.37207  1.0000
  C   C518      1.0  0.56260  0.33973  0.37427  1.0000
  C   C519      1.0  0.57146  0.36730  0.36337  1.0000
  H   H803      1.0  0.65358  0.01569  0.37609  1.0000
  C   C520      1.0  0.53682  0.17880  0.36754  1.0000
  H   H804      1.0  0.54220  0.32963  0.38041  1.0000
  C   C521      1.0  0.51013  0.01396  0.56703  1.0000
  N   N52       1.0  0.72791  0.22971  0.53383  1.0000
  S   S212      1.0  0.49552  0.11257  0.59598  1.0000
  H   H805      1.0  0.57027  0.14426  0.48472  1.0000
  H   H806      1.0  0.55697  0.19989  0.51675  1.0000
  C   C522      1.0  0.50396  0.00109  0.53543  1.0000
  N   N53       1.0  0.67691  0.24014  0.40275  1.0000
  C   C523      1.0  0.67457  0.23092  0.42446  1.0000
  C   C524      1.0  0.68646  0.27312  0.39775  1.0000
  C   C525      1.0  0.66438  0.25716  0.39442  1.0000
  C   C526      1.0  0.68225  0.19900  0.39441  1.0000
  H   H807      1.0  0.66768  0.20521  0.42875  1.0000
  H   H808      1.0  0.67026  0.26101  0.43124  1.0000
  H   H809      1.0  0.68387  0.21870  0.43126  1.0000
  H   H810      1.0  0.68853  0.28074  0.38148  1.0000
  H   H811      1.0  0.68284  0.30462  0.40388  1.0000
  H   H812      1.0  0.69603  0.26086  0.40377  1.0000
  H   H813      1.0  0.66575  0.26384  0.37803  1.0000
  H   H814      1.0  0.66006  0.28837  0.40028  1.0000
  H   H815      1.0  0.65701  0.23283  0.39817  1.0000
  H   H816      1.0  0.68484  0.20477  0.37819  1.0000
  H   H817      1.0  0.67515  0.17381  0.39715  1.0000
  H   H818      1.0  0.69128  0.18417  0.40119  1.0000
  H   H819      1.0  0.72574  0.07439  0.65818  1.0000
  H   H820      1.0  0.70158  0.03384  0.59930  1.0000
  H   H821      1.0  0.58185  0.35974  0.36489  1.0000
  H   H822      1.0  0.73002  0.01352  0.56232  1.0000
  C   C527      1.0  0.71886  0.22693  0.51877  1.0000
  S   S213      1.0  0.73935  0.14199  0.63064  1.0000
  S   S214      1.0  0.67651  0.02361  0.44473  1.0000
  H   H823      1.0  0.56201  0.24157  0.35319  1.0000
  H   H824      1.0  0.52856  0.20559  0.36661  1.0000
  H   H825      1.0  0.51539  0.07475  0.53627  1.0000
  H   H826      1.0  0.50879  0.03584  0.57898  1.0000
  H   H827      1.0  0.53441  0.39468  0.35745  1.0000
  H   H828      1.0  0.72678  0.24636  0.56352  1.0000
  N   N54       1.0  0.57690  0.18105  0.50567  1.0000
  H   H829      1.0  0.51830  0.47795  0.34123  1.0000
  C   C528      1.0  0.52349  0.01129  0.38318  1.0000
  C   C529      1.0  0.72436  0.01970  0.57661  1.0000
  C   C530      1.0  0.56484  0.21238  0.50581  1.0000
  H   H830      1.0  0.72822  0.28122  0.37101  1.0000
  H   H831      1.0  0.59046  0.14914  0.52612  1.0000
  H   H832      1.0  0.56665  0.24507  0.50966  1.0000
  Fe  Fe109     1.0  0.73885  0.17968  0.59996  1.0000
  H   H833      1.0  0.72841  0.16097  0.54488  1.0000
  H   H834      1.0  0.73152  0.01607  0.58792  1.0000
  H   H835      1.0  0.53345  0.14862  0.36312  1.0000
  H   H836      1.0  0.56083  0.21798  0.49111  1.0000
  C   C531      1.0  0.57411  0.13899  0.49950  1.0000
  C   C532      1.0  0.58140  0.17278  0.52571  1.0000
  C   C533      1.0  0.58725  0.19995  0.49165  1.0000
  H   H837      1.0  0.58414  0.20647  0.47640  1.0000
  S   S215      1.0  0.49712  0.02305  0.37621  1.0000
  H   H838      1.0  0.58969  0.23164  0.49580  1.0000
  H   H839      1.0  0.72427  0.21606  0.50499  1.0000
  H   H840      1.0  0.57378  0.15846  0.53663  1.0000
  H   H841      1.0  0.52073  0.01188  0.56161  1.0000
  S   S216      1.0  0.49483  0.09994  0.64468  1.0000
  Fe  Fe110     1.0  0.73584  0.08332  0.61609  1.0000
  H   H842      1.0  0.53871  0.17110  0.38335  1.0000
  C   C534      1.0  0.56705  0.40466  0.35052  1.0000
  H   H843      1.0  0.55630  0.12383  0.35290  1.0000
  H   H844      1.0  0.71463  0.27681  0.54879  1.0000
  H   H845      1.0  0.71311  0.22014  0.55812  1.0000
  H   H846      1.0  0.55511  0.22484  0.37761  1.0000
  H   H847      1.0  0.56200  0.14731  0.37247  1.0000
  H   H848      1.0  0.56840  0.16276  0.34757  1.0000
  S   S217      1.0  0.73762  0.11859  0.58529  1.0000
  N   N55       1.0  0.50169  0.03102  0.55099  1.0000
  H   H849      1.0  0.63994  0.05271  0.40245  1.0000
  C   C535      1.0  0.73732  0.26200  0.52620  1.0000
  C   C536      1.0  0.50496  0.07552  0.54248  1.0000
  H   H850      1.0  0.70009  0.02875  0.56436  1.0000
  C   C537      1.0  0.70513  0.99451  0.56634  1.0000
  H   H851      1.0  0.49771  0.01290  0.52311  1.0000
  H   H852      1.0  0.50358  0.09888  0.55386  1.0000
  H   H853      1.0  0.49874  0.08978  0.53043  1.0000
  H   H854      1.0  0.66648  0.00082  0.39209  1.0000
  C   C538      1.0  0.54579  0.20148  0.33435  1.0000
  S   S218      1.0  0.54746  0.46107  0.33183  1.0000
  Fe  Fe111     1.0  0.68884  0.00283  0.41715  1.0000
  C   C539      1.0  0.64405  0.02611  0.41342  1.0000
  C   C540      1.0  0.70671  0.99969  0.60084  1.0000
  H   H855      1.0  0.65278  0.03797  0.41847  1.0000
  H   H856      1.0  0.74332  0.25234  0.51266  1.0000
  H   H857      1.0  0.71332  0.99740  0.61291  1.0000
  H   H858      1.0  0.53779  0.22900  0.33250  1.0000
  H   H859      1.0  0.74086  0.17374  0.52530  1.0000
  H   H860      1.0  0.74227  0.18690  0.54969  1.0000
  H   H861      1.0  0.63661  0.02282  0.42639  1.0000
  H   H862      1.0  0.54261  0.17220  0.32886  1.0000
  H   H863      1.0  0.63126  0.99400  0.38710  1.0000
  H   H864      1.0  0.52169  0.32474  0.83993  1.0000
  Fe  Fe112     1.0  0.56233  0.03223  0.81881  1.0000
  S   S219      1.0  0.57110  0.09584  0.82064  1.0000
  Fe  Fe113     1.0  0.55526  0.06275  0.77592  1.0000
  S   S220      1.0  0.56427  0.12605  0.77477  1.0000
  S   S221      1.0  0.54514  0.03979  0.75113  1.0000
  Fe  Fe114     1.0  0.58086  0.08740  0.79043  1.0000
  S   S222      1.0  0.60234  0.09805  0.78040  1.0000
  Fe  Fe115     1.0  0.55396  0.13084  0.80521  1.0000
  S   S223      1.0  0.54565  0.20244  0.80737  1.0000
  S   S224      1.0  0.57289  0.02275  0.78892  1.0000
  S   S225      1.0  0.54410  0.06867  0.80594  1.0000
  H   H865      1.0  0.68658  0.36131  0.76153  1.0000
  S   S226      1.0  0.69170  0.43126  0.90689  1.0000
  Fe  Fe116     1.0  0.66786  0.19710  0.80984  1.0000
  S   S227      1.0  0.67105  0.26426  0.79352  1.0000
  S   S228      1.0  0.64716  0.17607  0.81965  1.0000
  Fe  Fe117     1.0  0.69696  0.17491  0.81574  1.0000
  S   S229      1.0  0.70166  0.24052  0.79988  1.0000
  S   S230      1.0  0.71607  0.13543  0.82437  1.0000
  Fe  Fe118     1.0  0.68407  0.27155  0.81747  1.0000
  S   S231      1.0  0.68461  0.34047  0.82846  1.0000
  Fe  Fe119     1.0  0.68863  0.22859  0.77714  1.0000
  S   S232      1.0  0.69697  0.24848  0.74485  1.0000
  S   S233      1.0  0.68001  0.20620  0.83462  1.0000
  S   S234      1.0  0.68474  0.16108  0.79221  1.0000
  C   C541      1.0  0.71237  0.33549  0.76042  1.0000
  C   C542      1.0  0.69957  0.22150  0.72272  1.0000
  C   C543      1.0  0.69375  0.18351  0.72074  1.0000
  C   C544      1.0  0.69559  0.16484  0.70264  1.0000
  C   C545      1.0  0.70344  0.18324  0.68623  1.0000
  C   C546      1.0  0.70951  0.22061  0.68835  1.0000
  C   C547      1.0  0.70748  0.23973  0.70634  1.0000
  H   H866      1.0  0.68757  0.16906  0.73302  1.0000
  H   H867      1.0  0.69078  0.13604  0.70133  1.0000
  H   H868      1.0  0.71558  0.23537  0.67601  1.0000
  H   H869      1.0  0.71205  0.26911  0.70753  1.0000
  C   C548      1.0  0.69008  0.40685  0.88466  1.0000
  C   C549      1.0  0.68777  0.43197  0.86653  1.0000
  C   C550      1.0  0.68613  0.41113  0.84972  1.0000
  C   C551      1.0  0.68677  0.36471  0.85051  1.0000
  C   C552      1.0  0.68908  0.33962  0.86864  1.0000
  C   C553      1.0  0.69071  0.36046  0.88545  1.0000
  S   S235      1.0  0.70541  0.15747  0.66379  1.0000
  H   H870      1.0  0.68436  0.43127  0.83594  1.0000
  H   H871      1.0  0.68964  0.30400  0.86974  1.0000
  H   H872      1.0  0.69247  0.34029  0.89924  1.0000
  H   H873      1.0  0.50628  0.11986  0.70763  1.0000
  C   C554      1.0  0.73326  0.03465  0.86015  1.0000
  C   C555      1.0  0.73076  0.07427  0.84776  1.0000
  C   C556      1.0  0.71823  0.08737  0.84133  1.0000
  C   C557      1.0  0.70814  0.06073  0.84760  1.0000
  H   H874      1.0  0.72219  0.11370  0.69774  1.0000
  C   C558      1.0  0.72331  0.00720  0.86584  1.0000
  H   H875      1.0  0.69845  0.07058  0.84275  1.0000
  C   C559      1.0  0.50138  0.19699  0.68449  1.0000
  C   C560      1.0  0.61477  0.11887  0.79178  1.0000
  C   C561      1.0  0.62659  0.12766  0.78048  1.0000
  C   C562      1.0  0.63661  0.14510  0.78867  1.0000
  C   C563      1.0  0.63496  0.15387  0.80836  1.0000
  C   C564      1.0  0.62315  0.14487  0.81968  1.0000
  C   C565      1.0  0.61313  0.12743  0.81151  1.0000
  H   H876      1.0  0.62801  0.12119  0.76521  1.0000
  H   H877      1.0  0.64562  0.15176  0.77974  1.0000
  H   H878      1.0  0.62178  0.15133  0.83496  1.0000
  H   H879      1.0  0.60420  0.12052  0.82055  1.0000
  C   C566      1.0  0.54024  0.06521  0.72764  1.0000
  C   C567      1.0  0.53381  0.04093  0.71617  1.0000
  C   C568      1.0  0.52984  0.05926  0.69744  1.0000
  C   C569      1.0  0.53227  0.10232  0.68982  1.0000
  C   C570      1.0  0.53858  0.12677  0.70135  1.0000
  C   C571      1.0  0.54253  0.10846  0.72009  1.0000
  H   H880      1.0  0.73941  0.11156  0.70031  1.0000
  H   H881      1.0  0.52502  0.03987  0.68886  1.0000
  H   H882      1.0  0.54054  0.16008  0.69568  1.0000
  H   H883      1.0  0.54746  0.12766  0.72862  1.0000
  C   C572      1.0  0.52198  0.26409  0.85949  1.0000
  C   C573      1.0  0.52654  0.21889  0.86159  1.0000
  C   C574      1.0  0.53391  0.19937  0.84584  1.0000
  C   C575      1.0  0.53687  0.22511  0.82794  1.0000
  C   C576      1.0  0.53250  0.27043  0.82598  1.0000
  C   C577      1.0  0.52503  0.28984  0.84164  1.0000
  H   H884      1.0  0.52427  0.19876  0.87539  1.0000
  H   H885      1.0  0.53725  0.16445  0.84753  1.0000
  H   H886      1.0  0.53482  0.29062  0.81221  1.0000
  C   C578      1.0  0.65767  0.45253  0.92854  1.0000
  N   N56       1.0  0.70493  0.36787  0.77274  1.0000
  C   C579      1.0  0.71039  0.36362  0.79209  1.0000
  C   C580      1.0  0.69100  0.35943  0.77578  1.0000
  C   C581      1.0  0.70592  0.41299  0.76266  1.0000
  H   H887      1.0  0.70490  0.38728  0.80185  1.0000
  H   H888      1.0  0.70966  0.33007  0.80022  1.0000
  H   H889      1.0  0.72090  0.36958  0.79047  1.0000
  H   H890      1.0  0.68505  0.38310  0.78506  1.0000
  H   H891      1.0  0.71631  0.42055  0.76015  1.0000
  H   H892      1.0  0.70037  0.43814  0.77159  1.0000
  H   H893      1.0  0.70186  0.41724  0.74803  1.0000
  H   H894      1.0  0.73321  0.12852  0.67666  1.0000
  C   C582      1.0  0.73216  0.10508  0.69040  1.0000
  S   S236      1.0  0.52732  0.12797  0.66641  1.0000
  H   H895      1.0  0.70288  0.99996  0.86435  1.0000
  H   H896      1.0  0.60233  0.99954  0.79227  1.0000
  H   H897      1.0  0.71411  0.06049  0.67854  1.0000
  H   H898      1.0  0.68726  0.46756  0.86541  1.0000
  N   N57       1.0  0.64931  0.45830  0.91198  1.0000
  Fe  Fe120     1.0  0.49990  0.35319  0.87444  1.0000
  S   S237      1.0  0.50064  0.41105  0.85065  1.0000
  H   H899      1.0  0.63332  0.42851  0.90324  1.0000
  C   C583      1.0  0.65764  0.45236  0.89341  1.0000
  H   H900      1.0  0.73857  0.09503  0.84314  1.0000
  H   H901      1.0  0.73881  0.03309  0.71533  1.0000
  H   H902      1.0  0.61722  0.01303  0.80005  1.0000
  H   H903      1.0  0.65181  0.45750  0.94284  1.0000
  C   C584      1.0  0.63979  0.42512  0.91548  1.0000
  N   N58       1.0  0.58566  0.23439  0.79105  1.0000
  C   C585      1.0  0.57900  0.22751  0.77378  1.0000
  C   C586      1.0  0.59985  0.23571  0.78522  1.0000
  C   C587      1.0  0.58374  0.19765  0.80683  1.0000
  C   C588      1.0  0.57998  0.27635  0.79841  1.0000
  H   H904      1.0  0.56830  0.22538  0.77777  1.0000
  H   H905      1.0  0.58316  0.19621  0.76779  1.0000
  H   H906      1.0  0.58007  0.25486  0.76162  1.0000
  H   H907      1.0  0.60533  0.23903  0.79804  1.0000
  H   H908      1.0  0.60428  0.20487  0.77909  1.0000
  H   H909      1.0  0.60173  0.26374  0.77369  1.0000
  H   H910      1.0  0.58908  0.20049  0.81982  1.0000
  H   H911      1.0  0.58733  0.16542  0.80144  1.0000
  H   H912      1.0  0.57317  0.19659  0.81210  1.0000
  H   H913      1.0  0.58475  0.28233  0.81152  1.0000
  H   H914      1.0  0.56926  0.27600  0.80294  1.0000
  H   H915      1.0  0.58120  0.30493  0.78690  1.0000
  C   C589      1.0  0.73410  0.99420  0.81198  1.0000
  H   H916      1.0  0.72555  0.01794  0.66844  1.0000
  C   C590      1.0  0.71069  0.02075  0.85982  1.0000
  H   H917      1.0  0.68995  0.32598  0.78359  1.0000
  H   H918      1.0  0.70831  0.33696  0.74589  1.0000
  H   H919      1.0  0.71190  0.30107  0.76763  1.0000
  H   H920      1.0  0.72291  0.34097  0.75761  1.0000
  S   S238      1.0  0.51217  0.28692  0.87921  1.0000
  H   H921      1.0  0.72167  0.03622  0.71177  1.0000
  H   H922      1.0  0.59033  0.02323  0.82283  1.0000
  C   C591      1.0  0.59897  0.00963  0.83089  1.0000
  C   C592      1.0  0.49743  0.23954  0.83221  1.0000
  H   H923      1.0  0.50813  0.23096  0.82853  1.0000
  H   H924      1.0  0.50022  0.11084  0.68519  1.0000
  H   H925      1.0  0.64489  0.39095  0.91665  1.0000
  H   H926      1.0  0.66499  0.47687  0.92621  1.0000
  H   H927      1.0  0.66301  0.41862  0.89397  1.0000
  H   H928      1.0  0.49789  0.23276  0.68291  1.0000
  H   H929      1.0  0.74289  0.02534  0.86526  1.0000
  H   H930      1.0  0.50827  0.30665  0.80934  1.0000
  N   N59       1.0  0.73395  0.05872  0.68605  1.0000
  H   H931      1.0  0.73556  0.02988  0.81071  1.0000
  H   H932      1.0  0.51100  0.19273  0.69095  1.0000
  C   C593      1.0  0.49728  0.12398  0.69959  1.0000
  H   H933      1.0  0.50479  0.24210  0.79337  1.0000
  H   H934      1.0  0.59518  0.99998  0.84648  1.0000
  H   H935      1.0  0.49936  0.29867  0.91929  1.0000
  H   H936      1.0  0.49601  0.32795  0.82733  1.0000
  H   H937      1.0  0.63341  0.42868  0.92946  1.0000
  H   H938      1.0  0.53198  0.00745  0.72177  1.0000
  H   H939      1.0  0.66332  0.41922  0.93004  1.0000
  H   H940      1.0  0.65178  0.45717  0.88044  1.0000
  C   C594      1.0  0.72441  0.05242  0.67227  1.0000
  H   H941      1.0  0.50334  0.18669  0.66936  1.0000
  H   H942      1.0  0.49786  0.18545  0.72396  1.0000
  H   H943      1.0  0.50279  0.21811  0.92192  1.0000
  H   H944      1.0  0.66518  0.47615  0.89065  1.0000
  H   H945      1.0  0.52390  0.47490  0.88571  1.0000
  C   C595      1.0  0.49753  0.31171  0.81352  1.0000
  H   H946      1.0  0.60527  0.03677  0.83065  1.0000
  C   C596      1.0  0.73178  0.02912  0.70458  1.0000
  H   H947      1.0  0.49623  0.25485  0.84627  1.0000
  S   S239      1.0  0.49469  0.39504  0.89945  1.0000
  H   H948      1.0  0.49944  0.21580  0.94828  1.0000
  C   C597      1.0  0.49480  0.21696  0.93424  1.0000
  H   H949      1.0  0.73307  0.99385  0.70180  1.0000
  H   H950      1.0  0.49529  0.29817  0.94548  1.0000
  Fe  Fe121     1.0  0.56088  0.57129  0.27126  1.0000
  S   S240      1.0  0.56434  0.63301  0.28375  1.0000
  S   S241      1.0  0.56125  0.57864  0.23738  1.0000
  N   N60       1.0  0.71927  0.79553  0.14558  1.0000
  Fe  Fe122     1.0  0.54733  0.61821  0.30581  1.0000
  Fe  Fe123     1.0  0.57683  0.58859  0.30473  1.0000
  C   C598      1.0  0.71123  0.56379  0.00516  1.0000
  S   S242      1.0  0.54318  0.55928  0.29221  1.0000
  S   S243      1.0  0.57464  0.52669  0.29105  1.0000
  Fe  Fe124     1.0  0.52103  0.62494  0.09957  1.0000
  S   S244      1.0  0.50131  0.66419  0.09744  1.0000
  S   S245      1.0  0.53422  0.60818  0.07182  1.0000
  Fe  Fe125     1.0  0.51584  0.59992  0.14511  1.0000
  Fe  Fe126     1.0  0.68758  0.66835  0.31668  1.0000
  S   S246      1.0  0.51913  0.56523  0.17623  1.0000
  H   H951      1.0  0.58084  0.73452  0.02011  1.0000
  H   H952      1.0  0.72219  0.89697  0.29911  1.0000
  Fe  Fe127     1.0  0.50496  0.68957  0.12558  1.0000
  H   H953      1.0  0.51569  0.54642  0.05947  1.0000
  S   S247      1.0  0.51319  0.56605  0.11857  1.0000
  S   S248      1.0  0.52552  0.65488  0.12636  1.0000
  Fe  Fe128     1.0  0.66440  0.71741  0.29632  1.0000
  S   S249      1.0  0.67586  0.77537  0.28486  1.0000
  S   S250      1.0  0.64437  0.71205  0.28543  1.0000
  H   H954      1.0  0.59219  0.71892  0.30856  1.0000
  S   S251      1.0  0.70064  0.72216  0.30665  1.0000
  H   H955      1.0  0.65509  0.56487  0.27878  1.0000
  Fe  Fe129     1.0  0.69273  0.72498  0.27678  1.0000
  S   S252      1.0  0.70715  0.73147  0.24845  1.0000
  S   S253      1.0  0.68093  0.66814  0.28649  1.0000
  C   C599      1.0  0.58238  0.72511  0.30266  1.0000
  S   S254      1.0  0.71888  0.69071  0.10647  1.0000
  H   H956      1.0  0.49937  0.58108  0.31971  1.0000
  H   H957      1.0  0.51008  0.64317  0.20276  1.0000
  S   S255      1.0  0.72754  0.58800  0.11940  1.0000
  H   H958      1.0  0.71207  0.80692  0.31361  1.0000
  Fe  Fe130     1.0  0.72427  0.63031  0.09037  1.0000
  S   S256      1.0  0.71147  0.61190  0.06723  1.0000
  Fe  Fe131     1.0  0.72410  0.64999  0.13492  1.0000
  S   S257      1.0  0.71012  0.65917  0.16332  1.0000
  C   C600      1.0  0.71343  0.88751  0.29315  1.0000
  S   S258      1.0  0.50146  0.75861  0.13478  1.0000
  H   H959      1.0  0.70654  0.76519  0.16894  1.0000
  C   C601      1.0  0.50114  0.72524  0.18781  1.0000
  C   C602      1.0  0.69964  0.58025  0.01562  1.0000
  C   C603      1.0  0.69995  0.59486  0.03438  1.0000
  C   C604      1.0  0.71184  0.59434  0.04298  1.0000
  C   C605      1.0  0.72347  0.57868  0.03234  1.0000
  C   C606      1.0  0.72313  0.56305  0.01380  1.0000
  H   H960      1.0  0.52185  0.72169  0.16094  1.0000
  H   H961      1.0  0.69085  0.60671  0.04231  1.0000
  H   H962      1.0  0.73273  0.57832  0.03845  1.0000
  H   H963      1.0  0.71667  0.80207  0.17669  1.0000
  H   H964      1.0  0.72250  0.77701  0.29603  1.0000
  C   C607      1.0  0.65401  0.58541  0.29121  1.0000
  H   H965      1.0  0.49521  0.73449  0.20147  1.0000
  H   H966      1.0  0.56719  0.70882  0.01424  1.0000
  C   C608      1.0  0.70797  0.70874  0.22533  1.0000
  C   C609      1.0  0.71967  0.70906  0.21260  1.0000
  C   C610      1.0  0.72068  0.69287  0.19397  1.0000
  C   C611      1.0  0.70988  0.67700  0.18743  1.0000
  C   C612      1.0  0.69819  0.67677  0.20015  1.0000
  C   C613      1.0  0.69726  0.69213  0.21895  1.0000
  H   H967      1.0  0.72809  0.72141  0.21731  1.0000
  H   H968      1.0  0.72986  0.69251  0.18477  1.0000
  H   H969      1.0  0.68973  0.66465  0.19542  1.0000
  H   H970      1.0  0.68815  0.69169  0.22837  1.0000
  N   N61       1.0  0.71622  0.84433  0.28536  1.0000
  H   H971      1.0  0.51751  0.66674  0.16838  1.0000
  C   C614      1.0  0.55902  0.74319  0.30994  1.0000
  C   C615      1.0  0.57435  0.77269  0.32770  1.0000
  H   H972      1.0  0.72659  0.72732  0.15150  1.0000
  C   C616      1.0  0.60862  0.63565  0.30834  1.0000
  C   C617      1.0  0.67404  0.54744  0.30332  1.0000
  C   C618      1.0  0.62861  0.66590  0.31471  1.0000
  C   C619      1.0  0.63073  0.68240  0.29479  1.0000
  C   C620      1.0  0.62166  0.67565  0.28175  1.0000
  C   C621      1.0  0.61071  0.65231  0.28843  1.0000
  H   H973      1.0  0.70299  0.81235  0.12781  1.0000
  H   H974      1.0  0.64251  0.53212  0.32030  1.0000
  H   H975      1.0  0.65372  0.49951  0.30467  1.0000
  H   H976      1.0  0.60390  0.64728  0.27815  1.0000
  H   H977      1.0  0.67959  0.57610  0.29779  1.0000
  H   H978      1.0  0.73700  0.75935  0.13425  1.0000
  H   H979      1.0  0.70540  0.88668  0.30541  1.0000
  C   C622      1.0  0.54901  0.57680  0.22092  1.0000
  C   C623      1.0  0.55151  0.59251  0.20079  1.0000
  C   C624      1.0  0.54241  0.59008  0.18699  1.0000
  C   C625      1.0  0.53074  0.57118  0.19308  1.0000
  C   C626      1.0  0.52817  0.55578  0.21323  1.0000
  C   C627      1.0  0.53716  0.55895  0.22709  1.0000
  H   H980      1.0  0.56067  0.60605  0.19577  1.0000
  H   H981      1.0  0.54466  0.60161  0.17156  1.0000
  H   H982      1.0  0.49617  0.70025  0.18179  1.0000
  H   H983      1.0  0.53511  0.54645  0.24245  1.0000
  H   H984      1.0  0.50544  0.49943  0.32562  1.0000
  C   C628      1.0  0.53246  0.70540  0.02489  1.0000
  C   C629      1.0  0.53075  0.68264  0.04408  1.0000
  C   C630      1.0  0.53617  0.63880  0.04794  1.0000
  C   C631      1.0  0.54322  0.61807  0.03228  1.0000
  C   C632      1.0  0.54481  0.64070  0.01303  1.0000
  H   H985      1.0  0.52832  0.73945  0.02217  1.0000
  H   H986      1.0  0.52534  0.69921  0.05591  1.0000
  H   H987      1.0  0.54744  0.58413  0.03504  1.0000
  C   C633      1.0  0.65311  0.52251  0.31611  1.0000
  H   H988      1.0  0.52225  0.50738  0.31759  1.0000
  H   H989      1.0  0.49441  0.54467  0.16329  1.0000
  H   H990      1.0  0.55088  0.75138  0.32135  1.0000
  H   H991      1.0  0.52158  0.77289  0.18630  1.0000
  H   H992      1.0  0.51608  0.75598  0.21161  1.0000
  N   N62       1.0  0.66004  0.56166  0.30873  1.0000
  H   H993      1.0  0.49845  0.63967  0.02891  1.0000
  C   C634      1.0  0.57812  0.70547  0.01391  1.0000
  C   C635      1.0  0.72011  0.80996  0.30145  1.0000
  C   C636      1.0  0.65898  0.59116  0.32438  1.0000
  C   C637      1.0  0.53948  0.68469  0.00921  1.0000
  H   H994      1.0  0.51621  0.58807  0.31163  1.0000
  S   S259      1.0  0.67030  0.71484  0.32725  1.0000
  S   S260      1.0  0.52980  0.66900  0.31029  1.0000
  H   H995      1.0  0.72444  0.87206  0.25702  1.0000
  C   C638      1.0  0.71094  0.79685  0.16447  1.0000
  H   H996      1.0  0.69037  0.58100  0.00944  1.0000
  C   C639      1.0  0.71133  0.78633  0.13015  1.0000
  N   N63       1.0  0.57181  0.73403  0.31844  1.0000
  H   H997      1.0  0.64333  0.59503  0.29461  1.0000
  Fe  Fe132     1.0  0.55684  0.51932  0.31322  1.0000
  S   S261      1.0  0.59472  0.60749  0.31793  1.0000
  C   C640      1.0  0.72698  0.84616  0.26932  1.0000
  H   H998      1.0  0.60244  0.66795  0.00299  1.0000
  H   H999      1.0  0.66367  0.62187  0.31910  1.0000
  H   H1000     1.0  0.72887  0.81754  0.30803  1.0000
  H   H1001     1.0  0.65853  0.61638  0.28574  1.0000
  Fe  Fe133     1.0  0.74025  0.70180  0.10177  1.0000
  H   H1002     1.0  0.70269  0.82363  0.16336  1.0000
  Fe  Fe134     1.0  0.68302  0.76962  0.31549  1.0000
  H   H1003     1.0  0.70132  0.85782  0.26495  1.0000
  H   H1004     1.0  0.70590  0.80037  0.27222  1.0000
  H   H1005     1.0  0.51069  0.74315  0.31406  1.0000
  H   H1006     1.0  0.51921  0.54096  0.21818  1.0000
  H   H1007     1.0  0.53164  0.73240  0.20102  1.0000
  H   H1008     1.0  0.67528  0.52508  0.29156  1.0000
  H   H1009     1.0  0.58341  0.63257  0.99546  1.0000
  H   H1010     1.0  0.58105  0.69522  0.29578  1.0000
  N   N64       1.0  0.51481  0.70855  0.19158  1.0000
  C   C641      1.0  0.73024  0.76028  0.14798  1.0000
  H   H1011     1.0  0.73616  0.76491  0.16008  1.0000
  C   C642      1.0  0.50557  0.55754  0.06560  1.0000
  H   H1012     1.0  0.50077  0.75515  0.17675  1.0000
  H   H1013     1.0  0.55898  0.77146  0.29805  1.0000
  H   H1014     1.0  0.58105  0.67539  0.02401  1.0000
  H   H1015     1.0  0.71024  0.91415  0.28152  1.0000
  C   C643      1.0  0.70433  0.83348  0.27753  1.0000
  H   H1016     1.0  0.71665  0.86581  0.13760  1.0000
  C   C644      1.0  0.72462  0.83832  0.13965  1.0000
  H   H1017     1.0  0.52505  0.65716  0.21032  1.0000
  H   H1018     1.0  0.62316  0.68840  0.26631  1.0000
  H   H1019     1.0  0.73622  0.85344  0.27472  1.0000
  H   H1020     1.0  0.69589  0.83313  0.28904  1.0000
  H   H1021     1.0  0.72332  0.50893  0.06861  1.0000
  H   H1022     1.0  0.63528  0.67183  0.32501  1.0000
  C   C645      1.0  0.52132  0.74404  0.19794  1.0000
  H   H1023     1.0  0.50565  0.64259  0.05141  1.0000
  H   H1024     1.0  0.70712  0.75421  0.13423  1.0000
  C   C646      1.0  0.52198  0.69427  0.17327  1.0000
  H   H1025     1.0  0.56953  0.66548  0.32700  1.0000
  H   H1026     1.0  0.51411  0.60970  0.03331  1.0000
  H   H1027     1.0  0.57467  0.80264  0.31672  1.0000
  C   C647      1.0  0.50897  0.58527  0.32488  1.0000
  H   H1028     1.0  0.71735  0.78458  0.11572  1.0000
  S   S262      1.0  0.55978  0.57842  0.32793  1.0000
  S   S263      1.0  0.49553  0.63604  0.14507  1.0000
  H   H1029     1.0  0.73095  0.83790  0.12540  1.0000
  H   H1030     1.0  0.50955  0.68003  0.22128  1.0000
  C   C648      1.0  0.51485  0.67062  0.20720  1.0000
  H   H1031     1.0  0.72906  0.81408  0.26298  1.0000
  H   H1032     1.0  0.50100  0.52801  0.07307  1.0000
  N   N65       1.0  0.49765  0.58158  0.05008  1.0000
  H   H1033     1.0  0.73076  0.84609  0.15090  1.0000
  H   H1034     1.0  0.72240  0.52780  0.09229  1.0000
  H   H1035     1.0  0.73219  0.55025  0.00609  1.0000
  H   H1036     1.0  0.55016  0.62408  0.00118  1.0000
  H   H1037     1.0  0.53243  0.68234  0.17538  1.0000
  C   C649      1.0  0.61764  0.64264  0.32141  1.0000
  H   H1038     1.0  0.58275  0.75321  0.29072  1.0000
  C   C650      1.0  0.51607  0.73849  0.32704  1.0000
  H   H1039     1.0  0.55651  0.71417  0.30345  1.0000
  H   H1040     1.0  0.50661  0.57897  0.07711  1.0000
  C   C651      1.0  0.50422  0.62007  0.04048  1.0000
  H   H1041     1.0  0.50614  0.53947  0.02830  1.0000
  H   H1042     1.0  0.67894  0.52997  0.31628  1.0000
  C   C652      1.0  0.49635  0.55180  0.03525  1.0000
  C   C653      1.0  0.72554  0.49862  0.08419  1.0000
  H   H1043     1.0  0.73976  0.49890  0.11524  1.0000
  H   H1044     1.0  0.60218  0.72710  0.99903  1.0000
  S   S264      1.0  0.74371  0.77399  0.09293  1.0000
  H   H1045     1.0  0.50307  0.49103  0.18977  1.0000
  H   H1046     1.0  0.58391  0.76679  0.33433  1.0000
  S   S265      1.0  0.49549  0.89767  0.39789  1.0000
  N   N66       1.0  0.51326  0.54829  0.33961  1.0000
  H   H1047     1.0  0.71312  0.91937  0.58880  1.0000
  H   H1048     1.0  0.49629  0.81053  0.44210  1.0000
  S   S266      1.0  0.68693  0.93498  0.40614  1.0000
  C   C654      1.0  0.68565  0.86229  0.35025  1.0000
  C   C655      1.0  0.68740  0.90768  0.34827  1.0000
  C   C656      1.0  0.68788  0.93033  0.36497  1.0000
  C   C657      1.0  0.68663  0.90811  0.38417  1.0000
  C   C658      1.0  0.68480  0.86283  0.38615  1.0000
  C   C659      1.0  0.68434  0.84017  0.36945  1.0000
  C   C660      1.0  0.53314  0.69826  0.34591  1.0000
  H   H1049     1.0  0.50784  0.98068  0.57405  1.0000
  H   H1050     1.0  0.68382  0.84490  0.40078  1.0000
  H   H1051     1.0  0.68300  0.80542  0.37148  1.0000
  H   H1052     1.0  0.50494  0.79375  0.33980  1.0000
  C   C661      1.0  0.73221  0.53794  0.35210  1.0000
  C   C662      1.0  0.73058  0.58193  0.34327  1.0000
  Fe  Fe135     1.0  0.49979  0.85480  0.37306  1.0000
  C   C663      1.0  0.72142  0.51344  0.35497  1.0000
  H   H1053     1.0  0.66399  0.57509  0.33749  1.0000
  C   C664      1.0  0.52982  0.72702  0.36055  1.0000
  S   S267      1.0  0.51556  0.79673  0.37716  1.0000
  C   C665      1.0  0.71831  0.60132  0.33735  1.0000
  H   H1054     1.0  0.68839  0.92560  0.33365  1.0000
  H   H1055     1.0  0.50163  0.96714  0.54138  1.0000
  S   S268      1.0  0.69172  0.60027  0.33375  1.0000
  C   C666      1.0  0.51964  0.76163  0.35842  1.0000
  H   H1056     1.0  0.52959  0.52849  0.35716  1.0000
  H   H1057     1.0  0.69911  0.97674  0.60572  1.0000
  H   H1058     1.0  0.66181  0.96090  0.42569  1.0000
  C   C667      1.0  0.57153  0.69510  0.33351  1.0000
  C   C668      1.0  0.51481  0.50647  0.33063  1.0000
  H   H1059     1.0  0.66028  0.95892  0.38101  1.0000
  C   C669      1.0  0.52626  0.70408  0.32907  1.0000
  S   S269      1.0  0.49819  0.91118  0.34845  1.0000
  H   H1060     1.0  0.62803  0.96446  0.41114  1.0000
  H   H1061     1.0  0.50638  0.51804  0.36822  1.0000
  H   H1062     1.0  0.50966  0.72651  0.42528  1.0000
  H   H1063     1.0  0.63800  0.93739  0.39214  1.0000
  H   H1064     1.0  0.61607  0.63035  0.33689  1.0000
  H   H1065     1.0  0.50198  0.80446  0.41680  1.0000
  H   H1066     1.0  0.73887  0.60112  0.34095  1.0000
  C   C670      1.0  0.70748  0.57697  0.34039  1.0000
  C   C671      1.0  0.72050  0.94339  0.58459  1.0000
  H   H1067     1.0  0.71720  0.63516  0.33058  1.0000
  H   H1068     1.0  0.56380  0.70068  0.34581  1.0000
  H   H1069     1.0  0.50451  0.73165  0.45084  1.0000
  H   H1070     1.0  0.68929  0.96501  0.36295  1.0000
  H   H1071     1.0  0.54091  0.67153  0.34772  1.0000
  H   H1072     1.0  0.70079  0.51390  0.35169  1.0000
  H   H1073     1.0  0.64585  0.94337  0.43295  1.0000
  C   C672      1.0  0.52596  0.55580  0.34609  1.0000
  N   N67       1.0  0.71416  0.98926  0.58209  1.0000
  H   H1074     1.0  0.53512  0.72244  0.37360  1.0000
  H   H1075     1.0  0.53360  0.55720  0.33346  1.0000
  C   C673      1.0  0.63568  0.96928  0.39854  1.0000
  C   C674      1.0  0.50338  0.54563  0.35685  1.0000
  C   C675      1.0  0.65311  0.95015  0.42003  1.0000
  H   H1076     1.0  0.50799  0.61755  0.33099  1.0000
  C   C676      1.0  0.70910  0.53297  0.34922  1.0000
  N   N68       1.0  0.64754  0.98393  0.40493  1.0000
  C   C677      1.0  0.50119  0.72426  0.43679  1.0000
  H   H1077     1.0  0.52533  0.58754  0.35253  1.0000
  H   H1078     1.0  0.72740  0.93874  0.59637  1.0000
  H   H1079     1.0  0.56655  0.78038  0.33968  1.0000
  H   H1080     1.0  0.71045  0.98803  0.55181  1.0000
  C   C678      1.0  0.51279  0.76724  0.34160  1.0000
  H   H1081     1.0  0.72625  0.93454  0.57071  1.0000
  H   H1082     1.0  0.65651  0.91844  0.41388  1.0000
  H   H1083     1.0  0.69739  0.97165  0.56980  1.0000
  H   H1084     1.0  0.50204  0.57670  0.36394  1.0000
  H   H1085     1.0  0.49878  0.68950  0.43901  1.0000
  H   H1086     1.0  0.58114  0.68650  0.33989  1.0000
  H   H1087     1.0  0.52400  0.98001  0.37732  1.0000
  S   S270      1.0  0.49515  0.98836  0.61658  1.0000
  H   H1088     1.0  0.64858  0.60107  0.32944  1.0000
  H   H1089     1.0  0.65738  0.50397  0.32939  1.0000
  C   C679      1.0  0.65736  0.99018  0.38775  1.0000
  S   S271      1.0  0.68530  0.83540  0.32829  1.0000
  Fe  Fe136     1.0  0.55047  0.69984  0.95471  1.0000
  S   S272      1.0  0.56419  0.63967  0.94841  1.0000
  C   C680      1.0  0.58039  0.66368  0.98608  1.0000
  Fe  Fe137     1.0  0.55361  0.74277  0.91075  1.0000
  S   S273      1.0  0.56768  0.68506  0.90225  1.0000
  S   S274      1.0  0.54670  0.79490  0.88559  1.0000
  Fe  Fe138     1.0  0.55361  0.64240  0.92092  1.0000
  S   S275      1.0  0.54959  0.57913  0.90942  1.0000
  Fe  Fe139     1.0  0.57691  0.68756  0.93034  1.0000
  S   S276      1.0  0.59856  0.69493  0.93184  1.0000
  S   S277      1.0  0.53901  0.69960  0.92833  1.0000
  S   S278      1.0  0.56365  0.74814  0.93773  1.0000
  S   S279      1.0  0.49753  0.52100  0.88169  1.0000
  Fe  Fe140     1.0  0.66972  0.56008  0.94156  1.0000
  H   H1090     1.0  0.72724  0.98744  0.82542  1.0000
  S   S280      1.0  0.64791  0.55503  0.95066  1.0000
  Fe  Fe141     1.0  0.69312  0.59773  0.91717  1.0000
  S   S281      1.0  0.70682  0.53772  0.92602  1.0000
  S   S282      1.0  0.70060  0.65331  0.89522  1.0000
  H   H1091     1.0  0.73514  0.75191  0.87550  1.0000
  Fe  Fe142     1.0  0.69729  0.54496  0.95709  1.0000
  S   S283      1.0  0.71150  0.54253  0.98170  1.0000
  S   S284      1.0  0.67761  0.55768  0.90982  1.0000
  S   S285      1.0  0.68395  0.60615  0.94795  1.0000
  C   C681      1.0  0.59879  0.69821  0.99354  1.0000
  C   C682      1.0  0.73011  0.73274  0.88770  1.0000
  C   C683      1.0  0.71975  0.70924  0.88440  1.0000
  C   C684      1.0  0.71340  0.68298  0.90000  1.0000
  C   C685      1.0  0.71724  0.68146  0.91905  1.0000
  C   C686      1.0  0.72753  0.70516  0.92234  1.0000
  C   C687      1.0  0.53493  0.52097  0.89664  1.0000
  H   H1092     1.0  0.71679  0.71070  0.86963  1.0000
  H   H1093     1.0  0.71217  0.66232  0.93123  1.0000
  H   H1094     1.0  0.63565  0.50846  0.92419  1.0000
  C   C688      1.0  0.55263  0.84564  0.87432  1.0000
  C   C689      1.0  0.56315  0.86285  0.88091  1.0000
  C   C690      1.0  0.56731  0.90343  0.87169  1.0000
  C   C691      1.0  0.56109  0.92746  0.85567  1.0000
  C   C692      1.0  0.55067  0.90997  0.84891  1.0000
  C   C693      1.0  0.54647  0.86949  0.85820  1.0000
  H   H1095     1.0  0.56800  0.84517  0.89327  1.0000
  H   H1096     1.0  0.57533  0.91648  0.87717  1.0000
  H   H1097     1.0  0.54574  0.92786  0.83667  1.0000
  H   H1098     1.0  0.53830  0.85681  0.85294  1.0000
  C   C694      1.0  0.61211  0.65458  0.93614  1.0000
  C   C695      1.0  0.61049  0.61125  0.94434  1.0000
  C   C696      1.0  0.62157  0.58123  0.94864  1.0000
  C   C697      1.0  0.63435  0.59391  0.94450  1.0000
  C   C698      1.0  0.63596  0.63699  0.93599  1.0000
  C   C699      1.0  0.62489  0.66723  0.93204  1.0000
  H   H1099     1.0  0.60073  0.60106  0.94764  1.0000
  H   H1100     1.0  0.62021  0.54803  0.95531  1.0000
  H   H1101     1.0  0.64572  0.64727  0.93279  1.0000
  H   H1102     1.0  0.62624  0.70072  0.92577  1.0000
  C   C700      1.0  0.53478  0.56300  0.90283  1.0000
  C   C701      1.0  0.52308  0.59124  0.90287  1.0000
  C   C702      1.0  0.51177  0.57781  0.89641  1.0000
  C   C703      1.0  0.51196  0.53577  0.89018  1.0000
  H   H1103     1.0  0.56913  0.74695  0.98028  1.0000
  C   C704      1.0  0.59730  0.93684  0.82240  1.0000
  H   H1104     1.0  0.52276  0.62338  0.90785  1.0000
  H   H1105     1.0  0.50283  0.60011  0.89626  1.0000
  H   H1106     1.0  0.71423  0.81394  0.88671  1.0000
  H   H1107     1.0  0.54393  0.49887  0.89655  1.0000
  N   N69       1.0  0.70807  0.84627  0.91267  1.0000
  C   C705      1.0  0.71216  0.88144  0.92278  1.0000
  C   C706      1.0  0.69455  0.85885  0.90710  1.0000
  C   C707      1.0  0.70858  0.80451  0.92606  1.0000
  C   C708      1.0  0.71703  0.84022  0.89471  1.0000
  H   H1108     1.0  0.70572  0.88659  0.93654  1.0000
  H   H1109     1.0  0.71181  0.91356  0.91315  1.0000
  H   H1110     1.0  0.72242  0.87331  0.92686  1.0000
  H   H1111     1.0  0.69117  0.83290  0.89947  1.0000
  H   H1112     1.0  0.68751  0.86383  0.92030  1.0000
  H   H1113     1.0  0.69391  0.89021  0.89691  1.0000
  H   H1114     1.0  0.70184  0.80748  0.93972  1.0000
  H   H1115     1.0  0.71867  0.79447  0.93064  1.0000
  H   H1116     1.0  0.70577  0.77703  0.91878  1.0000
  H   H1117     1.0  0.63600  0.50922  0.89790  1.0000
  C   C709      1.0  0.73410  0.73044  0.90669  1.0000
  C   C710      1.0  0.52358  0.50726  0.89049  1.0000
  H   H1118     1.0  0.62320  0.92544  0.82647  1.0000
  H   H1119     1.0  0.61623  0.95853  0.79368  1.0000
  S   S286      1.0  0.72633  0.95508  0.87979  1.0000
  H   H1120     1.0  0.74315  0.62403  0.91714  1.0000
  H   H1121     1.0  0.58853  0.94906  0.81425  1.0000
  H   H1122     1.0  0.59348  0.92570  0.83784  1.0000
  C   C711      1.0  0.73536  0.60369  0.95583  1.0000
  H   H1123     1.0  0.73029  0.70459  0.93714  1.0000
  S   S287      1.0  0.54154  0.71587  0.98547  1.0000
  H   H1124     1.0  0.72733  0.83066  0.89837  1.0000
  H   H1125     1.0  0.60232  0.90748  0.81573  1.0000
  H   H1126     1.0  0.62438  0.97982  0.83275  1.0000
  C   C712      1.0  0.74056  0.58982  0.92184  1.0000
  H   H1127     1.0  0.56955  0.66620  0.98577  1.0000
  H   H1128     1.0  0.64910  0.52899  0.90852  1.0000
  H   H1129     1.0  0.72471  0.60521  0.95386  1.0000
  H   H1130     1.0  0.72996  0.58999  0.91991  1.0000
  N   N70       1.0  0.54139  0.68816  0.85650  1.0000
  C   C713      1.0  0.55147  0.71895  0.85048  1.0000
  C   C714      1.0  0.53295  0.68903  0.84029  1.0000
  C   C715      1.0  0.53326  0.70179  0.87419  1.0000
  C   C716      1.0  0.54784  0.64291  0.86113  1.0000
  H   H1131     1.0  0.55781  0.70996  0.83713  1.0000
  H   H1132     1.0  0.55797  0.71920  0.86245  1.0000
  H   H1133     1.0  0.54694  0.75358  0.84724  1.0000
  H   H1134     1.0  0.52525  0.66607  0.84442  1.0000
  H   H1135     1.0  0.52789  0.72271  0.83655  1.0000
  H   H1136     1.0  0.53876  0.67899  0.82667  1.0000
  H   H1137     1.0  0.53934  0.70093  0.88670  1.0000
  H   H1138     1.0  0.52544  0.67974  0.87909  1.0000
  H   H1139     1.0  0.52851  0.73626  0.87148  1.0000
  H   H1140     1.0  0.54053  0.61884  0.86590  1.0000
  H   H1141     1.0  0.55423  0.64100  0.87340  1.0000
  H   H1142     1.0  0.55410  0.63135  0.84817  1.0000
  H   H1143     1.0  0.71696  0.87106  0.88425  1.0000
  C   C717      1.0  0.61755  0.95422  0.83291  1.0000
  Fe  Fe143     1.0  0.69067  0.49761  0.92068  1.0000
  H   H1144     1.0  0.58499  0.66041  0.97081  1.0000
  H   H1145     1.0  0.73746  0.91036  0.82875  1.0000
  C   C718      1.0  0.61071  0.98616  0.80107  1.0000
  S   S288      1.0  0.56678  0.97892  0.84491  1.0000
  H   H1146     1.0  0.61440  0.94320  0.84863  1.0000
  H   H1147     1.0  0.72958  0.52642  0.94689  1.0000
  H   H1148     1.0  0.74206  0.51653  0.96343  1.0000
  H   H1149     1.0  0.58455  0.74182  0.96529  1.0000
  H   H1150     1.0  0.60367  0.69586  0.97831  1.0000
  S   S289      1.0  0.68251  0.49892  0.95270  1.0000
  N   N71       1.0  0.60614  0.97165  0.82181  1.0000
  H   H1151     1.0  0.73962  0.91099  0.80234  1.0000
  C   C719      1.0  0.58000  0.74290  0.98074  1.0000
  C   C720      1.0  0.64219  0.50314  0.91051  1.0000
  N   N72       1.0  0.74337  0.57475  0.94249  1.0000
  N   N73       1.0  0.58434  0.70259  0.99361  1.0000
  C   C721      1.0  0.74015  0.52886  0.94789  1.0000
  H   H1152     1.0  0.73648  0.59151  0.97162  1.0000
  H   H1153     1.0  0.73814  0.63790  0.95316  1.0000
  H   H1154     1.0  0.58274  0.77307  0.98599  1.0000
  H   H1155     1.0  0.72907  0.98906  0.79902  1.0000
  S   S290      1.0  0.97155  0.22137  0.12195  1.0000
  S   S291      1.0  0.99402  0.00369  0.10915  1.0000
  Fe  Fe144     1.0  0.91397  0.42888  0.19866  1.0000
  S   S292      1.0  0.92469  0.44368  0.16848  1.0000
  S   S293      1.0  0.89747  0.38346  0.20609  1.0000
  H   H1156     1.0  0.89871  0.00364  0.10767  1.0000
  C   C722      1.0  0.96763  0.01439  0.10187  1.0000
  H   H1157     1.0  0.96629  0.47357  0.21880  1.0000
  Fe  Fe145     1.0  0.94314  0.42089  0.18368  1.0000
  S   S294      1.0  0.96177  0.37496  0.17756  1.0000
  S   S295      1.0  0.93246  0.40152  0.21313  1.0000
  S   S296      1.0  0.98947  0.10289  0.14277  1.0000
  S   S297      1.0  0.81322  0.02546  0.04272  1.0000
  C   C723      1.0  0.90344  0.99635  0.09292  1.0000
  C   C724      1.0  0.94793  0.46207  0.26997  1.0000
  Fe  Fe146     1.0  0.80419  0.01742  0.07437  1.0000
  S   S298      1.0  0.79850  0.07875  0.09182  1.0000
  Fe  Fe147     1.0  0.82451  0.33290  0.18375  1.0000
  S   S299      1.0  0.82437  0.26245  0.19771  1.0000
  S   S300      1.0  0.84125  0.37683  0.17448  1.0000
  Fe  Fe148     1.0  0.79482  0.34271  0.18149  1.0000
  S   S301      1.0  0.79279  0.27282  0.19528  1.0000
  S   S302      1.0  0.77620  0.38914  0.17735  1.0000
  Fe  Fe149     1.0  0.80634  0.28711  0.21698  1.0000
  S   S303      1.0  0.80375  0.26344  0.25049  1.0000
  Fe  Fe150     1.0  0.81070  0.25344  0.17478  1.0000
  S   S304      1.0  0.81478  0.18922  0.15890  1.0000
  S   S305      1.0  0.80739  0.35752  0.20418  1.0000
  S   S306      1.0  0.81184  0.32312  0.15985  1.0000
  H   H1158     1.0  0.80973  0.05410  0.99812  1.0000
  C   C725      1.0  0.79794  0.28406  0.27371  1.0000
  C   C726      1.0  0.78948  0.32315  0.27582  1.0000
  C   C727      1.0  0.78496  0.33566  0.29497  1.0000
  C   C728      1.0  0.78904  0.30960  0.31218  1.0000
  C   C729      1.0  0.79755  0.27108  0.30982  1.0000
  C   C730      1.0  0.80180  0.25833  0.29098  1.0000
  H   H1159     1.0  0.78628  0.34345  0.26276  1.0000
  H   H1160     1.0  0.77840  0.36552  0.29637  1.0000
  H   H1161     1.0  0.98565  0.22809  0.08148  1.0000
  H   H1162     1.0  0.80831  0.22828  0.28978  1.0000
  H   H1163     1.0  0.82147  0.11261  0.19331  1.0000
  C   C731      1.0  0.77357  0.43392  0.15879  1.0000
  C   C732      1.0  0.78228  0.43996  0.14186  1.0000
  H   H1164     1.0  0.79460  0.08617  0.23273  1.0000
  C   C733      1.0  0.80334  0.10891  0.11050  1.0000
  C   C734      1.0  0.79593  0.14895  0.11468  1.0000
  C   C735      1.0  0.79925  0.17395  0.12917  1.0000
  C   C736      1.0  0.81009  0.15943  0.13999  1.0000
  C   C737      1.0  0.81746  0.11924  0.13593  1.0000
  C   C738      1.0  0.81418  0.09437  0.12135  1.0000
  H   H1165     1.0  0.78752  0.16090  0.10654  1.0000
  H   H1166     1.0  0.79340  0.20454  0.13191  1.0000
  H   H1167     1.0  0.82588  0.10730  0.14401  1.0000
  H   H1168     1.0  0.82005  0.06387  0.11851  1.0000
  C   C739      1.0  0.88181  0.38282  0.19714  1.0000
  C   C740      1.0  0.87732  0.41288  0.18155  1.0000
  C   C741      1.0  0.86493  0.41043  0.17487  1.0000
  C   C742      1.0  0.85682  0.37802  0.18363  1.0000
  C   C743      1.0  0.86132  0.34796  0.19921  1.0000
  C   C744      1.0  0.87372  0.35032  0.20586  1.0000
  H   H1169     1.0  0.88338  0.43805  0.17465  1.0000
  H   H1170     1.0  0.86162  0.43384  0.16278  1.0000
  H   H1171     1.0  0.85523  0.32292  0.20617  1.0000
  H   H1172     1.0  0.87702  0.32696  0.21797  1.0000
  C   C745      1.0  0.81495  0.45160  0.15710  1.0000
  H   H1173     1.0  0.80863  0.46004  0.14469  1.0000
  H   H1174     1.0  0.97795  0.30368  0.08891  1.0000
  C   C746      1.0  0.95632  0.42168  0.30706  1.0000
  H   H1175     1.0  0.96573  0.48046  0.30726  1.0000
  H   H1176     1.0  0.75389  0.43283  0.07498  1.0000
  H   H1177     1.0  0.75269  0.45873  0.10793  1.0000
  H   H1178     1.0  0.90000  0.02372  0.08177  1.0000
  C   C747      1.0  0.96890  0.26384  0.13752  1.0000
  C   C748      1.0  0.95792  0.29546  0.13565  1.0000
  C   C749      1.0  0.95555  0.32984  0.14777  1.0000
  C   C750      1.0  0.96419  0.33275  0.16186  1.0000
  C   C751      1.0  0.97521  0.30133  0.16361  1.0000
  C   C752      1.0  0.97755  0.26694  0.15155  1.0000
  H   H1179     1.0  0.95124  0.29343  0.12471  1.0000
  H   H1180     1.0  0.94716  0.35429  0.14609  1.0000
  H   H1181     1.0  0.98197  0.30348  0.17440  1.0000
  H   H1182     1.0  0.78668  0.48115  0.11455  1.0000
  C   C753      1.0  0.94861  0.40030  0.29621  1.0000
  C   C754      1.0  0.76241  0.46447  0.16125  1.0000
  H   H1183     1.0  0.99031  0.35102  0.22845  1.0000
  H   H1184     1.0  0.96715  0.04699  0.10646  1.0000
  H   H1185     1.0  0.82538  0.45053  0.15077  1.0000
  H   H1186     1.0  0.95696  0.40963  0.23785  1.0000
  H   H1187     1.0  0.81176  0.07860  0.23646  1.0000
  H   H1188     1.0  0.96699  0.35870  0.24322  1.0000
  C   C755      1.0  0.99324  0.24186  0.07036  1.0000
  H   H1189     1.0  0.80634  0.06346  0.21439  1.0000
  H   H1190     1.0  0.81341  0.41752  0.16386  1.0000
  C   C756      1.0  0.80464  0.08831  0.22513  1.0000
  H   H1191     1.0  0.78623  0.14292  0.20700  1.0000
  C   C757      1.0  0.95992  0.46327  0.29911  1.0000
  H   H1192     1.0  0.79640  0.44792  0.18731  1.0000
  H   H1193     1.0  0.98299  0.39649  0.25660  1.0000
  Fe  Fe151     1.0  0.93413  0.46999  0.21991  1.0000
  H   H1194     1.0  0.80093  0.25068  0.32273  1.0000
  C   C758      1.0  0.97438  0.45038  0.21264  1.0000
  H   H1195     1.0  0.80498  0.19936  0.22264  1.0000
  H   H1196     1.0  0.79829  0.12245  0.18836  1.0000
  H   H1197     1.0  0.96226  0.37572  0.21866  1.0000
  H   H1198     1.0  0.98824  0.34736  0.08173  1.0000
  C   C759      1.0  0.79648  0.14464  0.20024  1.0000
  H   H1199     1.0  0.79706  0.17874  0.19278  1.0000
  N   N74       1.0  0.80611  0.13319  0.21511  1.0000
  H   H1200     1.0  0.82712  0.12468  0.21589  1.0000
  C   C760      1.0  0.77992  0.47669  0.12765  1.0000
  H   H1201     1.0  0.79369  0.16603  0.23734  1.0000
  H   H1202     1.0  0.81084  0.15796  0.24128  1.0000
  C   C761      1.0  0.82100  0.47175  0.18754  1.0000
  C   C762      1.0  0.80379  0.16528  0.22976  1.0000
  H   H1203     1.0  0.93857  0.40321  0.26972  1.0000
  H   H1204     1.0  0.82115  0.16837  0.19819  1.0000
  H   H1205     1.0  0.98603  0.24282  0.15312  1.0000
  C   C763      1.0  0.96538  0.38764  0.23190  1.0000
  N   N75       1.0  0.92290  0.28082  0.18680  1.0000
  C   C764      1.0  0.91977  0.32286  0.17430  1.0000
  C   C765      1.0  0.93721  0.27333  0.18845  1.0000
  C   C766      1.0  0.91870  0.24423  0.17777  1.0000
  C   C767      1.0  0.91590  0.28299  0.20667  1.0000
  H   H1206     1.0  0.90902  0.32987  0.17285  1.0000
  H   H1207     1.0  0.92493  0.32276  0.15921  1.0000
  H   H1208     1.0  0.92270  0.35109  0.18085  1.0000
  H   H1209     1.0  0.94084  0.30170  0.19409  1.0000
  H   H1210     1.0  0.93988  0.24309  0.19859  1.0000
  H   H1211     1.0  0.94275  0.26910  0.17387  1.0000
  H   H1212     1.0  0.92094  0.21193  0.18677  1.0000
  H   H1213     1.0  0.92375  0.24188  0.16269  1.0000
  H   H1214     1.0  0.90793  0.24901  0.17636  1.0000
  H   H1215     1.0  0.91798  0.25194  0.21661  1.0000
  H   H1216     1.0  0.90506  0.28898  0.20594  1.0000
  H   H1217     1.0  0.91873  0.31065  0.21382  1.0000
  H   H1218     1.0  0.94566  0.36829  0.30221  1.0000
  C   C768      1.0  0.94456  0.42005  0.27773  1.0000
  H   H1219     1.0  0.79074  0.41609  0.13965  1.0000
  H   H1220     1.0  0.97349  0.44870  0.25160  1.0000
  C   C769      1.0  0.79824  0.48183  0.18054  1.0000
  C   C770      1.0  0.81956  0.13455  0.20527  1.0000
  C   C771      1.0  0.98792  0.38115  0.21809  1.0000
  C   C772      1.0  0.95563  0.48343  0.28084  1.0000
  H   H1221     1.0  0.94710  0.02030  0.09695  1.0000
  N   N76       1.0  0.97724  0.41102  0.22695  1.0000
  H   H1222     1.0  0.75561  0.45990  0.17431  1.0000
  H   H1223     1.0  0.82581  0.06247  0.00390  1.0000
  H   H1224     1.0  0.98508  0.37032  0.20434  1.0000
  C   C773      1.0  0.95626  0.99913  0.09648  1.0000
  H   H1225     1.0  0.99034  0.44184  0.24201  1.0000
  H   H1226     1.0  0.91424  0.99689  0.09316  1.0000
  H   H1227     1.0  0.97135  0.44111  0.19874  1.0000
  C   C774      1.0  0.98562  0.31596  0.07747  1.0000
  H   H1228     1.0  0.98110  0.32370  0.06323  1.0000
  H   H1229     1.0  0.83145  0.47204  0.18143  1.0000
  H   H1230     1.0  0.98308  0.46903  0.20862  1.0000
  N   N77       1.0  0.81196  0.48337  0.17183  1.0000
  Fe  Fe152     1.0  0.98889  0.16801  0.12364  1.0000
  H   H1231     1.0  0.82004  0.43789  0.19512  1.0000
  C   C775      1.0  0.98125  0.42498  0.24508  1.0000
  H   H1232     1.0  0.98903  0.24755  0.05584  1.0000
  S   S307      1.0  0.94313  0.48912  0.24672  1.0000
  S   S308      1.0  0.94561  0.48877  0.19081  1.0000
  C   C776      1.0  0.99136  0.48465  0.65220  1.0000
  Fe  Fe153     1.0  0.93455  0.26972  0.57141  1.0000
  S   S309      1.0  0.93128  0.32026  0.59285  1.0000
  S   S310      1.0  0.93106  0.19681  0.58090  1.0000
  Fe  Fe154     1.0  0.93786  0.34184  0.53522  1.0000
  S   S311      1.0  0.93372  0.39611  0.55509  1.0000
  S   S312      1.0  0.94263  0.37352  0.50336  1.0000
  Fe  Fe155     1.0  0.94753  0.35405  0.57462  1.0000
  S   S313      1.0  0.96591  0.37873  0.58352  1.0000
  Fe  Fe156     1.0  0.91771  0.35786  0.57119  1.0000
  S   S314      1.0  0.89772  0.38738  0.58426  1.0000
  S   S315      1.0  0.95205  0.30020  0.55456  1.0000
  S   S316      1.0  0.92061  0.30699  0.55000  1.0000
  Fe  Fe157     1.0  0.98048  0.36881  0.39470  1.0000
  S   S317      1.0  0.97123  0.43313  0.38035  1.0000
  S   S318      1.0  0.97260  0.32297  0.42119  1.0000
  H   H1233     1.0  0.78137  0.24872  0.36809  1.0000
  H   H1234     1.0  0.78519  0.01530  0.64491  1.0000
  H   H1235     1.0  0.94712  0.45411  0.52166  1.0000
  Fe  Fe158     1.0  0.97617  0.40543  0.35113  1.0000
  H   H1236     1.0  0.98886  0.41745  0.58983  1.0000
  S   S319      1.0  0.98423  0.33936  0.36593  1.0000
  Fe  Fe159     1.0  0.82224  0.43729  0.55697  1.0000
  S   S320      1.0  0.84182  0.39594  0.55033  1.0000
  Fe  Fe160     1.0  0.79541  0.42364  0.57807  1.0000
  S   S321      1.0  0.78543  0.37372  0.60041  1.0000
  S   S322      1.0  0.80504  0.40603  0.54888  1.0000
  S   S323      1.0  0.81301  0.45121  0.58708  1.0000
  Fe  Fe161     1.0  0.77109  0.39580  0.40221  1.0000
  C   C777      1.0  0.77539  0.22211  0.37530  1.0000
  S   S324      1.0  0.78422  0.40338  0.42699  1.0000
  Fe  Fe162     1.0  0.77117  0.36123  0.36029  1.0000
  H   H1237     1.0  0.75216  0.19113  0.38819  1.0000
  Fe  Fe163     1.0  0.75327  0.44335  0.37106  1.0000
  S   S325      1.0  0.74939  0.38110  0.35931  1.0000
  C   C778      1.0  0.76036  0.26885  0.58645  1.0000
  S   S326      1.0  0.77518  0.42497  0.37041  1.0000
  S   S327      1.0  0.76907  0.32972  0.39216  1.0000
  C   C779      1.0  0.95625  0.46578  0.51357  1.0000
  C   C780      1.0  0.77534  0.33497  0.59463  1.0000
  C   C781      1.0  0.77346  0.33042  0.57512  1.0000
  C   C782      1.0  0.76210  0.27373  0.60598  1.0000
  C   C783      1.0  0.76962  0.30650  0.61002  1.0000
  H   H1238     1.0  0.77777  0.35213  0.56313  1.0000
  H   H1239     1.0  0.75217  0.27023  0.37483  1.0000
  H   H1240     1.0  0.77104  0.30973  0.62516  1.0000
  C   C784      1.0  0.78396  0.42589  0.45017  1.0000
  H   H1241     1.0  0.95056  0.01949  0.59451  1.0000
  C   C785      1.0  0.76609  0.29734  0.57107  1.0000
  C   C786      1.0  0.95673  0.02002  0.60685  1.0000
  C   C787      1.0  0.79541  0.43329  0.47934  1.0000
  C   C788      1.0  0.79489  0.41542  0.46136  1.0000
  H   H1242     1.0  0.87231  0.43025  0.59608  1.0000
  H   H1243     1.0  0.87979  0.27295  0.62975  1.0000
  H   H1244     1.0  0.80307  0.39321  0.45608  1.0000
  C   C789      1.0  0.76582  0.01370  0.63593  1.0000
  H   H1245     1.0  0.76478  0.04820  0.63004  1.0000
  C   C790      1.0  0.88236  0.39066  0.57417  1.0000
  C   C791      1.0  0.87126  0.41386  0.58337  1.0000
  C   C792      1.0  0.85882  0.41652  0.57612  1.0000
  C   C793      1.0  0.85731  0.39545  0.55970  1.0000
  C   C794      1.0  0.86838  0.37174  0.55069  1.0000
  C   C795      1.0  0.88084  0.36961  0.55776  1.0000
  H   H1246     1.0  0.95681  0.45851  0.55316  1.0000
  H   H1247     1.0  0.95242  0.04800  0.61515  1.0000
  H   H1248     1.0  0.86734  0.35540  0.53795  1.0000
  H   H1249     1.0  0.88926  0.35185  0.55043  1.0000
  C   C796      1.0  0.96491  0.33782  0.44432  1.0000
  C   C797      1.0  0.96070  0.38168  0.44726  1.0000
  C   C798      1.0  0.95396  0.39175  0.46542  1.0000
  C   C799      1.0  0.95155  0.35835  0.48106  1.0000
  C   C800      1.0  0.95599  0.31454  0.47825  1.0000
  C   C801      1.0  0.96251  0.30438  0.45993  1.0000
  H   H1250     1.0  0.96248  0.40787  0.43548  1.0000
  H   H1251     1.0  0.95051  0.42573  0.46732  1.0000
  H   H1252     1.0  0.95417  0.28843  0.49005  1.0000
  H   H1253     1.0  0.96566  0.27029  0.45785  1.0000
  H   H1254     1.0  0.90288  0.18541  0.60781  1.0000
  C   C802      1.0  0.98046  0.43997  0.59411  1.0000
  C   C803      1.0  0.96773  0.42902  0.59269  1.0000
  H   H1255     1.0  0.98844  0.45726  0.52185  1.0000
  Fe  Fe164     1.0  0.79722  0.47381  0.53615  1.0000
  C   C804      1.0  0.93368  0.10222  0.63921  1.0000
  C   C805      1.0  0.93884  0.14324  0.63709  1.0000
  C   C806      1.0  0.93791  0.17292  0.61961  1.0000
  C   C807      1.0  0.93200  0.16168  0.60375  1.0000
  C   C808      1.0  0.92674  0.12079  0.60590  1.0000
  C   C809      1.0  0.92742  0.09151  0.62355  1.0000
  H   H1256     1.0  0.93374  0.39977  0.35863  1.0000
  H   H1257     1.0  0.94205  0.20405  0.61827  1.0000
  H   H1258     1.0  0.92212  0.11166  0.59379  1.0000
  H   H1259     1.0  0.92328  0.06041  0.62490  1.0000
  H   H1260     1.0  0.91633  0.37011  0.39615  1.0000
  S   S328      1.0  0.93600  0.06513  0.66123  1.0000
  H   H1261     1.0  0.76494  0.46303  0.44931  1.0000
  C   C810      1.0  0.77352  0.45488  0.45739  1.0000
  H   H1262     1.0  0.95753  0.45187  0.49918  1.0000
  C   C811      1.0  0.97961  0.46745  0.51363  1.0000
  H   H1263     1.0  0.76293  0.14985  0.37638  1.0000
  H   H1264     1.0  0.96007  0.00739  0.64577  1.0000
  C   C812      1.0  0.93972  0.38307  0.40712  1.0000
  N   N78       1.0  0.81979  0.28918  0.58206  1.0000
  C   C813      1.0  0.82790  0.29532  0.56299  1.0000
  C   C814      1.0  0.81972  0.32820  0.59264  1.0000
  C   C815      1.0  0.82528  0.24942  0.59421  1.0000
  C   C816      1.0  0.80620  0.28391  0.57842  1.0000
  H   H1265     1.0  0.82395  0.32493  0.55341  1.0000
  H   H1266     1.0  0.82830  0.26644  0.55461  1.0000
  H   H1267     1.0  0.83815  0.30058  0.56512  1.0000
  H   H1268     1.0  0.81361  0.32506  0.60706  1.0000
  H   H1269     1.0  0.82981  0.33400  0.59534  1.0000
  H   H1270     1.0  0.81549  0.35848  0.58394  1.0000
  H   H1271     1.0  0.82543  0.21930  0.58669  1.0000
  H   H1272     1.0  0.81935  0.24404  0.60870  1.0000
  H   H1273     1.0  0.83552  0.25243  0.59724  1.0000
  H   H1274     1.0  0.79977  0.27958  0.59250  1.0000
  H   H1275     1.0  0.80578  0.25491  0.57040  1.0000
  H   H1276     1.0  0.80173  0.31356  0.56942  1.0000
  N   N79       1.0  0.89419  0.25267  0.60673  1.0000
  C   C817      1.0  0.89355  0.20495  0.61272  1.0000
  C   C818      1.0  0.88176  0.27793  0.61339  1.0000
  C   C819      1.0  0.89643  0.26085  0.58499  1.0000
  N   N80       1.0  0.96772  0.45171  0.52500  1.0000
  H   H1277     1.0  0.90564  0.24191  0.57935  1.0000
  H   H1278     1.0  0.88826  0.25128  0.57763  1.0000
  H   H1279     1.0  0.80394  0.42476  0.48753  1.0000
  H   H1280     1.0  0.88207  0.31409  0.60891  1.0000
  C   C820      1.0  0.95696  0.45855  0.59815  1.0000
  H   H1281     1.0  0.87329  0.26807  0.60683  1.0000
  C   C821      1.0  0.75619  0.25872  0.36045  1.0000
  H   H1282     1.0  0.98642  0.46819  0.64192  1.0000
  H   H1283     1.0  0.92728  0.43315  0.37795  1.0000
  H   H1284     1.0  0.76164  0.28537  0.35217  1.0000
  H   H1285     1.0  0.99176  0.26329  0.39855  1.0000
  H   H1286     1.0  0.88547  0.19266  0.60614  1.0000
  C   C822      1.0  0.96554  0.47055  0.54400  1.0000
  H   H1287     1.0  0.94371  0.15202  0.64904  1.0000
  H   H1288     1.0  0.75778  0.25204  0.61795  1.0000
  H   H1289     1.0  0.92574  0.31779  0.40192  1.0000
  H   H1290     1.0  0.74874  0.17668  0.36491  1.0000
  H   H1291     1.0  0.97795  0.39109  0.53762  1.0000
  H   H1292     1.0  0.94109  0.35408  0.41856  1.0000
  H   H1293     1.0  0.97101  0.38747  0.51479  1.0000
  C   C823      1.0  0.92489  0.34763  0.39085  1.0000
  C   C824      1.0  0.94813  0.33863  0.38108  1.0000
  H   H1294     1.0  0.95739  0.35441  0.37884  1.0000
  C   C825      1.0  0.77737  0.99500  0.64436  1.0000
  C   C826      1.0  0.93555  0.40891  0.37326  1.0000
  Fe  Fe165     1.0  0.74757  0.35271  0.39142  1.0000
  C   C827      1.0  0.75682  0.18200  0.37363  1.0000
  C   C828      1.0  0.78509  0.46291  0.48638  1.0000
  H   H1295     1.0  0.90568  0.30329  0.61188  1.0000
  H   H1296     1.0  0.89732  0.29634  0.58001  1.0000
  H   H1297     1.0  0.94887  0.39959  0.40562  1.0000
  H   H1298     1.0  0.85042  0.43479  0.58326  1.0000
  S   S329      1.0  0.75151  0.22709  0.58029  1.0000
  H   H1299     1.0  0.94712  0.45068  0.59710  1.0000
  H   H1300     1.0  0.94660  0.32804  0.36662  1.0000
  N   N81       1.0  0.76471  0.21668  0.36331  1.0000
  H   H1301     1.0  0.96071  0.39007  0.53733  1.0000
  H   H1302     1.0  0.92263  0.33698  0.37676  1.0000
  H   H1303     1.0  0.93159  0.40644  0.41296  1.0000
  C   C829      1.0  0.77417  0.47355  0.47514  1.0000
  S   S330      1.0  0.78392  0.32155  0.33712  1.0000
  H   H1304     1.0  0.76482  0.29385  0.55591  1.0000
  H   H1305     1.0  0.99228  0.48804  0.60173  1.0000
  C   C830      1.0  0.90511  0.26716  0.61574  1.0000
  H   H1306     1.0  0.89198  0.19740  0.62906  1.0000
  H   H1307     1.0  0.94458  0.42621  0.37069  1.0000
  Fe  Fe166     1.0  0.99181  0.45396  0.37612  1.0000
  N   N82       1.0  0.93706  0.36961  0.38809  1.0000
  H   H1308     1.0  0.91471  0.24960  0.61062  1.0000
  S   S331      1.0  0.74946  0.41694  0.40308  1.0000
  S   S332      1.0  0.96052  0.39589  0.33083  1.0000
  H   H1309     1.0  0.94973  0.30871  0.39193  1.0000
  H   H1310     1.0  0.96665  0.02777  0.60031  1.0000
  C   C831      1.0  0.77040  0.20417  0.34384  1.0000
  H   H1311     1.0  0.90394  0.26054  0.63213  1.0000
  H   H1312     1.0  0.98150  0.45387  0.49917  1.0000
  C   C832      1.0  0.96949  0.40299  0.52879  1.0000
  H   H1313     1.0  0.93883  0.99409  0.63618  1.0000
  H   H1314     1.0  0.78737  0.47896  0.39529  1.0000
  H   H1315     1.0  0.74786  0.25558  0.35183  1.0000
  H   H1316     1.0  0.77145  0.23118  0.39017  1.0000
  H   H1317     1.0  0.97409  0.46099  0.55288  1.0000
  H   H1318     1.0  0.76261  0.20017  0.33433  1.0000
  C   C833      1.0  0.98243  0.47999  0.60084  1.0000
  H   H1319     1.0  0.78217  0.19128  0.37747  1.0000
  S   S333      1.0  0.78558  0.48948  0.50832  1.0000
  H   H1320     1.0  0.77635  0.23000  0.33575  1.0000
  H   H1321     1.0  0.77695  0.17267  0.34534  1.0000
  S   S334      1.0  0.78639  0.49009  0.56538  1.0000
  H   H1322     1.0  0.74423  0.26465  0.53738  1.0000
  H   H1323     1.0  0.75495  0.05310  0.68675  1.0000
  C   C834      1.0  0.83931  0.02689  0.97320  1.0000
  H   H1324     1.0  0.84557  0.02895  0.98531  1.0000
  H   H1325     1.0  0.98910  0.42255  0.68316  1.0000
  C   C835      1.0  0.74743  0.04816  0.67696  1.0000
  H   H1326     1.0  0.97452  0.42889  0.67036  1.0000
  H   H1327     1.0  0.98893  0.02680  0.92795  1.0000
  H   H1328     1.0  0.97386  0.44678  0.69444  1.0000
  Fe  Fe167     1.0  0.92995  0.99756  0.67576  1.0000
  H   H1329     1.0  0.84387  0.99894  0.96507  1.0000
  H   H1330     1.0  0.81953  0.08982  0.98150  1.0000
  H   H1331     1.0  0.83972  0.05783  0.96286  1.0000
  N   N83       1.0  0.98314  0.48900  0.67098  1.0000
  C   C836      1.0  0.98001  0.44483  0.68016  1.0000
  N   N84       1.0  0.82568  0.02044  0.98114  1.0000
  H   H1332     1.0  0.74916  0.01319  0.67375  1.0000
  H   H1333     1.0  0.80727  0.01385  0.97032  1.0000
  H   H1334     1.0  0.97689  0.01797  0.94859  1.0000
  C   C837      1.0  0.81772  0.01683  0.96480  1.0000
  H   H1335     1.0  0.75770  0.01052  0.79339  1.0000
  H   H1336     1.0  0.75409  0.00968  0.83037  1.0000
  H   H1337     1.0  0.76954  0.00199  0.97733  1.0000
  H   H1338     1.0  0.81784  0.04643  0.95361  1.0000
  C   C838      1.0  0.98706  0.00714  0.94261  1.0000
  C   C839      1.0  0.81996  0.05842  0.99160  1.0000
  H   H1339     1.0  0.99397  0.01600  0.95252  1.0000
  H   H1340     1.0  0.74930  0.06927  0.66272  1.0000
  Fe  Fe168     1.0  0.94074  0.87578  0.07032  1.0000
  S   S335      1.0  0.95625  0.82245  0.06131  1.0000
  S   S336      1.0  0.94197  0.93864  0.08442  1.0000
  Fe  Fe169     1.0  0.91883  0.83167  0.05631  1.0000
  S   S337      1.0  0.93296  0.77588  0.04565  1.0000
  S   S338      1.0  0.89675  0.82607  0.06012  1.0000
  Fe  Fe170     1.0  0.94191  0.77379  0.07437  1.0000
  S   S339      1.0  0.94817  0.70549  0.09063  1.0000
  Fe  Fe171     1.0  0.94622  0.82812  0.03311  1.0000
  H   H1341     1.0  0.98906  0.92344  0.09531  1.0000
  S   S340      1.0  0.92722  0.82682  0.08558  1.0000
  S   S341      1.0  0.93134  0.88421  0.04155  1.0000
  H   H1342     1.0  0.75823  0.50956  0.07819  1.0000
  S   S342      1.0  0.92072  0.57830  0.16055  1.0000
  H   H1343     1.0  0.77248  0.89291  0.08298  1.0000
  H   H1344     1.0  0.77188  0.89798  0.04396  1.0000
  Fe  Fe172     1.0  0.74842  0.60422  0.11316  1.0000
  Fe  Fe173     1.0  0.80372  0.91771  0.07260  1.0000
  S   S343      1.0  0.79909  0.84980  0.08732  1.0000
  S   S344      1.0  0.81349  0.91904  0.04157  1.0000
  S   S345      1.0  0.81825  0.95756  0.08309  1.0000
  N   N85       1.0  0.77707  0.84448  0.02619  1.0000
  H   H1345     1.0  0.95829  0.51598  0.27509  1.0000
  C   C840      1.0  0.78349  0.82975  0.08977  1.0000
  C   C841      1.0  0.77200  0.85776  0.08652  1.0000
  C   C842      1.0  0.77053  0.76670  0.09608  1.0000
  C   C843      1.0  0.78266  0.78425  0.09476  1.0000
  H   H1346     1.0  0.77007  0.73153  0.09966  1.0000
  H   H1347     1.0  0.79149  0.76238  0.09741  1.0000
  H   H1348     1.0  0.90287  0.96965  0.05663  1.0000
  Fe  Fe174     1.0  0.92639  0.51068  0.17804  1.0000
  C   C844      1.0  0.94091  0.67166  0.11106  1.0000
  C   C845      1.0  0.92973  0.68690  0.12268  1.0000
  C   C846      1.0  0.92378  0.65798  0.13780  1.0000
  C   C847      1.0  0.92912  0.61372  0.14194  1.0000
  C   C848      1.0  0.94053  0.59881  0.13067  1.0000
  C   C849      1.0  0.94632  0.62755  0.11530  1.0000
  H   H1349     1.0  0.92569  0.72102  0.12004  1.0000
  H   H1350     1.0  0.91505  0.67006  0.14654  1.0000
  H   H1351     1.0  0.94476  0.56496  0.13358  1.0000
  H   H1352     1.0  0.95502  0.61537  0.10651  1.0000
  C   C850      1.0  0.88343  0.86608  0.05405  1.0000
  C   C851      1.0  0.87072  0.85879  0.06251  1.0000
  C   C852      1.0  0.85982  0.88958  0.05821  1.0000
  C   C853      1.0  0.86151  0.92793  0.04527  1.0000
  C   C854      1.0  0.87424  0.93528  0.03683  1.0000
  C   C855      1.0  0.88514  0.90454  0.04115  1.0000
  H   H1353     1.0  0.86926  0.82913  0.07246  1.0000
  H   H1354     1.0  0.85009  0.88345  0.06480  1.0000
  C   C856      1.0  0.75908  0.79463  0.09253  1.0000
  H   H1355     1.0  0.89480  0.91020  0.03419  1.0000
  C   C857      1.0  0.97993  0.94481  0.09562  1.0000
  C   C858      1.0  0.96860  0.92976  0.09000  1.0000
  C   C859      1.0  0.95667  0.95676  0.09051  1.0000
  C   C860      1.0  0.78910  0.82142  0.01692  1.0000
  H   H1356     1.0  0.96908  0.89709  0.08547  1.0000
  H   H1357     1.0  0.82392  0.53055  0.15529  1.0000
  S   S346      1.0  0.78805  0.98993  0.00688  1.0000
  C   C861      1.0  0.90533  0.91788  0.10315  1.0000
  S   S347      1.0  0.78906  0.97645  0.06572  1.0000
  N   N86       1.0  0.90480  0.68952  0.07784  1.0000
  C   C862      1.0  0.90451  0.72473  0.09074  1.0000
  C   C863      1.0  0.89496  0.65922  0.08613  1.0000
  C   C864      1.0  0.91800  0.66463  0.07669  1.0000
  C   C865      1.0  0.90172  0.70957  0.05786  1.0000
  H   H1358     1.0  0.90593  0.71074  0.10623  1.0000
  H   H1359     1.0  0.89500  0.74612  0.09090  1.0000
  H   H1360     1.0  0.91238  0.74656  0.08562  1.0000
  H   H1361     1.0  0.89487  0.63232  0.07673  1.0000
  H   H1362     1.0  0.89710  0.64337  0.10118  1.0000
  H   H1363     1.0  0.88491  0.67706  0.08740  1.0000
  H   H1364     1.0  0.91872  0.63847  0.06670  1.0000
  H   H1365     1.0  0.92052  0.64826  0.09146  1.0000
  H   H1366     1.0  0.92576  0.68666  0.07106  1.0000
  H   H1367     1.0  0.89186  0.72893  0.05820  1.0000
  H   H1368     1.0  0.90191  0.68416  0.04762  1.0000
  H   H1369     1.0  0.90083  0.92308  0.11826  1.0000
  H   H1370     1.0  0.76541  0.83839  0.00260  1.0000
  H   H1371     1.0  0.90889  0.73297  0.05132  1.0000
  H   H1372     1.0  0.88079  0.95986  0.10261  1.0000
  Fe  Fe175     1.0  0.82667  0.96400  0.05128  1.0000
  S   S348      1.0  0.84809  0.96722  0.03894  1.0000
  C   C866      1.0  0.78067  0.87978  0.03669  1.0000
  C   C867      1.0  0.76838  0.86407  0.01079  1.0000
  H   H1373     1.0  0.83163  0.98122  0.00761  1.0000
  H   H1374     1.0  0.87564  0.96471  0.02669  1.0000
  C   C868      1.0  0.75985  0.84025  0.08794  1.0000
  H   H1375     1.0  0.90560  0.91178  0.06507  1.0000
  H   H1376     1.0  0.78588  0.90434  0.02642  1.0000
  C   C869      1.0  0.97953  0.98717  0.10157  1.0000
  H   H1377     1.0  0.79589  0.80657  0.02819  1.0000
  S   S349      1.0  0.96060  0.82650  0.00507  1.0000
  S   S350      1.0  0.91478  0.49658  0.20776  1.0000
  C   C870      1.0  0.77015  0.81267  0.04039  1.0000
  H   H1378     1.0  0.74490  0.54902  0.08495  1.0000
  C   C871      1.0  0.81368  0.52834  0.16208  1.0000
  S   S351      1.0  0.76613  0.55260  0.11186  1.0000
  H   H1379     1.0  0.81566  0.97382  0.00148  1.0000
  Fe  Fe176     1.0  0.79950  0.97940  0.03486  1.0000
  H   H1380     1.0  0.81151  0.55319  0.17277  1.0000
  H   H1381     1.0  0.76740  0.78520  0.03308  1.0000
  H   H1382     1.0  0.90311  0.88492  0.10007  1.0000
  H   H1383     1.0  0.75103  0.86215  0.08527  1.0000
  N   N87       1.0  0.90040  0.95327  0.08819  1.0000
  S   S352      1.0  0.74525  0.64473  0.08379  1.0000
  H   H1384     1.0  0.76096  0.82884  0.04756  1.0000
  H   H1385     1.0  0.75144  0.52453  0.14920  1.0000
  C   C872      1.0  0.76881  0.50743  0.13023  1.0000
  H   H1386     1.0  0.79575  0.50413  0.19226  1.0000
  H   H1387     1.0  0.77637  0.79775  0.05238  1.0000
  H   H1388     1.0  0.78732  0.86627  0.04832  1.0000
  H   H1389     1.0  0.75929  0.88227  0.01728  1.0000
  S   S353      1.0  0.74536  0.66283  0.13055  1.0000
  H   H1390     1.0  0.80700  0.53811  0.15013  1.0000
  H   H1391     1.0  0.78679  0.79447  0.00887  1.0000
  H   H1392     1.0  0.79454  0.84451  0.00610  1.0000
  C   C873      1.0  0.74756  0.51940  0.07702  1.0000
  H   H1393     1.0  0.77332  0.88801  0.99975  1.0000
  H   H1394     1.0  0.88350  0.92100  0.08477  1.0000
  H   H1395     1.0  0.91619  0.91637  0.10333  1.0000
  C   C874      1.0  0.90688  0.94530  0.06853  1.0000
  C   C875      1.0  0.88605  0.95337  0.08808  1.0000
  H   H1396     1.0  0.74607  0.52971  0.06121  1.0000
  C   C876      1.0  0.76003  0.50113  0.14705  1.0000
  H   H1397     1.0  0.81908  0.49489  0.19898  1.0000
  H   H1398     1.0  0.88201  0.97896  0.07663  1.0000
  H   H1399     1.0  0.79116  0.49188  0.16918  1.0000
  H   H1400     1.0  0.91762  0.94767  0.06773  1.0000
  C   C877      1.0  0.82574  0.97955  0.99507  1.0000
  H   H1401     1.0  0.95052  0.52061  0.60960  1.0000
  C   C878      1.0  0.94393  0.96790  0.62745  1.0000
  S   S354      1.0  0.97349  0.55876  0.61638  1.0000
  Fe  Fe177     1.0  0.99216  0.59082  0.61845  1.0000
  H   H1402     1.0  0.84731  0.62275  0.64636  1.0000
  C   C879      1.0  0.95500  0.81802  0.64833  1.0000
  C   C880      1.0  0.77896  0.95014  0.65194  1.0000
  S   S355      1.0  0.99320  0.61906  0.64701  1.0000
  N   N88       1.0  0.77597  0.54230  0.39588  1.0000
  H   H1403     1.0  0.75486  0.54563  0.39873  1.0000
  Fe  Fe178     1.0  0.80470  0.51716  0.57236  1.0000
  S   S356      1.0  0.80397  0.58717  0.58292  1.0000
  H   H1404     1.0  0.77660  0.52174  0.36692  1.0000
  S   S357      1.0  0.81511  0.50463  0.54219  1.0000
  C   C881      1.0  0.80386  0.66394  0.63804  1.0000
  C   C882      1.0  0.80435  0.68564  0.61871  1.0000
  C   C883      1.0  0.80442  0.66169  0.60226  1.0000
  C   C884      1.0  0.80410  0.61540  0.60459  1.0000
  C   C885      1.0  0.80375  0.59365  0.62390  1.0000
  C   C886      1.0  0.80362  0.61764  0.64037  1.0000
  H   H1405     1.0  0.80457  0.72105  0.61641  1.0000
  H   H1406     1.0  0.80472  0.67931  0.58755  1.0000
  H   H1407     1.0  0.80348  0.55826  0.62622  1.0000
  H   H1408     1.0  0.74946  0.92242  0.64218  1.0000
  H   H1409     1.0  0.80325  0.60005  0.65510  1.0000
  C   C887      1.0  0.76363  0.52294  0.40296  1.0000
  C   C888      1.0  0.95664  0.77636  0.64150  1.0000
  H   H1410     1.0  0.95457  0.50234  0.51046  1.0000
  H   H1411     1.0  0.86326  0.70110  0.63209  1.0000
  H   H1412     1.0  0.97407  0.94747  0.60307  1.0000
  C   C889      1.0  0.96607  0.83775  0.65128  1.0000
  H   H1413     1.0  0.86485  0.66486  0.65469  1.0000
  H   H1414     1.0  0.94404  0.93599  0.63721  1.0000
  H   H1415     1.0  0.78589  0.56705  0.36815  1.0000
  C   C890      1.0  0.96925  0.75416  0.63789  1.0000
  C   C891      1.0  0.98033  0.77395  0.64073  1.0000
  H   H1416     1.0  0.76319  0.49213  0.39635  1.0000
  C   C892      1.0  0.76884  0.92405  0.65111  1.0000
  H   H1417     1.0  0.97040  0.72197  0.63271  1.0000
  H   H1418     1.0  0.96488  0.86992  0.65640  1.0000
  H   H1419     1.0  0.97864  0.50412  0.51058  1.0000
  H   H1420     1.0  0.84150  0.73979  0.62466  1.0000
  H   H1421     1.0  0.79593  0.60880  0.51991  1.0000
  H   H1422     1.0  0.84021  0.76224  0.64780  1.0000
  H   H1423     1.0  0.95840  0.93851  0.59584  1.0000
  H   H1424     1.0  0.76773  0.60794  0.40083  1.0000
  H   H1425     1.0  0.83157  0.65120  0.64131  1.0000
  H   H1426     1.0  0.96396  0.50724  0.54184  1.0000
  S   S358      1.0  0.80386  0.69240  0.65966  1.0000
  C   C893      1.0  0.77675  0.55216  0.37413  1.0000
  C   C894      1.0  0.97869  0.81593  0.64733  1.0000
  H   H1427     1.0  0.78691  0.50206  0.41798  1.0000
  H   H1428     1.0  0.77556  0.57694  0.42126  1.0000
  H   H1429     1.0  0.86166  0.72352  0.65530  1.0000
  H   H1430     1.0  0.76358  0.62723  0.56373  1.0000
  S   S359      1.0  0.93899  0.84470  0.65253  1.0000
  N   N89       1.0  0.95736  0.97774  0.61990  1.0000
  H   H1431     1.0  0.77682  0.58474  0.56823  1.0000
  C   C895      1.0  0.84230  0.65459  0.63988  1.0000
  S   S360      1.0  0.81538  0.81490  0.65860  1.0000
  C   C896      1.0  0.77617  0.58344  0.40484  1.0000
  C   C897      1.0  0.83826  0.73333  0.64066  1.0000
  C   C898      1.0  0.97165  0.50922  0.60658  1.0000
  C   C899      1.0  0.75725  0.94281  0.64273  1.0000
  H   H1432     1.0  0.82744  0.73203  0.64199  1.0000
  N   N90       1.0  0.77825  0.62069  0.53913  1.0000
  C   C900      1.0  0.79255  0.60878  0.53588  1.0000
  C   C901      1.0  0.77431  0.61846  0.56059  1.0000
  C   C902      1.0  0.77132  0.58949  0.53037  1.0000
  C   C903      1.0  0.77487  0.66603  0.52968  1.0000
  H   H1433     1.0  0.76049  0.59742  0.53240  1.0000
  H   H1434     1.0  0.79538  0.57526  0.54326  1.0000
  H   H1435     1.0  0.79816  0.63164  0.54219  1.0000
  H   H1436     1.0  0.77954  0.64108  0.56772  1.0000
  H   H1437     1.0  0.77427  0.58953  0.51426  1.0000
  H   H1438     1.0  0.93784  0.96537  0.61526  1.0000
  H   H1439     1.0  0.77363  0.55493  0.53716  1.0000
  H   H1440     1.0  0.76413  0.67615  0.53185  1.0000
  H   H1441     1.0  0.77778  0.66882  0.51350  1.0000
  H   H1442     1.0  0.77998  0.69026  0.53599  1.0000
  H   H1443     1.0  0.76820  0.57520  0.36926  1.0000
  C   C904      1.0  0.85936  0.69542  0.64787  1.0000
  H   H1444     1.0  0.79677  0.52387  0.39655  1.0000
  H   H1445     1.0  0.98726  0.83140  0.64948  1.0000
  H   H1446     1.0  0.96419  0.90925  0.61811  1.0000
  C   C905      1.0  0.78726  0.51060  0.40165  1.0000
  C   C906      1.0  0.96381  0.94175  0.60872  1.0000
  H   H1447     1.0  0.94811  0.76105  0.63905  1.0000
  H   H1448     1.0  0.78535  0.59898  0.39982  1.0000
  N   N91       1.0  0.84508  0.69196  0.64983  1.0000
  H   H1449     1.0  0.84555  0.65911  0.62381  1.0000
  C   C907      1.0  0.75571  0.98765  0.63513  1.0000
  S   S361      1.0  0.74780  0.51556  0.35977  1.0000
  H   H1450     1.0  0.76269  0.51452  0.41928  1.0000
  H   H1451     1.0  0.96588  0.94978  0.64661  1.0000
  H   H1452     1.0  0.97286  0.55115  0.66027  1.0000
  H   H1453     1.0  0.76996  0.88950  0.65691  1.0000
  C   C908      1.0  0.95893  0.49822  0.60521  1.0000
  H   H1454     1.0  0.96540  0.50389  0.65628  1.0000
  C   C909      1.0  0.96493  0.98134  0.63667  1.0000
  H   H1455     1.0  0.99328  0.51756  0.64446  1.0000
  H   H1456     1.0  0.76607  0.49620  0.48030  1.0000
  H   H1457     1.0  0.97501  0.98998  0.63154  1.0000
  Fe  Fe179     1.0  0.93567  0.92968  0.71261  1.0000
  S   S362      1.0  0.94620  0.94296  0.68220  1.0000
  S   S363      1.0  0.94924  0.90395  0.73729  1.0000
  Fe  Fe180     1.0  0.90868  0.93897  0.69527  1.0000
  S   S364      1.0  0.88643  0.93894  0.70278  1.0000
  H   H1458     1.0  0.95398  0.81549  0.69020  1.0000
  H   H1459     1.0  0.82996  0.95006  0.98777  1.0000
  S   S365      1.0  0.92347  0.88111  0.70299  1.0000
  S   S366      1.0  0.75063  0.87751  0.91163  1.0000
  H   H1460     1.0  0.93594  0.97040  0.76239  1.0000
  Fe  Fe181     1.0  0.97548  0.92895  0.84362  1.0000
  S   S367      1.0  0.97943  0.85855  0.85708  1.0000
  Fe  Fe182     1.0  0.99303  0.96217  0.87238  1.0000
  Fe  Fe183     1.0  0.97659  0.88459  0.88688  1.0000
  S   S368      1.0  0.96035  0.86497  0.91087  1.0000
  H   H1461     1.0  0.74707  0.96328  0.84459  1.0000
  S   S369      1.0  0.97161  0.95410  0.87336  1.0000
  S   S370      1.0  0.74937  0.85688  0.86584  1.0000
  Fe  Fe184     1.0  0.82640  0.80898  0.68562  1.0000
  S   S371      1.0  0.81649  0.75030  0.70024  1.0000
  S   S372      1.0  0.84886  0.80124  0.68315  1.0000
  C   C910      1.0  0.97085  0.51734  0.66699  1.0000
  S   S373      1.0  0.78857  0.80226  0.68905  1.0000
  Fe  Fe185     1.0  0.80133  0.79907  0.71440  1.0000
  S   S374      1.0  0.79507  0.78537  0.74800  1.0000
  H   H1462     1.0  0.76287  0.95578  0.83126  1.0000
  S   S375      1.0  0.81210  0.85682  0.70120  1.0000
  Fe  Fe186     1.0  0.77170  0.88991  0.90391  1.0000
  H   H1463     1.0  0.91942  0.86718  0.87581  1.0000
  S   S376      1.0  0.78538  0.89695  0.92811  1.0000
  Fe  Fe187     1.0  0.77046  0.87145  0.85976  1.0000
  Fe  Fe188     1.0  0.93307  0.89845  0.67250  1.0000
  S   S377      1.0  0.78004  0.88099  0.82735  1.0000
  H   H1464     1.0  0.84529  0.65386  0.67843  1.0000
  Fe  Fe189     1.0  0.75509  0.81918  0.89449  1.0000
  H   H1465     1.0  0.97512  0.84788  0.68806  1.0000
  S   S378      1.0  0.76718  0.93337  0.87548  1.0000
  S   S379      1.0  0.77654  0.82918  0.88765  1.0000
  H   H1466     1.0  0.97083  0.73060  0.70606  1.0000
  C   C911      1.0  0.96891  0.78849  0.73267  1.0000
  C   C912      1.0  0.79654  0.92755  0.98020  1.0000
  C   C913      1.0  0.79574  0.90810  0.96275  1.0000
  C   C914      1.0  0.78546  0.92183  0.95050  1.0000
  H   H1467     1.0  0.87696  0.80087  0.67948  1.0000
  H   H1468     1.0  0.95245  0.90517  0.86373  1.0000
  H   H1469     1.0  0.84344  0.88825  0.69759  1.0000
  H   H1470     1.0  0.80320  0.88224  0.95858  1.0000
  C   C915      1.0  0.97510  0.83917  0.70429  1.0000
  H   H1471     1.0  0.93996  0.82883  0.88875  1.0000
  H   H1472     1.0  0.82961  0.68213  0.67303  1.0000
  C   C916      1.0  0.79025  0.81332  0.76961  1.0000
  C   C917      1.0  0.78640  0.78847  0.78762  1.0000
  C   C918      1.0  0.78301  0.80843  0.80527  1.0000
  C   C919      1.0  0.78364  0.85371  0.80536  1.0000
  C   C920      1.0  0.78749  0.87860  0.78735  1.0000
  C   C921      1.0  0.79059  0.85882  0.76962  1.0000
  H   H1473     1.0  0.78606  0.75331  0.78796  1.0000
  H   H1474     1.0  0.78013  0.78854  0.81887  1.0000
  H   H1475     1.0  0.78810  0.91357  0.78709  1.0000
  H   H1476     1.0  0.79328  0.87884  0.75598  1.0000
  C   C922      1.0  0.87619  0.90071  0.69666  1.0000
  C   C923      1.0  0.86245  0.90986  0.69981  1.0000
  C   C924      1.0  0.85396  0.88024  0.69545  1.0000
  C   C925      1.0  0.85911  0.84062  0.68816  1.0000
  C   C926      1.0  0.87283  0.83133  0.68512  1.0000
  C   C927      1.0  0.88132  0.86124  0.68921  1.0000
  C   C928      1.0  0.78716  0.96185  0.98563  1.0000
  H   H1477     1.0  0.95484  0.85724  0.83741  1.0000
  H   H1478     1.0  0.80455  0.91637  0.98923  1.0000
  H   H1479     1.0  0.89184  0.85364  0.68673  1.0000
  H   H1480     1.0  0.85837  0.94038  0.70544  1.0000
  C   C929      1.0  0.95199  0.91900  0.76079  1.0000
  H   H1481     1.0  0.95471  0.82427  0.87273  1.0000
  C   C930      1.0  0.75293  0.97404  0.83062  1.0000
  C   C931      1.0  0.95705  0.93942  0.79855  1.0000
  C   C932      1.0  0.96500  0.90607  0.78953  1.0000
  C   C933      1.0  0.96245  0.89595  0.77083  1.0000
  H   H1482     1.0  0.97313  0.88815  0.79691  1.0000
  H   H1483     1.0  0.96874  0.87024  0.76406  1.0000
  C   C934      1.0  0.96009  0.83760  0.97896  1.0000
  C   C935      1.0  0.94858  0.85370  0.97006  1.0000
  C   C936      1.0  0.94884  0.86202  0.94925  1.0000
  C   C937      1.0  0.96061  0.85499  0.93708  1.0000
  C   C938      1.0  0.97210  0.83885  0.94599  1.0000
  C   C939      1.0  0.97181  0.83014  0.96675  1.0000
  H   H1484     1.0  0.92109  0.83167  0.85655  1.0000
  H   H1485     1.0  0.93985  0.87405  0.94257  1.0000
  H   H1486     1.0  0.98117  0.83205  0.93689  1.0000
  H   H1487     1.0  0.98073  0.81708  0.97344  1.0000
  S   S380      1.0  0.74741  0.75744  0.91173  1.0000
  H   H1488     1.0  0.97502  0.76811  0.68476  1.0000
  H   H1489     1.0  0.94924  0.83399  0.71387  1.0000
  C   C940      1.0  0.94653  0.96226  0.78858  1.0000
  H   H1490     1.0  0.76377  0.55496  0.93466  1.0000
  H   H1491     1.0  0.94181  0.82548  0.83429  1.0000
  C   C941      1.0  0.92395  0.86294  0.86059  1.0000
  S   S381      1.0  0.79368  0.92881  0.66246  1.0000
  C   C942      1.0  0.75744  0.57666  0.94444  1.0000
  C   C943      1.0  0.97538  0.76167  0.70105  1.0000
  H   H1492     1.0  0.93792  0.90937  0.88033  1.0000
  H   H1493     1.0  0.75114  0.96960  0.78178  1.0000
  H   H1494     1.0  0.97918  0.78275  0.73686  1.0000
  H   H1495     1.0  0.98592  0.75559  0.70392  1.0000
  H   H1496     1.0  0.76505  0.95424  0.79586  1.0000
  H   H1497     1.0  0.96381  0.81609  0.74060  1.0000
  C   C944      1.0  0.98623  0.93430  0.96052  1.0000
  H   H1498     1.0  0.84223  0.71253  0.67892  1.0000
  H   H1499     1.0  0.96399  0.75847  0.73838  1.0000
  N   N92       1.0  0.96854  0.79894  0.71107  1.0000
  H   H1500     1.0  0.93772  0.93330  0.85482  1.0000
  H   H1501     1.0  0.76799  0.96679  0.94703  1.0000
  H   H1502     1.0  0.94008  0.88454  0.82821  1.0000
  H   H1503     1.0  0.98799  0.89811  0.95978  1.0000
  C   C945      1.0  0.77686  0.97546  0.97346  1.0000
  S   S382      1.0  0.92018  0.98726  0.70699  1.0000
  H   H1504     1.0  0.99271  0.94227  0.97128  1.0000
  H   H1505     1.0  0.74587  0.50593  0.93806  1.0000
  H   H1506     1.0  0.75985  0.56595  0.95989  1.0000
  Fe  Fe190     1.0  0.80477  0.75779  0.67363  1.0000
  H   H1507     1.0  0.98549  0.83484  0.70792  1.0000
  H   H1508     1.0  0.76020  0.61087  0.94033  1.0000
  N   N93       1.0  0.83399  0.82635  0.75178  1.0000
  C   C946      1.0  0.83385  0.79413  0.73756  1.0000
  C   C947      1.0  0.84761  0.83630  0.75251  1.0000
  C   C948      1.0  0.82868  0.80759  0.77154  1.0000
  C   C949      1.0  0.82576  0.86737  0.74539  1.0000
  H   H1509     1.0  0.82374  0.78530  0.73692  1.0000
  H   H1510     1.0  0.84016  0.76302  0.74161  1.0000
  H   H1511     1.0  0.83748  0.80763  0.72240  1.0000
  H   H1512     1.0  0.84809  0.86099  0.76290  1.0000
  H   H1513     1.0  0.85411  0.80612  0.75734  1.0000
  H   H1514     1.0  0.85191  0.85005  0.73771  1.0000
  H   H1515     1.0  0.82844  0.83118  0.78266  1.0000
  H   H1516     1.0  0.83463  0.77657  0.77687  1.0000
  H   H1517     1.0  0.81843  0.79950  0.77132  1.0000
  H   H1518     1.0  0.82529  0.89205  0.75606  1.0000
  H   H1519     1.0  0.81553  0.86061  0.74409  1.0000
  H   H1520     1.0  0.82964  0.88299  0.73071  1.0000
  N   N94       1.0  0.93836  0.86239  0.85939  1.0000
  S   S383      1.0  0.95946  0.95281  0.82246  1.0000
  C   C950      1.0  0.94167  0.90445  0.86485  1.0000
  C   C951      1.0  0.94398  0.85699  0.83896  1.0000
  C   C952      1.0  0.94385  0.82540  0.87316  1.0000
  C   C953      1.0  0.94403  0.95231  0.76983  1.0000
  H   H1521     1.0  0.98102  0.91417  0.92478  1.0000
  S   S384      1.0  0.91747  0.95338  0.66393  1.0000
  Fe  Fe191     1.0  0.80012  0.85847  0.67531  1.0000
  H   H1522     1.0  0.91955  0.89061  0.85038  1.0000
  H   H1523     1.0  0.94160  0.79299  0.86956  1.0000
  H   H1524     1.0  0.93947  0.85944  0.97920  1.0000
  H   H1525     1.0  0.94949  0.77676  0.71094  1.0000
  C   C954      1.0  0.75551  0.97552  0.79523  1.0000
  Fe  Fe192     1.0  0.74640  0.91626  0.88248  1.0000
  C   C955      1.0  0.95473  0.80655  0.70630  1.0000
  H   H1526     1.0  0.97587  0.94143  0.96672  1.0000
  C   C956      1.0  0.84036  0.68477  0.67099  1.0000
  H   H1527     1.0  0.97007  0.86808  0.71137  1.0000
  C   C957      1.0  0.77593  0.95545  0.95620  1.0000
  C   C958      1.0  0.74417  0.91880  0.81531  1.0000
  N   N95       1.0  0.98879  0.95931  0.94084  1.0000
  H   H1528     1.0  0.96910  0.95623  0.93350  1.0000
  C   C959      1.0  0.97948  0.94939  0.92743  1.0000
  H   H1529     1.0  0.75344  0.89637  0.81666  1.0000
  H   H1530     1.0  0.98068  0.96940  0.91277  1.0000
  N   N96       1.0  0.74666  0.96566  0.81325  1.0000
  H   H1531     1.0  0.74617  0.56810  0.91138  1.0000
  H   H1532     1.0  0.94030  0.98813  0.79536  1.0000
  H   H1533     1.0  0.98448  0.51308  0.69879  1.0000
  H   H1534     1.0  0.96422  0.52078  0.68071  1.0000
  C   C960      1.0  0.99036  0.50914  0.68444  1.0000
  H   H1535     1.0  0.82132  0.98728  0.95713  1.0000
  H   H1536     1.0  0.99295  0.54240  0.67790  1.0000
