data_image0
_chemical_formula_structural       FeS2FeS2FeSFeS3FeS2FeS2FeSFeS3FeS2FeS2FeSFeS3FeS2FeS2FeSFeS3FeS2FeS2FeSFeS3FeS2FeS2FeSFeS3FeS2FeS2FeSFeS3FeS2FeS2FeSFeS3FeS2FeS2FeSFeS3FeS2FeS2FeSFeS3FeS2FeS2FeSFeS3FeS2FeS2FeSFeS3FeS2FeS2FeSFeS3FeS2FeS2FeSFeS3FeS2FeS2FeSFeS3FeS2FeS2FeSFeS3FeS2FeS2FeSFeS3FeS2FeS2FeSFeS3FeS2FeS2FeSFeS3FeS2FeS2FeSFeS3FeS2FeS2FeSFeS3FeS2FeS2FeSFeS3FeS2FeS2FeSFeS3FeS2FeS2FeSFeS3C6H4C6H4C6H4C6H4C6H4C6H4C6H4C6H4C6H4C6H4C6H4C6H4C6H4C6H4C6H4C6H4C6H4C6H4C6H4C6H4C6H4C6H4C6H4C6H4C6H4C6H4C6H4C6H4C6H4C6H4C6H4C6H4C6H4C6H4C6H4C6H4C6H4C6H4C6H4C6H4C6H4C6H4C6H4C6H4C6H4C6H4C6H4C6H4NC4H12NC4H12NC4H12NC4H12NC4H12NC4H12NC4H12NC4H12NC4H12NC4H12NC4H12NC4H12NC4H12NC4H12NC4H12NC4H12NC4H12NC4H12NC4H12NC4H12NC4H12NC4H12NC4H12NC4H12NC4H12NC4H12NC4H12NC4H12NC4H12NC4H12NC4H12NC4H12NC4H12NC4H12NC4H12NC4H12NC4H12NC4H12NC4H12NC4H12NC4H12NC4H12NC4H12NC4H12NC4H12NC4H12NC4H12NC4H12
_chemical_formula_sum              "Fe96 S192 C480 H768 N48"
_cell_length_a       51.414405153999
_cell_length_b       40.64820082785338
_cell_length_c       27.626261753709482
_cell_angle_alpha    90.0405852146455
_cell_angle_beta     90.06177788574685
_cell_angle_gamma    90.04912543783472

_space_group_name_H-M_alt    "P 1"
_space_group_IT_number       1

loop_
  _space_group_symop_operation_xyz
  'x, y, z'

loop_
  _atom_site_type_symbol
  _atom_site_label
  _atom_site_symmetry_multiplicity
  _atom_site_fract_x
  _atom_site_fract_y
  _atom_site_fract_z
  _atom_site_occupancy
  Fe  Fe1       1.0  0.6399380248969951  0.6955660657243112  0.6001145902927023  1.0000
  S   S1        1.0  0.6412101871550407  0.741382308904636  0.5551541104013001  1.0000
  S   S2        1.0  0.6197690189839873  0.6493070566317285  0.5757156715117994  1.0000
  Fe  Fe2       1.0  0.666070696572425  0.7273356166845061  0.6858965100464023  1.0000
  S   S3        1.0  0.6697595450182618  0.7762291617846093  0.6497199360701924  1.0000
  S   S4        1.0  0.6778616733495241  0.7188464709686112  0.7629637798459332  1.0000
  Fe  Fe3       1.0  0.6292839281415527  0.767065020368602  0.6230450338149315  1.0000
  S   S5        1.0  0.6000341205125413  0.8075204225100333  0.6184457592708026  1.0000
  Fe  Fe4       1.0  0.6815413137265259  0.7469618027586363  0.5847317827986444  1.0000
  S   S6        1.0  0.71240556826502  0.7705551469433065  0.5397109534005637  1.0000
  S   S7        1.0  0.6241829579370289  0.7210931053238238  0.6658731125263622  1.0000
  S   S8        1.0  0.6817797360699813  0.6983012490555045  0.6233503932530594  1.0000
  Fe  Fe5       1.0  0.03358938428265801  0.4453587410104429  0.12182298648241432  1.0000
  S   S9        1.0  0.018218662649110318  0.4410183608585318  0.19721841306498517  1.0000
  S   S10       1.0  0.04121602840749339  0.40281807851054346  0.07271262410054069  1.0000
  Fe  Fe6       1.0  0.041820184739085775  0.5183482222496479  0.1277224342306697  1.0000
  S   S11       1.0  0.027617986339111056  0.5217435209270639  0.20408448929183856  1.0000
  S   S12       1.0  0.05451765016537169  0.5635210578645314  0.08738386464219251  1.0000
  Fe  Fe7       1.0  0.0504711177023589  0.47568087349282057  0.21637915553618017  1.0000
  S   S13       1.0  0.07099671183966305  0.4677054787909707  0.2869445099393052  1.0000
  Fe  Fe8       1.0  0.996217520184612  0.4871903305630819  0.18001272781242286  1.0000
  S   S14       1.0  0.9560230821996654  0.4970750075112762  0.20799659096162973  1.0000
  S   S15       1.0  0.06828238144101872  0.4758155154588099  0.1424264312250221  1.0000
  S   S16       1.0  0.008056296770026394  0.4878750499716861  0.10213420686261476  1.0000
  Fe  Fe9       1.0  0.5407685153820593  0.57319989614186  0.7674893751543181  1.0000
  S   S17       1.0  0.5229847660832744  0.5233778392236864  0.7552530741470493  1.0000
  S   S18       1.0  0.583509997127068  0.5843411180568864  0.7711797898479411  1.0000
  Fe  Fe10      1.0  0.4886078227928813  0.6082457939357534  0.7673442129610338  1.0000
  S   S19       1.0  0.46641023545844207  0.561524487615302  0.7573246993642715  1.0000
  S   S20       1.0  0.4659896711983321  0.6555614645546592  0.766046307108012  1.0000
  Fe  Fe11      1.0  0.4940474468730758  0.540111439802945  0.811069958034554  1.0000
  S   S21       1.0  0.47903476709379367  0.5051758071294892  0.8673619210468749  1.0000
  Fe  Fe12      1.0  0.49690032365327697  0.5496187950763474  0.7028273524434595  1.0000
  S   S22       1.0  0.4820298442693526  0.5352740283688815  0.6298280414492349  1.0000
  S   S23       1.0  0.5135817675865159  0.5883037379875049  0.827274277796024  1.0000
  S   S24       1.0  0.517679176307031  0.5976633539713845  0.7094866363911113  1.0000
  Fe  Fe13      1.0  0.37832158250719566  0.5229820930130501  0.04791002624058538  1.0000
  S   S25       1.0  0.37688259456084827  0.4679783122717742  0.052188583408404376  1.0000
  S   S26       1.0  0.3794652858779278  0.5531182237715927  0.9795911199047981  1.0000
  Fe  Fe14      1.0  0.3795476735735498  0.531468999851604  0.15625636214186645  1.0000
  S   S27       1.0  0.3783939586289757  0.4774245558995541  0.17131517862926185  1.0000
  S   S28       1.0  0.3773410168819477  0.5701418384047471  0.21394239971920703  1.0000
  Fe  Fe15      1.0  0.40696870456795176  0.47322102910778374  0.11022800086051654  1.0000
  S   S29       1.0  0.44003689444270083  0.4367728177059354  0.10949114073808053  1.0000
  Fe  Fe16      1.0  0.34845052870174303  0.475810483852718  0.11234203629525275  1.0000
  S   S30       1.0  0.31545468403031296  0.4402022443144442  0.11959349671115804  1.0000
  S   S31       1.0  0.4111908057072293  0.5279605937759482  0.10088856553270231  1.0000
  S   S32       1.0  0.3467421297356021  0.5305000123236364  0.1027070102809633  1.0000
  Fe  Fe17      1.0  0.21274107781533888  0.5445768971196631  0.24571957808278155  1.0000
  S   S33       1.0  0.23419170422880692  0.5849021906490809  0.20753266291844605  1.0000
  S   S34       1.0  0.22141793577531232  0.4905508944026528  0.24529194514697916  1.0000
  Fe  Fe18      1.0  0.17374620945570385  0.5914346103151747  0.2904126989782515  1.0000
  S   S35       1.0  0.19161558208930454  0.6360970669356893  0.25632384623416327  1.0000
  S   S36       1.0  0.13929521160513209  0.5912302945709109  0.339782814486448  1.0000
  Fe  Fe19      1.0  0.1943985909462317  0.6041990534338972  0.19023909316164084  1.0000
  S   S37       1.0  0.1824585205795975  0.6196360781150709  0.11558367699099678  1.0000
  Fe  Fe20      1.0  0.22962601159432552  0.6127003522421391  0.2772606420271307  1.0000
  S   S38       1.0  0.2631990321701582  0.6430911246547184  0.3050676419752068  1.0000
  S   S39       1.0  0.1733138996648403  0.5614488456502411  0.2226402756314136  1.0000
  S   S40       1.0  0.21137088499187887  0.570598675462815  0.3169935363635371  1.0000
  Fe  Fe21      1.0  0.3248432786153115  0.7107528464993483  0.5517570193036059  1.0000
  S   S41       1.0  0.3045014761128311  0.6662119660422554  0.5808927248636192  1.0000
  S   S42       1.0  0.3005807649229867  0.7532751493570141  0.5268710859923268  1.0000
  Fe  Fe22      1.0  0.3781990986777298  0.6815363269123956  0.5660326855455657  1.0000
  S   S43       1.0  0.36253136285250426  0.6346471736789409  0.5968887731220449  1.0000
  S   S44       1.0  0.42134181808400617  0.6831568469559578  0.5572544247748352  1.0000
  Fe  Fe23      1.0  0.333480705794418  0.6381030315222075  0.5366456550643944  1.0000
  S   S45       1.0  0.3224887423850233  0.5940906963771274  0.4919691675819377  1.0000
  Fe  Fe24      1.0  0.3354920170210087  0.6676093207972079  0.6378031476406124  1.0000
  S   S46       1.0  0.32796023548327213  0.6613499164541252  0.717033862286614  1.0000
  S   S47       1.0  0.3512523447131579  0.6825862171007209  0.5024036270451254  1.0000
  S   S48       1.0  0.35377385023822727  0.7144785940824623  0.6124166366565945  1.0000
  Fe  Fe25      1.0  0.5379505984958937  0.4905699125042779  0.31743065615352767  1.0000
  S   S49       1.0  0.5195728082979149  0.5341315566648855  0.2810464937749411  1.0000
  S   S50       1.0  0.5410862604351842  0.44088188833272807  0.2830059816733954  1.0000
  Fe  Fe26      1.0  0.5538218582597708  0.5284426506292632  0.4066496618067477  1.0000
  S   S51       1.0  0.5372219891602422  0.5753222451337106  0.37869946676379984  1.0000
  S   S52       1.0  0.5735174107064829  0.5280716902059552  0.47908121964814265  1.0000
  Fe  Fe27      1.0  0.503419654133651  0.5446819103930831  0.35489332471618823  1.0000
  S   S53       1.0  0.46541871726743106  0.5687086372607361  0.3729814379243358  1.0000
  Fe  Fe28      1.0  0.5547445429646803  0.561176152151568  0.3078842479178924  1.0000
  S   S54       1.0  0.5737923784297178  0.6026119474889176  0.2679016378245086  1.0000
  S   S55       1.0  0.5184237791350033  0.49839386373726896  0.38898324697234066  1.0000
  S   S56       1.0  0.5747717273079187  0.5166665958152626  0.3382251188078001  1.0000
  Fe  Fe29      1.0  0.19379585652132789  0.7157635585821808  0.8940025617829992  1.0000
  S   S57       1.0  0.19999017092872926  0.7307873850816959  0.970685395104564  1.0000
  S   S58       1.0  0.16488296187695162  0.6765936913029849  0.8746585621933092  1.0000
  Fe  Fe30      1.0  0.2366687238509642  0.760178188739473  0.857410414312938  1.0000
  S   S59       1.0  0.2469301289897892  0.7792289493974437  0.9311828609882192  1.0000
  S   S60       1.0  0.2571612904283265  0.7779711712015639  0.7906554850679818  1.0000
  Fe  Fe31      1.0  0.2425189760428281  0.7266822068073852  0.9539496509436716  1.0000
  S   S61       1.0  0.2677733299023014  0.7035623889880095  0.010755004748549624  1.0000
  Fe  Fe32      1.0  0.20379111828823426  0.7818291824321162  0.9418528105146083  1.0000
  S   S62       1.0  0.18243316524125086  0.8220000038477597  0.9809036630150941  1.0000
  S   S63       1.0  0.23608975314365502  0.7069756316685496  0.8793124921546117  1.0000
  S   S64       1.0  0.1936205440913188  0.7674270141802515  0.865752779594088  1.0000
  Fe  Fe33      1.0  0.9945361799442142  0.6087415461282402  0.8558805632531309  1.0000
  S   S65       1.0  0.9841973521696725  0.6560384162459535  0.892885246614245  1.0000
  S   S66       1.0  0.9944219755749619  0.5590498090469393  0.8902089640834966  1.0000
  Fe  Fe34      1.0  0.007144504307460053  0.6416920115247736  0.7610771588847747  1.0000
  S   S67       1.0  0.9986142819588328  0.6921409322159326  0.7892366300245844  1.0000
  S   S68       1.0  0.017246479546736637  0.6309787885687923  0.6839204062153965  1.0000
  Fe  Fe35      1.0  0.019917895719711254  0.6756129663642928  0.8558111397684781  1.0000
  S   S69       1.0  0.04572432905516166  0.7106555766342598  0.897266779482228  1.0000
  Fe  Fe36      1.0  0.9639013670979039  0.6683810126518627  0.8233719998341997  1.0000
  S   S70       1.0  0.9251361397769788  0.6923548080708609  0.8118825044062601  1.0000
  S   S71       1.0  0.031782151555088234  0.6269249413441769  0.8242780088374762  1.0000
  S   S72       1.0  0.9707085765543172  0.6189823534370845  0.790077863293469  1.0000
  Fe  Fe37      1.0  0.9366943895237134  0.5174279789020075  0.47845397601143436  1.0000
  S   S73       1.0  0.9106454461401546  0.47489684804588717  0.49545155217404013  1.0000
  S   S74       1.0  0.9722893901972647  0.5103247359583669  0.43300270121722906  1.0000
  Fe  Fe38      1.0  0.909484917225881  0.5630560934458608  0.5488837344626175  1.0000
  S   S75       1.0  0.881365247535653  0.5241844266944183  0.5731792061646921  1.0000
  S   S76       1.0  0.9086094628351878  0.6129863040407938  0.5836472837992949  1.0000
  Fe  Fe39      1.0  0.9159049978922528  0.4906609979665841  0.5725997431159899  1.0000
  S   S77       1.0  0.9273428278717633  0.45462121265083955  0.6301708388075108  1.0000
  Fe  Fe40      1.0  0.8788324214450763  0.5124494406637962  0.49390711884018523  1.0000
  S   S78       1.0  0.8413364193065677  0.5011194297239843  0.4561394844416549  1.0000
  S   S79       1.0  0.9442714697275381  0.53040639159882  0.5557915322443645  1.0000
  S   S80       1.0  0.9044188204159003  0.5540436947242237  0.4692590417372535  1.0000
  Fe  Fe41      1.0  0.721568706380385  0.6816711260090418  0.31639457305985963  1.0000
  S   S81       1.0  0.7127138171639472  0.6400150221232681  0.3668671056731649  1.0000
  S   S82       1.0  0.702957237497504  0.7314138855042822  0.3195338564491657  1.0000
  Fe  Fe42      1.0  0.7653147326721293  0.6455285642314845  0.26561787735584336  1.0000
  S   S83       1.0  0.760790620995309  0.6004910480629341  0.3115710773704666  1.0000
  S   S84       1.0  0.7980448395775771  0.6523600374284786  0.2123628761626868  1.0000
  Fe  Fe43      1.0  0.7180034621512422  0.6087246965860341  0.3007852592042101  1.0000
  S   S85       1.0  0.6920130654302789  0.5656951495556308  0.28669046755754635  1.0000
  Fe  Fe44      1.0  0.7559660920069396  0.6354832846596786  0.3736219259231466  1.0000
  S   S86       1.0  0.7759404238856958  0.6310332072313537  0.4455423356903311  1.0000
  S   S87       1.0  0.7227580556442095  0.6508521203666661  0.24919254751292055  1.0000
  S   S88       1.0  0.7645105833873637  0.6799795423392974  0.32876239422053005  1.0000
  Fe  Fe45      1.0  0.7857182566870723  0.8186543007249645  0.950581996751326  1.0000
  S   S89       1.0  0.7620509055004953  0.7772408802099283  0.9209649247200273  1.0000
  S   S90       1.0  0.765205764007122  0.8672866597677542  0.9470305557900963  1.0000
  Fe  Fe46      1.0  0.8327832384724979  0.7754175931301417  0.965049621745736  1.0000
  S   S91       1.0  0.8129553145753077  0.7300873643946791  0.936791106758654  1.0000
  S   S92       1.0  0.8747847681399509  0.7698806903614289  0.9859519031400636  1.0000
  Fe  Fe47      1.0  0.7977607162085236  0.7636095509647363  0.8792447789063849  1.0000
  S   S93       1.0  0.796091385196722  0.7493058138671131  0.8004767733138798  1.0000
  Fe  Fe48      1.0  0.7792331181983525  0.7475052490228357  0.9811212590675696  1.0000
  S   S94       1.0  0.7524456173266809  0.7130516150621355  0.02043538013508828  1.0000
  S   S95       1.0  0.8201465761973395  0.8079329608252852  0.9036241303570379  1.0000
  S   S96       1.0  0.800179389845855  0.790194772679592  0.014975880520964768  1.0000
  Fe  Fe49      1.0  0.23223666569072132  0.9876393275047852  0.00886248093242048  1.0000
  S   S97       1.0  0.19457760751495115  0.9861727824006494  0.967865370989913  1.0000
  S   S98       1.0  0.24823622355482092  0.9443577018312109  0.049723265108890136  1.0000
  Fe  Fe50      1.0  0.2444639724523496  0.05733646641163004  0.9768912391154366  1.0000
  S   S99       1.0  0.2080288198529195  0.06216356589823957  0.933297577463774  1.0000
  S   S100      1.0  0.273329573189637  0.09801686777953922  0.9846224872981211  1.0000
  Fe  Fe51      1.0  0.18900720151010553  0.0373821571925641  0.9965804005706378  1.0000
  S   S101      1.0  0.15334745392631133  0.05595786427741567  0.034544265452305156  1.0000
  Fe  Fe52      1.0  0.21732896118053757  0.010740959499482727  0.9088020654738299  1.0000
  S   S102      1.0  0.21378164654790088  0.9956403978370237  0.8307236394372537  1.0000
  S   S103      1.0  0.22494125165281145  0.036787566315528375  0.042543993236520805  1.0000
  S   S104      1.0  0.2555402172325922  0.008209024693929923  0.9475453970313024  1.0000
  Fe  Fe53      1.0  0.614628018755499  0.26253723175556803  0.46439056732617773  1.0000
  S   S105      1.0  0.575616233076371  0.26269029735279115  0.499816060467926  1.0000
  S   S106      1.0  0.6487774083958656  0.2738674510508089  0.511639723381619  1.0000
  Fe  Fe54      1.0  0.5924918477795411  0.24734107278369763  0.3656310900623052  1.0000
  S   S107      1.0  0.551420266073878  0.24479506537810417  0.39243477883838834  1.0000
  S   S108      1.0  0.6060406096803564  0.24274927683711434  0.28869159981803677  1.0000
  Fe  Fe55      1.0  0.5621190118826288  0.29007987330386553  0.4342519166433384  1.0000
  S   S109      1.0  0.5327676732418749  0.33061824653816874  0.4426000248945503  1.0000
  Fe  Fe56      1.0  0.5681833890870878  0.2174737858242233  0.45589649193739445  1.0000
  S   S110      1.0  0.5504698342864084  0.17186281567188508  0.4887673761063079  1.0000
  S   S111      1.0  0.6021949772444141  0.294778629426262  0.40315047672822496  1.0000
  S   S112      1.0  0.6084366584371651  0.21523258385145067  0.4246889575758761  1.0000
  Fe  Fe57      1.0  0.023723794965372136  0.1093412702254104  0.9280051065029963  1.0000
  S   S113      1.0  0.01070994805337322  0.16197790211913426  0.9245767947923234  1.0000
  S   S114      1.0  0.06145991511498017  0.09422978996377362  0.8931514721134874  1.0000
  Fe  Fe58      1.0  0.9729649901717814  0.0858283307916734  0.9713181405815811  1.0000
  S   S115      1.0  0.9553938731787449  0.13614635973851155  0.9715046904146297  1.0000
  S   S116      1.0  0.949935761051431  0.04358019396633073  0.0008067363030748176  1.0000
  Fe  Fe59      1.0  0.9729124035711703  0.14126941358963305  0.8977774104494719  1.0000
  S   S117      1.0  0.9484314211923436  0.160599839303106  0.8365809920239828  1.0000
  Fe  Fe60      1.0  0.9943950999146859  0.15236578677827511  0.998352888381933  1.0000
  S   S118      1.0  0.9967123671199761  0.1899069828501731  0.05764724963178103  1.0000
  S   S119      1.0  0.9870941870782685  0.08923410422522227  0.8949455125221514  1.0000
  S   S120      1.0  0.01074996160381092  0.10134293564359265  0.0046827996176848075  1.0000
  Fe  Fe61      1.0  0.9813622219352067  0.2979590027384508  0.5369062543791155  1.0000
  S   S121      1.0  0.012657080531030429  0.2598013404793044  0.5406390752087723  1.0000
  S   S122      1.0  0.9906257250071884  0.34961372876718244  0.5133054294478449  1.0000
  Fe  Fe62      1.0  0.9384236118515541  0.24868348982239655  0.5575756903645837  1.0000
  S   S123      1.0  0.9659234644772646  0.20594684715058462  0.5630773985737882  1.0000
  S   S124      1.0  0.895603550310607  0.24332964680718572  0.5715966888115515  1.0000
  Fe  Fe63      1.0  0.9909344277867049  0.24102838293848788  0.6052302275698029  1.0000
  S   S125      1.0  0.013825965094160564  0.22774356946015883  0.6714091266699374  1.0000
  Fe  Fe64      1.0  0.9850453392678431  0.22847676266571396  0.4981878837089078  1.0000
  S   S126      1.0  0.999127760604376  0.19940288148936472  0.43436823797869706  1.0000
  S   S127      1.0  0.9617768668358928  0.2819615283855147  0.6054929670567938  1.0000
  S   S128      1.0  0.9553108059882451  0.2681757914747047  0.4887370948260353  1.0000
  Fe  Fe65      1.0  0.750238954472253  0.14864319219884664  0.4721297870061603  1.0000
  S   S129      1.0  0.7340866709046512  0.1093312171870433  0.42397424475429046  1.0000
  S   S130      1.0  0.7312536404931103  0.16115935739144735  0.5426518993640888  1.0000
  Fe  Fe66      1.0  0.7965762632044121  0.16224777003307791  0.40824113571941745  1.0000
  S   S131      1.0  0.784986932479449  0.12331811112370161  0.35501755769841636  1.0000
  S   S132      1.0  0.8321954552725903  0.19227564865879648  0.39142311999119495  1.0000
  Fe  Fe67      1.0  0.7448371770903162  0.14361605924777088  0.36393596746698015  1.0000
  S   S133      1.0  0.7192372983709241  0.149198226333219  0.29881809579362245  1.0000
  Fe  Fe68      1.0  0.7754806119543078  0.09255654435552918  0.419598963348922  1.0000
  S   S134      1.0  0.7870294191124197  0.039404988948780195  0.42029447870787645  1.0000
  S   S135      1.0  0.7569059542899631  0.1851088993798863  0.4124048871387655  1.0000
  S   S136      1.0  0.7911366266219049  0.12932719588179023  0.47246054259809855  1.0000
  Fe  Fe69      1.0  0.7868851838956622  0.09299981536755353  0.07863130722902835  1.0000
  S   S137      1.0  0.8171142062337998  0.0542206654097408  0.06667176079966408  1.0000
  S   S138      1.0  0.798523599067716  0.1344144277154704  0.12768978277650106  1.0000
  Fe  Fe70      1.0  0.748831526008873  0.06182984462436947  0.009601898342425752  1.0000
  S   S139      1.0  0.7755438727546345  0.020296174132991007  0.9914773314115536  1.0000
  S   S140      1.0  0.7103376914672455  0.062353659418621143  0.9717172232192497  1.0000
  Fe  Fe71      1.0  0.7837154788558259  0.018973373817722683  0.07101217023539497  1.0000
  S   S141      1.0  0.7890282671746902  0.9710360619022566  0.11002843534277702  1.0000
  Fe  Fe72      1.0  0.806379380456881  0.05880994997778033  0.9885367227303788  1.0000
  S   S142      1.0  0.8348905327725606  0.059438307527480694  0.9272724960178431  1.0000
  S   S143      1.0  0.7541085684082406  0.057208307301500616  0.09007415865968538  1.0000
  S   S144      1.0  0.7791000877043387  0.10102915093327947  0.9998122835585405  1.0000
  Fe  Fe73      1.0  0.6630722702693898  0.9593685347440013  0.7027177654912039  1.0000
  S   S145      1.0  0.6591933351471484  0.012083440575623383  0.7250890110125169  1.0000
  S   S146      1.0  0.648157830082628  0.9184813154669295  0.7496039991312544  1.0000
  Fe  Fe74      1.0  0.6958716000498139  0.9754633370522922  0.6147489050761362  1.0000
  S   S147      1.0  0.6950587580703803  0.02964016155239313  0.6294101828211053  1.0000
  S   S148      1.0  0.7173270507078094  0.949678412892359  0.5549888824731134  1.0000
  Fe  Fe75      1.0  0.7015236851125916  0.015618286622971489  0.706849873069515  1.0000
  S   S149      1.0  0.7324751635398157  0.04215405816793649  0.7487984124233946  1.0000
  Fe  Fe76      1.0  0.6530144227027128  0.021387387619485665  0.6460719499238267  1.0000
  S   S150      1.0  0.6231948292131358  0.05855254412960931  0.6240875820935969  1.0000
  S   S151      1.0  0.7060753710324028  0.9619905785135918  0.6909648273961472  1.0000
  S   S152      1.0  0.6530017607703905  0.968090962559002  0.6247164680465934  1.0000
  Fe  Fe77      1.0  0.11572712806575014  0.2337359023413683  0.19071796402294033  1.0000
  S   S153      1.0  0.10782315685270927  0.23020781497153703  0.27011791808922964  1.0000
  S   S154      1.0  0.11114120915931136  0.1921618138382563  0.13857930160801119  1.0000
  Fe  Fe78      1.0  0.13508317728867447  0.30360671440617387  0.197139739435703  1.0000
  S   S155      1.0  0.12975924379201276  0.3065514605593941  0.27738330516471743  1.0000
  S   S156      1.0  0.14707084968523199  0.3458865132395489  0.15057489488570963  1.0000
  Fe  Fe79      1.0  0.14627617881863264  0.25557550779788224  0.27771444778772064  1.0000
  S   S157      1.0  0.17298017488094725  0.23556712018661077  0.3344875358097183  1.0000
  Fe  Fe80      1.0  0.0918119499431469  0.28124020010251594  0.2627767367987782  1.0000
  S   S158      1.0  0.057311920398404714  0.30200081404497986  0.30195680749454035  1.0000
  S   S159      1.0  0.1555583863065606  0.25504355379012317  0.1985233581076286  1.0000
  S   S160      1.0  0.09577269848113334  0.28222184458349225  0.18218196359409933  1.0000
  Fe  Fe81      1.0  0.2778122517643195  0.07394799121680573  0.3032074245661165  1.0000
  S   S161      1.0  0.28737022590573996  0.1227756772991049  0.336713741190931  1.0000
  S   S162      1.0  0.24465405448516916  0.041347113588181994  0.3241962314162387  1.0000
  Fe  Fe82      1.0  0.31947671583674003  0.07902287963520704  0.22746244738119642  1.0000
  S   S163      1.0  0.3330876839119666  0.1283467273932118  0.2524808182146578  1.0000
  S   S164      1.0  0.3362598878902642  0.050343317258622955  0.16618196453936276  1.0000
  Fe  Fe83      1.0  0.32871998081238163  0.10707546615703967  0.3268272223666038  1.0000
  S   S165      1.0  0.35884694406127166  0.11282826303965887  0.384588067507881  1.0000
  Fe  Fe84      1.0  0.29070442624843484  0.14028435091115463  0.25980087416674874  1.0000
  S   S166      1.0  0.27602812592866266  0.18852432080074505  0.23099785783270563  1.0000
  S   S167      1.0  0.31894841766849347  0.0563588239727999  0.3009583937170481  1.0000
  S   S168      1.0  0.27743074460989187  0.09281379020672764  0.2271387493179093  1.0000
  Fe  Fe85      1.0  0.344507995072469  0.9249985620916484  0.5681007194534982  1.0000
  S   S169      1.0  0.30535213960164276  0.920937791358911  0.6031195838038628  1.0000
  S   S170      1.0  0.3683780353703878  0.8817456816199477  0.5448244273264682  1.0000
  Fe  Fe86      1.0  0.3475361237959954  0.9984616095063342  0.5839292643829004  1.0000
  S   S171      1.0  0.3087095934334952  0.0011241450795227426  0.6202860226914451  1.0000
  S   S172      1.0  0.3722899615970364  0.04343728724521134  0.5761183908072641  1.0000
  Fe  Fe87      1.0  0.32152420620691025  0.9553627478611314  0.6586473528530613  1.0000
  S   S173      1.0  0.3186546345735808  0.9455419746275943  0.7383279732523264  1.0000
  Fe  Fe88      1.0  0.2962451956589504  0.9667844411078373  0.5610314205090081  1.0000
  S   S174      1.0  0.25668207891093386  0.9727023900287843  0.5280957631160861  1.0000
  S   S175      1.0  0.36155071893201507  0.9556777788891154  0.6273222972708271  1.0000
  S   S176      1.0  0.33420025016241994  0.9679435911228476  0.5210180655120328  1.0000
  Fe  Fe89      1.0  0.49935736070648296  0.10841720942303003  0.8426937211417622  1.0000
  S   S177      1.0  0.47758330187759623  0.06313890174141945  0.8209384061896237  1.0000
  S   S178      1.0  0.5160096918602999  0.11365205562907166  0.9174608917717401  1.0000
  Fe  Fe90      1.0  0.49606321125320346  0.13837575931026364  0.7425108855185809  1.0000
  S   S179      1.0  0.47405162602483497  0.09556047814619428  0.7114267788421971  1.0000
  S   S180      1.0  0.5067970718871805  0.184437594124943  0.7022384907713786  1.0000
  Fe  Fe91      1.0  0.4513080741942977  0.0975817034217552  0.7807602768945384  1.0000
  S   S181      1.0  0.4084015585498895  0.0869623802526196  0.7842028432087321  1.0000
  Fe  Fe92      1.0  0.5019774552655754  0.06504257451763351  0.7542877643326524  1.0000
  S   S182      1.0  0.5195454874521678  0.018183603613024513  0.7276272747082406  1.0000
  S   S183      1.0  0.47088007083020544  0.14318289089305905  0.8086493045669615  1.0000
  S   S184      1.0  0.5263346461639142  0.10750445008826048  0.7791558033429407  1.0000
  Fe  Fe93      1.0  0.4265509333308469  0.25616954220855687  0.16150290637206877  1.0000
  S   S185      1.0  0.44899390965145997  0.2431351691871775  0.09488876125670731  1.0000
  S   S186      1.0  0.3961811760847245  0.2956940197793943  0.16211012211009246  1.0000
  Fe  Fe94      1.0  0.4525492108171493  0.20365209866611092  0.22227821705105955  1.0000
  S   S187      1.0  0.4775198606746267  0.1861167298024467  0.16105999253793235  1.0000
  S   S188      1.0  0.4583114947864142  0.179282990289563  0.2942347500224822  1.0000
  Fe  Fe95      1.0  0.48297693565978156  0.2396512370678595  0.14553357049652615  1.0000
  S   S189      1.0  0.5217685083126168  0.25975636315090744  0.12322904385659303  1.0000
  Fe  Fe96      1.0  0.44137242069811805  0.19094930209062486  0.11654557350931838  1.0000
  S   S190      1.0  0.4273822353307309  0.15344864272095932  0.06300007420407172  1.0000
  S   S191      1.0  0.4611453541912638  0.2570570575913242  0.21089752376042914  1.0000
  S   S192      1.0  0.4156832146229258  0.20413675079156407  0.17902555701930933  1.0000
  C   C1        1.0  0.490977221748391  0.11963908326184147  0.9595890925223329  1.0000
  C   C2        1.0  0.4971129753150588  0.12646586885520583  0.007949424215922374  1.0000
  C   C3        1.0  0.47761192386445006  0.13661451655345733  0.040157010120929204  1.0000
  C   C4        1.0  0.4517993431950569  0.13873432194032967  0.02442390807603334  1.0000
  C   C5        1.0  0.4454387343218438  0.12984056626725343  0.976919438373011  1.0000
  C   C6        1.0  0.4650357206628831  0.12060718914592618  0.9443701067614116  1.0000
  H   H1        1.0  0.5170828695132409  0.12486070242014291  0.020110634997803967  1.0000
  H   H2        1.0  0.48257850757795295  0.14265118123076378  0.07708497283670313  1.0000
  H   H3        1.0  0.42544842094006197  0.13115624640126144  0.9647343167002433  1.0000
  H   H4        1.0  0.46006832739129033  0.11490364272947362  0.9072685346447111  1.0000
  C   C7        1.0  0.3803957816374697  0.05784724318169143  0.6339329538782846  1.0000
  C   C8        1.0  0.39842636721473274  0.08337694641649662  0.6391875452295519  1.0000
  C   C9        1.0  0.4065705747308676  0.09308309243565183  0.6855109729819363  1.0000
  C   C10       1.0  0.39662878568214327  0.07731005979353789  0.7265126928427428  1.0000
  C   C11       1.0  0.37816284469792266  0.05229001651530818  0.7212483372181988  1.0000
  C   C12       1.0  0.37010443104199336  0.04250536108464109  0.6750054504924597  1.0000
  H   H5        1.0  0.4064155223019851  0.09529951381341317  0.6074970515520648  1.0000
  H   H6        1.0  0.4204449200691964  0.112905585285479  0.6895371851721428  1.0000
  H   H7        1.0  0.37084739682477  0.03959461621117977  0.7528147530992082  1.0000
  H   H8        1.0  0.35633476122819024  0.022609175366687717  0.6713062312814229  1.0000
  C   C13       1.0  0.254418969567051  0.9905898471934523  0.47040291493835973  1.0000
  C   C14       1.0  0.27637067738387305  0.002469039126582695  0.44602626267026385  1.0000
  C   C15       1.0  0.2735960449551752  0.018240141762484896  0.40102114896278146  1.0000
  C   C16       1.0  0.24891639125468631  0.021516212532831647  0.3800353031792358  1.0000
  C   C17       1.0  0.2271402331145347  0.008872496593075319  0.40387327635627507  1.0000
  C   C18       1.0  0.22985969430606187  0.9937157240696389  0.4490942883868775  1.0000
  H   H9        1.0  0.2953873711713026  0.9998102183418931  0.46199650282657  1.0000
  H   H10       1.0  0.29052686805557915  0.02762685058768999  0.38255399365229353  1.0000
  H   H11       1.0  0.20804265420391152  0.011291786193836861  0.3877701721912868  1.0000
  H   H12       1.0  0.21284806951798863  0.9844978790170441  0.46773945755791096  1.0000
  C   C19       1.0  0.3862523412312469  0.13230875372849382  0.36038939984446566  1.0000
  C   C20       1.0  0.38352540600024554  0.157323973296038  0.3259673412283274  1.0000
  C   C21       1.0  0.40560851181964747  0.1717726273973126  0.3051383007459957  1.0000
  C   C22       1.0  0.43040640506056  0.16119262229808526  0.3188082854386969  1.0000
  C   C23       1.0  0.43311946305360804  0.1364822750730038  0.353701764634149  1.0000
  C   C24       1.0  0.411062041501057  0.12220500266975144  0.37470775257529637  1.0000
  H   H13       1.0  0.3644004417290013  0.1661819509507672  0.3163969360805052  1.0000
  H   H14       1.0  0.40340819062531835  0.19163748623672125  0.2795437570492729  1.0000
  H   H15       1.0  0.45226291716529854  0.1280768482115417  0.3641993979209378  1.0000
  H   H16       1.0  0.41320389889203696  0.102836855524435  0.4012915434512682  1.0000
  C   C25       1.0  0.2017914539360777  0.22283935315251213  0.30617702006691716  1.0000
  C   C26       1.0  0.21245385547217532  0.2412784706246504  0.26828377486064064  1.0000
  C   C27       1.0  0.23523625357855366  0.2306041095401129  0.2451739052175695  1.0000
  C   C28       1.0  0.24723361718083167  0.20128354246996244  0.2595734072370106  1.0000
  C   C29       1.0  0.23627852933505838  0.1826267560215869  0.2968801133506565  1.0000
  C   C30       1.0  0.21381714673567104  0.193615483482867  0.32063515444531043  1.0000
  H   H17       1.0  0.20337372750515545  0.26407801641496126  0.25733103685930486  1.0000
  H   H18       1.0  0.2434679523277202  0.2450468378989789  0.21612427461917225  1.0000
  H   H19       1.0  0.24492716080771249  0.15961755409128864  0.307384964913978  1.0000
  H   H20       1.0  0.2054672842001775  0.17908918261941476  0.3495156177799521  1.0000
  C   C31       1.0  0.5931338494671116  0.046018719669241426  0.6471785514575424  1.0000
  C   C32       1.0  0.5902620657816343  0.014329680305950498  0.6661712317647832  1.0000
  C   C33       1.0  0.5668679118911257  0.005029029511049554  0.6881098654675171  1.0000
  C   C34       1.0  0.5466911323968815  0.02781662739819235  0.6925696466384378  1.0000
  C   C35       1.0  0.5492672073860168  0.05925070360548279  0.6726478555451894  1.0000
  C   C36       1.0  0.5723899668256403  0.0682396888204162  0.6493504935825497  1.0000
  H   H21       1.0  0.606141501413973  0.9970218222816676  0.6645059132146564  1.0000
  H   H22       1.0  0.5648664825136025  0.9806372497206907  0.7033787906104834  1.0000
  H   H23       1.0  0.5336074468919229  0.07681530572807249  0.6759302896221636  1.0000
  H   H24       1.0  0.5743481281812461  0.09264375873302  0.6343048544460943  1.0000
  C   C37       1.0  0.7161869027813867  0.05711799125536654  0.9096619922126797  1.0000
  C   C38       1.0  0.7412957674107059  0.061292397667239706  0.8911510420829812  1.0000
  C   C39       1.0  0.7460665401686003  0.05682973149004922  0.8416755894437855  1.0000
  C   C40       1.0  0.7258305806188448  0.04768887674621891  0.8105843923213478  1.0000
  C   C41       1.0  0.7007174973320766  0.04340260158035858  0.8290552566123011  1.0000
  C   C42       1.0  0.695850127284111  0.048333114118000786  0.8785204286734571  1.0000
  H   H25       1.0  0.7570689749625417  0.06830709962640547  0.9147856516263817  1.0000
  H   H26       1.0  0.7655127390804257  0.06030998268192844  0.8276392234362449  1.0000
  H   H27       1.0  0.6850406420231249  0.03657284141552841  0.8053480216035434  1.0000
  H   H28       1.0  0.6764758333717552  0.0449853245150007  0.8928493332205605  1.0000
  C   C43       1.0  0.767318828126411  0.015029513418197471  0.45785496818508487  1.0000
  C   C44       1.0  0.7710962449485196  0.9809570569830514  0.4589021972305454  1.0000
  C   C45       1.0  0.755508251818261  0.9610599053183962  0.4885167014869372  1.0000
  C   C46       1.0  0.7361269603074285  0.975148791004549  0.5173659310735693  1.0000
  C   C47       1.0  0.7321040945197738  0.009167864917080548  0.5158592458372653  1.0000
  C   C48       1.0  0.7478540515284852  0.02914209854792027  0.4865281024694578  1.0000
  H   H29       1.0  0.7861180801167352  0.9699170352538417  0.43684075077511403  1.0000
  H   H30       1.0  0.7586462938324088  0.9347502579571771  0.4893627045596007  1.0000
  H   H31       1.0  0.716657727519763  0.02008262512184933  0.5367255912620597  1.0000
  H   H32       1.0  0.7448546166065241  0.055383014806621  0.48611231161427554  1.0000
  C   C49       1.0  0.739646144126463  0.15017538159899924  0.24816040188680608  1.0000
  C   C50       1.0  0.731550872586821  0.1361191711757459  0.20443004716414348  1.0000
  C   C51       1.0  0.7493397308684754  0.13230146847728075  0.16633498245763942  1.0000
  C   C52       1.0  0.7750499968299741  0.14302396113973326  0.17182351331449558  1.0000
  C   C53       1.0  0.7826229565815949  0.15890911900778404  0.21448123927219429  1.0000
  C   C54       1.0  0.7649535975477763  0.16239529763636118  0.25266611978949644  1.0000
  H   H33       1.0  0.7118799541313796  0.12695526017633973  0.20067227264408274  1.0000
  H   H34       1.0  0.7431888334074177  0.1208790206729764  0.1329073440019364  1.0000
  H   H35       1.0  0.8024226948315799  0.16751974506787048  0.2187050062743439  1.0000
  H   H36       1.0  0.7711094193752361  0.17412053527748417  0.285915611326706  1.0000
  C   C55       1.0  0.8476865665394745  0.20972164168360372  0.4417760730794561  1.0000
  C   C56       1.0  0.8698876405489794  0.2290884346810955  0.43470128855569995  1.0000
  C   C57       1.0  0.8845825526035529  0.239869291844033  0.4744613818259853  1.0000
  C   C58       1.0  0.8767388079058742  0.23189635460324884  0.521446977704484  1.0000
  C   C59       1.0  0.8537268577906618  0.21412176227822652  0.5286209178341033  1.0000
  C   C60       1.0  0.8392923844374508  0.20281815074631715  0.4887988620040173  1.0000
  H   H37       1.0  0.8760169925513046  0.23508777176103007  0.39829467704022203  1.0000
  H   H38       1.0  0.9018968514204793  0.25428918433180747  0.4686032668981154  1.0000
  H   H39       1.0  0.8474163372710204  0.20829376472259298  0.56498842778257  1.0000
  H   H40       1.0  0.8219202080559999  0.18838940915613997  0.4945281595366845  1.0000
  C   C61       1.0  0.01435341287426084  0.2273775193681791  0.39532899201078403  1.0000
  C   C62       1.0  0.013690831093484013  0.26092458636997934  0.4062676374506651  1.0000
  C   C63       1.0  0.026651942016969965  0.2835205884107103  0.37689943092933925  1.0000
  C   C64       1.0  0.0403817084288709  0.27284098030217835  0.33630030323112636  1.0000
  C   C65       1.0  0.04111267181593248  0.23927162415609513  0.32496249273573047  1.0000
  C   C66       1.0  0.028004679608194305  0.21648608678700776  0.35448825620704233  1.0000
  H   H41       1.0  0.0034562082533300398  0.26965799294709575  0.43772954774930356  1.0000
  H   H42       1.0  0.02650825678797797  0.30921781407424903  0.3864871723289463  1.0000
  H   H43       1.0  0.05141053676583396  0.23091423133589783  0.2931522821033992  1.0000
  H   H44       1.0  0.028534208003255346  0.19053367633565085  0.34578501803522116  1.0000
  C   C67       1.0  0.028142110612795257  0.18895143441131126  0.08189605579867476  1.0000
  C   C68       1.0  0.033784521026865466  0.20626516713622167  0.12446370541479856  1.0000
  C   C69       1.0  0.05927552154085225  0.2068586085354504  0.14253792925439307  1.0000
  C   C70       1.0  0.07902659792120015  0.18995370683913476  0.11815589380192766  1.0000
  C   C71       1.0  0.07330042943989046  0.1722544320123167  0.07606392468853707  1.0000
  C   C72       1.0  0.047901074412852074  0.1719628607976185  0.05774485394636631  1.0000
  H   H45       1.0  0.018477177039182502  0.21921089079626951  0.14338066672748595  1.0000
  H   H46       1.0  0.06358545478557787  0.22016164445320197  0.17548321018335927  1.0000
  H   H47       1.0  0.08854483993744355  0.15917665211240145  0.057118168522594326  1.0000
  H   H48       1.0  0.043755604629949874  0.1589138538487402  0.024542627497384117  1.0000
  C   C73       1.0  0.9653248076215629  0.18325058815665218  0.7926192833133254  1.0000
  C   C74       1.0  0.9543288015459049  0.18750726701506915  0.7466178461314148  1.0000
  C   C75       1.0  0.9687384517963461  0.2024652134350166  0.7094964235799165  1.0000
  C   C76       1.0  0.9941454950209508  0.21320323438028238  0.7184717256426034  1.0000
  C   C77       1.0  0.004622957485887591  0.210425271987999  0.7650112281295096  1.0000
  C   C78       1.0  0.9902696141919938  0.1953856710543788  0.8019994385775179  1.0000
  H   H49       1.0  0.934928800094641  0.1784082574704561  0.7393148771777266  1.0000
  H   H50       1.0  0.9604119171455406  0.20490846481357902  0.673739364153707  1.0000
  H   H51       1.0  0.02404539463022326  0.21946130754948134  0.7722525690711065  1.0000
  H   H52       1.0  0.9986048619724358  0.19303518211100842  0.8375787526539293  1.0000
  C   C79       1.0  0.9183325154836282  0.0450162721741465  0.9776785321708172  1.0000
  C   C80       1.0  0.8980405297181576  0.029823712404159375  0.0029076997381916048  1.0000
  C   C81       1.0  0.8723037152199927  0.033632218557078764  0.9871495513817533  1.0000
  C   C82       1.0  0.8669572133850583  0.051917865828986276  0.9454295140857766  1.0000
  C   C83       1.0  0.8873845644578738  0.0657522682913072  0.918944964103093  1.0000
  C   C84       1.0  0.9130225542655555  0.06284784849779723  0.935559000245159  1.0000
  H   H53       1.0  0.9021715751267019  0.0161608184427815  0.03564231598109191  1.0000
  H   H54       1.0  0.8567192834990249  0.022935045350098715  0.007954141725075026  1.0000
  H   H55       1.0  0.8833293686165831  0.07984782470228224  0.8865699766661299  1.0000
  H   H56       1.0  0.9286679039100877  0.07455015333436177  0.9158651465059294  1.0000
  C   C85       1.0  0.5820328023040392  0.2481340887366192  0.24391365368522375  1.0000
  C   C86       1.0  0.5557276749386052  0.24193478010844086  0.2534225132774324  1.0000
  C   C87       1.0  0.5371208843337097  0.2452482771796143  0.216397854248277  1.0000
  C   C88       1.0  0.544736912538808  0.2553454716563261  0.17003158560181286  1.0000
  C   C89       1.0  0.570934078531537  0.26212267069545464  0.16083842465331089  1.0000
  C   C90       1.0  0.5895567537357425  0.2581569948941021  0.1975106827113508  1.0000
  H   H57       1.0  0.5498307957709903  0.23346076197369628  0.28875566298960165  1.0000
  H   H58       1.0  0.5169922282020918  0.23949758365694046  0.22369544202938435  1.0000
  H   H59       1.0  0.5769569358627874  0.26986399836032415  0.12510888110699772  1.0000
  H   H60       1.0  0.609863441021785  0.262822825470482  0.18987365052584174  1.0000
  C   C91       1.0  0.5190078021661838  0.18012769643206905  0.643231652977499  1.0000
  C   C92       1.0  0.522453890870203  0.1492074232085837  0.6219027564924225  1.0000
  C   C93       1.0  0.5322394557747943  0.14679435839866792  0.5744970070890305  1.0000
  C   C94       1.0  0.5386309067310504  0.17527826784045994  0.5484154733199332  1.0000
  C   C95       1.0  0.5349279488974235  0.2060731329148527  0.5697727352726081  1.0000
  C   C96       1.0  0.5252641436175607  0.20848280109512246  0.6170218447678882  1.0000
  H   H61       1.0  0.5174514166105924  0.12725767657082984  0.6418566470015223  1.0000
  H   H62       1.0  0.53483368273882  0.1228265352705531  0.558110712252401  1.0000
  H   H63       1.0  0.5389717958419274  0.22820145606920234  0.5499008616014645  1.0000
  H   H64       1.0  0.5224346193176844  0.23245229888658941  0.6332814629807295  1.0000
  C   C97       1.0  0.6708683046016545  0.24154561227720667  0.5198154876257979  1.0000
  C   C98       1.0  0.684807828290471  0.23966939315664845  0.563204870265945  1.0000
  C   C99       1.0  0.7029000947167938  0.2144276727519371  0.5704561726948737  1.0000
  C   C100      1.0  0.7078078090258024  0.1917066930789775  0.5336184439484536  1.0000
  C   C101      1.0  0.6939056926304108  0.1934833328467778  0.49006170328084975  1.0000
  C   C102      1.0  0.6750180971963734  0.21803144617444797  0.4835840092922718  1.0000
  H   H65       1.0  0.681627098280808  0.25780438134759365  0.5912873259339264  1.0000
  H   H66       1.0  0.713664957214138  0.21312792593929128  0.6040849001099793  1.0000
  H   H67       1.0  0.697520629627036  0.17569435044503676  0.46169263856357806  1.0000
  H   H68       1.0  0.6641239770064348  0.2191789699953632  0.45025096537684195  1.0000
  C   C103      1.0  0.24272512651344744  0.9810566904737051  0.8049307995390896  1.0000
  C   C104      1.0  0.24617069903757094  0.9825240767151209  0.754719446291745  1.0000
  C   C105      1.0  0.2694149577617397  0.9713854401098225  0.7337786995291095  1.0000
  C   C106      1.0  0.28907085218934586  0.9584022302516767  0.7630758705145816  1.0000
  C   C107      1.0  0.2853052922738808  0.9559942197918655  0.8130426773568946  1.0000
  C   C108      1.0  0.26222324814299125  0.9674083369239705  0.8339111582183713  1.0000
  H   H69       1.0  0.23098861429397757  0.9926647732189339  0.7320170086177629  1.0000
  H   H70       1.0  0.27204488298782126  0.9728291195364832  0.6950038272627611  1.0000
  H   H71       1.0  0.30034629646332367  0.9454873553653459  0.835686441560883  1.0000
  H   H72       1.0  0.25942727341013216  0.9650726754729936  0.8723197176764196  1.0000
  C   C109      1.0  0.2936862276723679  0.08623753721028837  0.032251812166965044  1.0000
  C   C110      1.0  0.3032471408262208  0.054044074262904696  0.03423051054067083  1.0000
  C   C111      1.0  0.3178411044418715  0.04366643040619178  0.07420750342777782  1.0000
  C   C112      1.0  0.32186660084692664  0.06504021334654908  0.11314059142752209  1.0000
  C   C113      1.0  0.312440713634721  0.09729680019624243  0.1111430738122845  1.0000
  C   C114      1.0  0.298723132606509  0.10807731480710525  0.0702566866163723  1.0000
  H   H73       1.0  0.2992403408238724  0.03700655463126079  0.0051515056707216456  1.0000
  H   H74       1.0  0.32498670384700556  0.018660380390256304  0.07585508890621817  1.0000
  H   H75       1.0  0.3154156907750889  0.11387193873385493  0.14128477842255993  1.0000
  H   H76       1.0  0.2910914361166344  0.132862651734744  0.06898479683199366  1.0000
  C   C115      1.0  0.12802768773346873  0.06699176518535976  0.9950996684071366  1.0000
  C   C116      1.0  0.10527754764948405  0.08104132048608292  0.013803227351240288  1.0000
  C   C117      1.0  0.08477953738060773  0.08972609720715163  0.9827366275638261  1.0000
  C   C118      1.0  0.08698325928757455  0.08430685525361725  0.9329093937941526  1.0000
  C   C119      1.0  0.10989933095188098  0.07068370566805937  0.9141826392765199  1.0000
  C   C120      1.0  0.13039257829884887  0.061986000733372126  0.9452256476678824  1.0000
  H   H77       1.0  0.1033909908994477  0.08505485141243407  0.0523598302642343  1.0000
  H   H78       1.0  0.0673365315227652  0.10059297425408209  0.9974281999743281  1.0000
  H   H79       1.0  0.11172305111376901  0.06653174936673611  0.8756645315062065  1.0000
  H   H80       1.0  0.14788452644588146  0.051121781469573024  0.9305776188032999  1.0000
  C   C121      1.0  0.769714783219244  0.8932483213259652  0.9970414214697368  1.0000
  C   C122      1.0  0.7549587081201968  0.9220427263542178  0.00011756933861262199  1.0000
  C   C123      1.0  0.7599747309334675  0.9450542776314864  0.036653460711017605  1.0000
  C   C124      1.0  0.7798857092707909  0.9395089214407275  0.07011243394140165  1.0000
  C   C125      1.0  0.7939853900267778  0.9100376149441199  0.06839987506639456  1.0000
  C   C126      1.0  0.7889593550497686  0.8869052290546057  0.03168816825909282  1.0000
  H   H81       1.0  0.7399139465171168  0.9269360103617785  0.9736526882121922  1.0000
  H   H82       1.0  0.7485153583867731  0.9673146818485634  0.038648814438367214  1.0000
  H   H83       1.0  0.8094832200577202  0.9057346292582795  0.09415372686759471  1.0000
  H   H84       1.0  0.8005286626862389  0.8647697579454731  0.029316071558200374  1.0000
  C   C127      1.0  0.766660938879947  0.6933787924247495  0.0703510283725064  1.0000
  C   C128      1.0  0.7918976082926632  0.7012836581331935  0.08542014331209914  1.0000
  C   C129      1.0  0.8019793630443716  0.6874457238759842  0.12808163900558495  1.0000
  C   C130      1.0  0.7867999070625601  0.665834890038246  0.15571361660683994  1.0000
  C   C131      1.0  0.7620016646726773  0.6569844544350494  0.13952047436640352  1.0000
  C   C132      1.0  0.7518894119608766  0.6708847407615302  0.09706937438834774  1.0000
  H   H85       1.0  0.803452400319254  0.718519696581096  0.0647387350765598  1.0000
  H   H86       1.0  0.8212354812905714  0.6942499399681478  0.140370773809134  1.0000
  H   H87       1.0  0.750471487947192  0.6396469311668519  0.15994513231345062  1.0000
  H   H88       1.0  0.7324370291345953  0.6645388703830799  0.08530672371120063  1.0000
  C   C133      1.0  0.9495151826560889  0.42759359507354167  0.6031187462233787  1.0000
  C   C134      1.0  0.9540312109425294  0.3965750915681059  0.6232502076959432  1.0000
  C   C135      1.0  0.9678882766399112  0.37282842236583974  0.596872362967947  1.0000
  C   C136      1.0  0.9773017935430441  0.3802038195088252  0.5506070678536  1.0000
  C   C137      1.0  0.9746001634839768  0.41208667732406246  0.5324373427646142  1.0000
  C   C138      1.0  0.9607254559557583  0.4357191355361237  0.5586275344235717  1.0000
  H   H89       1.0  0.9459162362922641  0.3904483074399554  0.6582290050090607  1.0000
  H   H90       1.0  0.9710290896647026  0.34881132889554284  0.6121830490402389  1.0000
  H   H91       1.0  0.9824616060981651  0.4183457613674762  0.49740846039912145  1.0000
  H   H92       1.0  0.9582663278708052  0.4600105057850364  0.5436332953894305  1.0000
  C   C139      1.0  0.8206526509280689  0.5352241748342045  0.4595437648594237  1.0000
  C   C140      1.0  0.7979324733027064  0.5361221835507428  0.4316016266306012  1.0000
  C   C141      1.0  0.7832950662717223  0.5651791209472725  0.42878445326450565  1.0000
  C   C142      1.0  0.791168892322255  0.5930654195473101  0.4546074563329387  1.0000
  C   C143      1.0  0.8129333512044432  0.5914591246990148  0.48495212624183526  1.0000
  C   C144      1.0  0.8278443764967638  0.5626726296976269  0.48700644161408174  1.0000
  H   H93       1.0  0.7922294654224977  0.514804658116005  0.41062671719569377  1.0000
  H   H94       1.0  0.7661794935976314  0.5661494649290637  0.40606905015346606  1.0000
  H   H95       1.0  0.8189968619476139  0.6130066005981738  0.5050679960856407  1.0000
  H   H96       1.0  0.8452970708060058  0.5621302163816899  0.5088011424821723  1.0000
  C   C145      1.0  0.987986349885553  0.6306675459457872  0.651495961114861  1.0000
  C   C146      1.0  0.9861614602794009  0.6134334145983034  0.6077938636182558  1.0000
  C   C147      1.0  0.9618812049947095  0.6094292561256579  0.5853308079121562  1.0000
  C   C148      1.0  0.9394675625307505  0.6224586453204373  0.6067264238366441  1.0000
  C   C149      1.0  0.941593622134666  0.6414101422832434  0.648769945595818  1.0000
  C   C150      1.0  0.9658271453193066  0.6454656003027004  0.6711783494511999  1.0000
  H   H97       1.0  0.0033478658235643888  0.6024423116738303  0.5920833172382511  1.0000
  H   H98       1.0  0.9604870688436051  0.5962203571633308  0.5515192333423392  1.0000
  H   H99       1.0  0.9244378429129194  0.652094760907361  0.6648894542850199  1.0000
  H   H100      1.0  0.9672600359329209  0.6597543256304261  0.704061125179369  1.0000
  C   C151      1.0  0.912057704334066  0.7137573134462384  0.8612085340544314  1.0000
  C   C152      1.0  0.9232278403476327  0.7121528574524932  0.9073965244516572  1.0000
  C   C153      1.0  0.9122173082850156  0.7300255545469369  0.9458703732393334  1.0000
  C   C154      1.0  0.8897613687753482  0.7488286837879966  0.9381840819597633  1.0000
  C   C155      1.0  0.878800984781066  0.7503293725997813  0.8919836854687433  1.0000
  C   C156      1.0  0.8900695783673959  0.7332048814291886  0.8535753274320623  1.0000
  H   H101      1.0  0.9400716152045231  0.6969642806360815  0.9136444804610039  1.0000
  H   H102      1.0  0.9205598002001485  0.7285648023470251  0.9817715486280891  1.0000
  H   H103      1.0  0.8616245518848673  0.7648475563093052  0.8855977386238535  1.0000
  H   H104      1.0  0.8816115894417558  0.7351735289679454  0.817953362231959  1.0000
  C   C157      1.0  0.2010279195434018  0.854754263900302  0.003632976621014139  1.0000
  C   C158      1.0  0.2280785232866641  0.85245514311982  0.008219863274983696  1.0000
  C   C159      1.0  0.24251989300433932  0.879649881524584  0.024424259653656577  1.0000
  C   C160      1.0  0.22996962042507504  0.9093370148658957  0.03507600975448821  1.0000
  C   C161      1.0  0.20289534434024203  0.9113268738721158  0.031655281418271564  1.0000
  C   C162      1.0  0.18843638103541344  0.8839937490964278  0.016356675673916854  1.0000
  H   H105      1.0  0.2379917536525015  0.8299953809783185  0.9989314039174408  1.0000
  H   H106      1.0  0.26348916946145423  0.8780734812866774  0.027042005463660868  1.0000
  H   H107      1.0  0.1930404098163632  0.9339797552451485  0.040845883505570946  1.0000
  H   H108      1.0  0.16749215044756102  0.8858461082789798  0.013257873197203063  1.0000
  C   C163      1.0  0.1322891545303364  0.6890060418468434  0.8780464277148019  1.0000
  C   C164      1.0  0.11382243386983659  0.672803981810329  0.8495134540639635  1.0000
  C   C165      1.0  0.08737541468242127  0.6802821142164226  0.8542272733387088  1.0000
  C   C166      1.0  0.07911278925174248  0.7033449141015262  0.8883838935624422  1.0000
  C   C167      1.0  0.0976392050937287  0.7200994819272523  0.9164322358306491  1.0000
  C   C168      1.0  0.12427467930163938  0.7131501328756955  0.910970662237812  1.0000
  H   H109      1.0  0.1199862964878744  0.6544189832789163  0.8235868417623468  1.0000
  H   H110      1.0  0.07348839079224412  0.6682927571956474  0.8310348800001385  1.0000
  H   H111      1.0  0.09139353965021879  0.7382530522196151  0.9425893611238813  1.0000
  H   H112      1.0  0.1385137734510442  0.7258542328906462  0.9329718615933981  1.0000
  C   C169      1.0  0.5388623021178305  0.41055309599749323  0.3276372685601048  1.0000
  C   C170      1.0  0.5188333828442471  0.41148362728932186  0.36184936180375166  1.0000
  C   C171      1.0  0.5167211102403853  0.38646165175331065  0.3965625613529056  1.0000
  C   C172      1.0  0.5346031925450456  0.36049766124771077  0.39704465089225965  1.0000
  C   C173      1.0  0.5542490731266165  0.3592826568066703  0.362181557258501  1.0000
  C   C174      1.0  0.5564960095552263  0.3843722969180347  0.3277316057010036  1.0000
  H   H113      1.0  0.5046677348751967  0.43111501013724507  0.3609951042042203  1.0000
  H   H114      1.0  0.5012553171010751  0.3872756787236386  0.4230881380782774  1.0000
  H   H115      1.0  0.5677901215177438  0.33909819051389534  0.36164269040592417  1.0000
  H   H116      1.0  0.5719831123832338  0.38351247564898877  0.3012433817502976  1.0000
  C   C175      1.0  0.6070674846317864  0.593423835077743  0.26537969744598483  1.0000
  C   C176      1.0  0.6149521547110576  0.5606045472040356  0.26278296311779314  1.0000
  C   C177      1.0  0.6412173302872911  0.5524019633848151  0.267966970749797  1.0000
  C   C178      1.0  0.6597727353337618  0.5770508769223913  0.2751815405548652  1.0000
  C   C179      1.0  0.6521446469992873  0.6101375736883065  0.27536964616782655  1.0000
  C   C180      1.0  0.6257209868788632  0.6183457612727661  0.2703451948818971  1.0000
  H   H117      1.0  0.6007828981591489  0.5414212519153939  0.2567291553971436  1.0000
  H   H118      1.0  0.6471343991880509  0.5268613242326884  0.26705807038362306  1.0000
  H   H119      1.0  0.6664815451630757  0.6292955425337811  0.28065931442489167  1.0000
  H   H120      1.0  0.6197112911894614  0.6438119669601937  0.2721566316974526  1.0000
  C   C181      1.0  0.3195455216346738  0.7890556742607095  0.5274451333756476  1.0000
  C   C182      1.0  0.30757185848056556  0.8199229417501619  0.5253327335955025  1.0000
  C   C183      1.0  0.3225898755173193  0.8486338627586479  0.5291922805156263  1.0000
  C   C184      1.0  0.34958590455856436  0.8464433065913457  0.5347363355027771  1.0000
  C   C185      1.0  0.3616012729083772  0.8155808228928663  0.5352118166378672  1.0000
  C   C186      1.0  0.34658122781606565  0.7868960808210655  0.5318525256198023  1.0000
  H   H121      1.0  0.28667410995497844  0.8216686842881298  0.5215142022831165  1.0000
  H   H122      1.0  0.31329210956722336  0.8724321498964024  0.5275796246787616  1.0000
  H   H123      1.0  0.38249757456976025  0.8138319201074303  0.5392296625588131  1.0000
  H   H124      1.0  0.3559922975610502  0.7631412784772305  0.5325692861163486  1.0000
  C   C187      1.0  0.30849087737485487  0.693955534810151  0.7373220817676527  1.0000
  C   C188      1.0  0.30443734285547736  0.6984836774373157  0.7869437997806354  1.0000
  C   C189      1.0  0.2888561268258172  0.7245006376859748  0.8033560663336369  1.0000
  C   C190      1.0  0.2769955363794289  0.7457295513751964  0.7701667169762856  1.0000
  C   C191      1.0  0.28118896945029737  0.7413128294792074  0.7205457296011268  1.0000
  C   C192      1.0  0.2970817029139726  0.7156101112612361  0.7041438590256347  1.0000
  H   H125      1.0  0.3133762169522282  0.6819542301390009  0.8126922482317945  1.0000
  H   H126      1.0  0.28621123880052474  0.7282875402542228  0.841756882688768  1.0000
  H   H127      1.0  0.2716929648877339  0.7572484778931082  0.6947281799845901  1.0000
  H   H128      1.0  0.3000250251250004  0.7121996179852133  0.6657667010994339  1.0000
  C   C193      1.0  0.20800420834872424  0.640041471718897  0.08673426522240657  1.0000
  C   C194      1.0  0.22875915485070022  0.6531723715341988  0.11339041036772302  1.0000
  C   C195      1.0  0.2481583563017505  0.6714479273441957  0.08982891833881479  1.0000
  C   C196      1.0  0.24663047037346597  0.6764644311183501  0.03980651166961935  1.0000
  C   C197      1.0  0.22653236107815253  0.6621313713760644  0.013141921743040186  1.0000
  C   C198      1.0  0.20715963017792102  0.6441530001636778  0.03658089693110744  1.0000
  H   H129      1.0  0.2294352640597852  0.6500754208564515  0.15225889929122394  1.0000
  H   H130      1.0  0.26372407985788837  0.6826041433419033  0.11052364433539008  1.0000
  H   H131      1.0  0.2255607547724674  0.6654376418757194  0.9743102623170206  1.0000
  H   H132      1.0  0.19147739856348706  0.6337016967713841  0.015638547931305258  1.0000
  C   C199      1.0  0.28016853550039866  0.6278933186511604  0.35556160694006095  1.0000
  C   C200      1.0  0.27025510311908585  0.602029015404777  0.3833400958087461  1.0000
  C   C201      1.0  0.2838041148951347  0.5909006191964421  0.4242675150890608  1.0000
  C   C202      1.0  0.3069411097221249  0.60628834199757  0.43843165935701167  1.0000
  C   C203      1.0  0.31697773258879763  0.6320462034100932  0.4105514748864159  1.0000
  C   C204      1.0  0.303691347903889  0.6426857879744495  0.36904734561701263  1.0000
  H   H133      1.0  0.2519292041572566  0.5909236735115756  0.37408265875458574  1.0000
  H   H134      1.0  0.27587688951611977  0.5711143325991425  0.44594966464346997  1.0000
  H   H135      1.0  0.3351044980042582  0.6436079549218676  0.4206573014930621  1.0000
  H   H136      1.0  0.3115727228023437  0.6626143293351633  0.3476011311064356  1.0000
  C   C205      1.0  0.4274753041347402  0.3971240076439435  0.12052337570857197  1.0000
  C   C206      1.0  0.4433952422952016  0.3693396630449978  0.11570909010691532  1.0000
  C   C207      1.0  0.4336205242390357  0.33788735476322  0.12681712798155775  1.0000
  C   C208      1.0  0.40811157808964915  0.3342755682488404  0.14370913483316627  1.0000
  C   C209      1.0  0.3920266644996597  0.3619016915270922  0.146982023143166  1.0000
  C   C210      1.0  0.40160751296652936  0.39313527571278534  0.1349923658417036  1.0000
  H   H137      1.0  0.46315719252946186  0.37214505042365825  0.1030879575368675  1.0000
  H   H138      1.0  0.44578342039250124  0.3164370359460641  0.12246448651215291  1.0000
  H   H139      1.0  0.3721470354390366  0.3593443178758532  0.15912678171448724  1.0000
  H   H140      1.0  0.38886967084481894  0.4140931689194778  0.13736204794791007  1.0000
  C   C211      1.0  0.2887559515094179  0.4548374160974419  0.15224685716520217  1.0000
  C   C212      1.0  0.2741530271579473  0.4326675528787742  0.17973968180389766  1.0000
  C   C213      1.0  0.2532952865131001  0.4438800098763783  0.2077147870081166  1.0000
  C   C214      1.0  0.24661625315756514  0.4771923243655721  0.2074760157964189  1.0000
  C   C215      1.0  0.26063018121691783  0.4992534875361543  0.1786502189155585  1.0000
  C   C216      1.0  0.2819416114886106  0.4881586771844933  0.15142829285894063  1.0000
  H   H141      1.0  0.2793063974249991  0.40686396617578396  0.18011066848785906  1.0000
  H   H142      1.0  0.24247447380729126  0.42670707418773784  0.22983899255179166  1.0000
  H   H143      1.0  0.25509499840761013  0.5247572052648886  0.17725571625327163  1.0000
  H   H144      1.0  0.29285783659903786  0.5051906497169587  0.12933396301230862  1.0000
  C   C217      1.0  0.4024453010190003  0.5690711692176671  0.25683286487138857  1.0000
  C   C218      1.0  0.4009399988163705  0.5900617212356608  0.2968422203391403  1.0000
  C   C219      1.0  0.42033790954673605  0.5894812599583029  0.3323252935738325  1.0000
  C   C220      1.0  0.44156563018386197  0.5682501475041195  0.32767069742832244  1.0000
  C   C221      1.0  0.44336573146317015  0.547442674047662  0.28738867407747504  1.0000
  C   C222      1.0  0.4236474061168787  0.5476883831680343  0.25201699858217647  1.0000
  H   H145      1.0  0.38463774801512746  0.6067129005884893  0.3005177440386096  1.0000
  H   H146      1.0  0.41891078858545583  0.6057058308369819  0.36323447590043545  1.0000
  H   H147      1.0  0.4596356502074066  0.5307699367243733  0.2838800618370636  1.0000
  H   H148      1.0  0.42481011002037883  0.5313324514284311  0.2211690612685508  1.0000
  C   C223      1.0  0.5078775848795036  0.5346853186496942  0.5889224234087436  1.0000
  C   C224      1.0  0.5335870846530674  0.5318082717549858  0.6051153999479294  1.0000
  C   C225      1.0  0.5540542761449804  0.5306258158205778  0.571529031557973  1.0000
  C   C226      1.0  0.5486951200607336  0.5326666431653105  0.5219426351425304  1.0000
  C   C227      1.0  0.5230612032752  0.5368382716190983  0.5062049554358135  1.0000
  C   C228      1.0  0.502660895367045  0.5372925991662721  0.5395269638903084  1.0000
  H   H149      1.0  0.5376095645394341  0.5297415830474063  0.6434168997322066  1.0000
  H   H150      1.0  0.5738895801818045  0.5278036825810686  0.5839824795897742  1.0000
  H   H151      1.0  0.5187858222023944  0.5396995331320598  0.4683279556322323  1.0000
  H   H152      1.0  0.4828578395320496  0.539752400590065  0.5270181838471932  1.0000
  C   C229      1.0  0.44956834677615526  0.5182813956942779  0.8927312977580988  1.0000
  C   C230      1.0  0.434108266392661  0.4955988501361503  0.9176656206889022  1.0000
  C   C231      1.0  0.41227435540087914  0.506249926772504  0.9435185196878753  1.0000
  C   C232      1.0  0.40541086589459774  0.539499037972041  0.9435920296068723  1.0000
  C   C233      1.0  0.4200544566571706  0.5620196311342504  0.9165341153743093  1.0000
  C   C234      1.0  0.4422647305077293  0.5514430465144028  0.891315177334103  1.0000
  H   H153      1.0  0.43922099375408563  0.4697914158458322  0.9177336221235672  1.0000
  H   H154      1.0  0.400720508671437  0.4886214425476313  0.963284765976789  1.0000
  H   H155      1.0  0.41490045960945665  0.587812315834415  0.9167827230550655  1.0000
  H   H156      1.0  0.45424066535529606  0.5690883050940173  0.8722777964969269  1.0000
  C   C235      1.0  0.45458952144876735  0.6646760365466646  0.707526271138954  1.0000
  C   C236      1.0  0.43658402614337904  0.6900437214667234  0.7005342510196834  1.0000
  C   C237      1.0  0.4262896023965559  0.695946371841389  0.654247109434108  1.0000
  C   C238      1.0  0.43500619151970277  0.6775707944138428  0.6145982090661536  1.0000
  C   C239      1.0  0.4535790400958932  0.652990017860633  0.6213338686119405  1.0000
  C   C240      1.0  0.4626658918277707  0.6459095136171985  0.6678340005083968  1.0000
  H   H157      1.0  0.430114263568646  0.7046124727307138  0.7310295558444072  1.0000
  H   H158      1.0  0.41185509423187683  0.7149865859373787  0.6491124042534674  1.0000
  H   H159      1.0  0.4602521532223514  0.6385047305481216  0.590950480134415  1.0000
  H   H160      1.0  0.4755114113568345  0.6254459381181781  0.6726874705797172  1.0000
  C   C241      1.0  0.07064830189617655  0.3868714005176705  0.09374151828186306  1.0000
  C   C242      1.0  0.09210969706967131  0.38448942330312036  0.06284746736013935  1.0000
  C   C243      1.0  0.11591346900008137  0.3726606650843189  0.08055216702460567  1.0000
  C   C244      1.0  0.11792873518817948  0.36227069032034054  0.12866439321843814  1.0000
  C   C245      1.0  0.0963573994717064  0.36439582032462  0.15933612395346836  1.0000
  C   C246      1.0  0.07290373063497202  0.377397373289612  0.1421859835709733  1.0000
  H   H161      1.0  0.09046443023256989  0.392375845691666  0.025565348404228416  1.0000
  H   H162      1.0  0.13259428525941463  0.3709966664229676  0.05681569007151244  1.0000
  H   H163      1.0  0.09786196288078708  0.35650062457072984  0.19664088889187878  1.0000
  H   H164      1.0  0.05638295138694227  0.3794566773332395  0.1662383868494797  1.0000
  C   C247      1.0  0.9589399938641574  0.49830166123094394  0.27125591924029757  1.0000
  C   C248      1.0  0.9381396882261828  0.50813472257159  0.30066780954967653  1.0000
  C   C249      1.0  0.9416153503166192  0.5108551387841268  0.35107343037948685  1.0000
  C   C250      1.0  0.9658824220483516  0.5037436833561261  0.3716172850051783  1.0000
  C   C251      1.0  0.986246143189628  0.4929939593415401  0.34232117733203266  1.0000
  C   C252      1.0  0.9828014235451514  0.49034628351189985  0.2924319460011257  1.0000
  H   H165      1.0  0.9195663712519029  0.5140725326107054  0.284475541533478  1.0000
  H   H166      1.0  0.9257586453921594  0.5190074958480702  0.3738001274718977  1.0000
  H   H167      1.0  0.004891506367995735  0.4871112902316945  0.3580857925521343  1.0000
  H   H168      1.0  0.9988523958362658  0.48244383547824177  0.27043049317572565  1.0000
  C   C253      1.0  0.04264289857944581  0.561667334663727  0.0280246500979533  1.0000
  C   C254      1.0  0.03849057310970494  0.5907148737438114  0.002039327513410294  1.0000
  C   C255      1.0  0.024969250423118927  0.5897584288736117  0.9579438883252037  1.0000
  C   C256      1.0  0.015381699544035454  0.5598220450982622  0.9402136030607021  1.0000
  C   C257      1.0  0.02106627506806391  0.5306103813883809  0.9646460046844494  1.0000
  C   C258      1.0  0.0350030376648065  0.5315234729583052  0.008202594834392007  1.0000
  H   H169      1.0  0.04452453890754793  0.6140975040866571  0.01705062183373918  1.0000
  H   H170      1.0  0.02110578841809385  0.6123564632566063  0.9387697025814165  1.0000
  H   H171      1.0  0.014284200208032116  0.5073151842725805  0.9504003146185271  1.0000
  H   H172      1.0  0.03958214907476054  0.5088558387580137  0.026672927693354165  1.0000
  C   C259      1.0  0.09049039354192678  0.5016314403666405  0.30083738772973967  1.0000
  C   C260      1.0  0.10039957038052272  0.5052046324434432  0.3477073818503107  1.0000
  C   C261      1.0  0.11522170511063701  0.5329614574353169  0.3597706065685342  1.0000
  C   C262      1.0  0.1208000940878408  0.5566232750545653  0.3245562784374089  1.0000
  C   C263      1.0  0.11137275667956102  0.5526623335067613  0.2773542523363752  1.0000
  C   C264      1.0  0.09595200929565427  0.5253292178696005  0.2656065354346266  1.0000
  H   H173      1.0  0.09634768421760252  0.48672770299009716  0.37486476031802834  1.0000
  H   H174      1.0  0.12271230935745243  0.535880581094772  0.39615537098544346  1.0000
  H   H175      1.0  0.11553405703012308  0.5710691637604889  0.25014193912536337  1.0000
  H   H176      1.0  0.08838466976469261  0.5226151204109247  0.2292664932895858  1.0000
  C   C265      1.0  0.6105614507298444  0.8385947755860174  0.6576660360731457  1.0000
  C   C266      1.0  0.6067000909755175  0.8716736234183275  0.6457214402756007  1.0000
  C   C267      1.0  0.6179307203800245  0.8964814461711714  0.6742857671625176  1.0000
  C   C268      1.0  0.6323669975264564  0.8881480414999317  0.7154499519521147  1.0000
  C   C269      1.0  0.6349319381277614  0.8551219689357961  0.728787306596625  1.0000
  C   C270      1.0  0.6243779218599866  0.8303424434835877  0.6995322731232104  1.0000
  H   H177      1.0  0.595759083388541  0.8780851053768889  0.613613047148558  1.0000
  H   H178      1.0  0.6152057349570467  0.922014421041399  0.6647144605492201  1.0000
  H   H179      1.0  0.6454907038280645  0.8486135588203028  0.7611829907362506  1.0000
  H   H180      1.0  0.626858408669175  0.8048060860367499  0.7094784308544719  1.0000
  C   C271      1.0  0.7112519346369124  0.7247587662348535  0.7714311375369267  1.0000
  C   C272      1.0  0.7217613020996275  0.7207739694316402  0.8177020006603205  1.0000
  C   C273      1.0  0.7482581556824387  0.7262220881113511  0.8256940626566303  1.0000
  C   C274      1.0  0.7641847480410521  0.7368950915900637  0.7879171971093804  1.0000
  C   C275      1.0  0.7538763621622934  0.7401859599479167  0.7412325023840817  1.0000
  C   C276      1.0  0.7273420116961318  0.7340709949829879  0.7329501878490665  1.0000
  H   H181      1.0  0.7093872868278109  0.7140649530656586  0.8477365716103645  1.0000
  H   H182      1.0  0.7563358404625831  0.7223934038044758  0.861360500483072  1.0000
  H   H183      1.0  0.7661513609134235  0.7484560948919775  0.7118495558775361  1.0000
  H   H184      1.0  0.7193033124875821  0.737172635544081  0.6970283925632879  1.0000
  C   C277      1.0  0.7087851889373988  0.760035494316729  0.4785667277801891  1.0000
  C   C278      1.0  0.6960216033441055  0.7309896932652477  0.4652932586569165  1.0000
  C   C279      1.0  0.6938752356050705  0.7223877267244587  0.4162564648838264  1.0000
  C   C280      1.0  0.7038085011300971  0.7432901427027163  0.3804965000551632  1.0000
  C   C281      1.0  0.7158290885892904  0.7728398461760954  0.3937369388167309  1.0000
  C   C282      1.0  0.7186648200180253  0.7809679724050173  0.4427944978031468  1.0000
  H   H185      1.0  0.688531596259069  0.7146587823582243  0.4928527557558948  1.0000
  H   H186      1.0  0.6845589155001899  0.6995595071871783  0.40609734148353194  1.0000
  H   H187      1.0  0.7237739161820133  0.7888361462076794  0.3662038491359884  1.0000
  H   H188      1.0  0.7287201860183548  0.8032971235909053  0.4529646143121208  1.0000
  C   C283      1.0  0.6117714970629069  0.6273924448049658  0.6282269320878784  1.0000
  C   C284      1.0  0.5915369793267196  0.6042929954495443  0.6279919161983094  1.0000
  C   C285      1.0  0.5830687148384319  0.590243690276466  0.6717278653415989  1.0000
  C   C286      1.0  0.5948257741734235  0.5993144286976275  0.7154935064330167  1.0000
  C   C287      1.0  0.6153768692232324  0.621733587570168  0.7152472938308245  1.0000
  C   C288      1.0  0.6241181753364347  0.6353781566884232  0.6717592440045049  1.0000
  H   H189      1.0  0.5819649009307147  0.597886645330897  0.5943586997268788  1.0000
  H   H190      1.0  0.5674362871121306  0.5724925917531893  0.671622241505759  1.0000
  H   H191      1.0  0.6237017575691656  0.6297092411063124  0.748966638606031  1.0000
  H   H192      1.0  0.639934591901445  0.6528867635722486  0.6721548251459687  1.0000
  N   N1        1.0  0.4065671290894689  0.09877886446320172  0.18462508166891434  1.0000
  C   C289      1.0  0.40893836672945616  0.07453322577306332  0.14495329438370663  1.0000
  C   C290      1.0  0.38660715496387343  0.12337423347764487  0.1716076249223193  1.0000
  C   C291      1.0  0.43185739403081047  0.11536826145414159  0.19200633426399305  1.0000
  C   C292      1.0  0.398841588096097  0.08193670471405912  0.22982014974880527  1.0000
  H   H193      1.0  0.4238771324946781  0.05558691549087036  0.15322956338324856  1.0000
  H   H194      1.0  0.41456208733161143  0.08670438815292236  0.11031470787403208  1.0000
  H   H195      1.0  0.3901685755514511  0.06156670759675675  0.13835201668303054  1.0000
  H   H196      1.0  0.3918328424606462  0.13669831622813833  0.13782303727172374  1.0000
  H   H197      1.0  0.36739860333729113  0.11152447598813264  0.16503954797499798  1.0000
  H   H198      1.0  0.3841121553295319  0.1419719306100109  0.20077872870872637  1.0000
  H   H199      1.0  0.438441664224635  0.1279084384048086  0.1584005499773955  1.0000
  H   H200      1.0  0.447308462350603  0.09761229073739397  0.20253443035017926  1.0000
  H   H201      1.0  0.4306993175419097  0.13426735769296916  0.22106649863917682  1.0000
  H   H202      1.0  0.39688033624743335  0.09965738630745125  0.2603874657785128  1.0000
  H   H203      1.0  0.41339252028159396  0.06310739424781375  0.2407129497575451  1.0000
  H   H204      1.0  0.37978855781683984  0.06922272357697623  0.22564458112807673  1.0000
  N   N2        1.0  0.03632146525475921  0.5711097901333002  0.3806631293154452  1.0000
  C   C293      1.0  0.0316302924589531  0.5896828225933132  0.42585333769018213  1.0000
  C   C294      1.0  0.012659832669615456  0.5719350456154519  0.35022412263209896  1.0000
  C   C295      1.0  0.04273864085720924  0.536639202788363  0.39270389392722355  1.0000
  C   C296      1.0  0.05822623136066052  0.586073045094223  0.3539070837771488  1.0000
  H   H205      1.0  0.049110218689740304  0.5895456890063693  0.449700491737889  1.0000
  H   H206      1.0  0.015214172370224155  0.578810840715873  0.44688211661876526  1.0000
  H   H207      1.0  0.026613923857167432  0.6158051226138528  0.41826580545892533  1.0000
  H   H208      1.0  0.9955459555370627  0.5619688474496833  0.37004822451500324  1.0000
  H   H209      1.0  0.007734720850395949  0.5974557867364079  0.3390200984614598  1.0000
  H   H210      1.0  0.015077308913790333  0.5569212112115283  0.31674914327512177  1.0000
  H   H211      1.0  0.04557591399659566  0.5215906765212588  0.3594133300798775  1.0000
  H   H212      1.0  0.026955022829546316  0.5248993879329134  0.41420926913695433  1.0000
  H   H213      1.0  0.06095000800515704  0.5350194724306042  0.41438600592508024  1.0000
  H   H214      1.0  0.0541785354788582  0.6121176205726495  0.34416236070308  1.0000
  H   H215      1.0  0.062226865218093286  0.5724923510683189  0.31969252060967773  1.0000
  H   H216      1.0  0.07649230361943826  0.5858323040274256  0.37566458979746503  1.0000
  N   N3        1.0  0.7748850541480239  0.04306949009143102  0.2470816942717668  1.0000
  C   C297      1.0  0.7879478187054505  0.03414839729325392  0.2929131951996586  1.0000
  C   C298      1.0  0.769452423837327  0.012892888023212867  0.2189029087268414  1.0000
  C   C299      1.0  0.7919625126235365  0.06504524216714191  0.21868708368838055  1.0000
  C   C300      1.0  0.7501943503354418  0.06019517447342526  0.2578165629824571  1.0000
  H   H217      1.0  0.7927336148839742  0.0563202935062852  0.31481107846037537  1.0000
  H   H218      1.0  0.806444464837424  0.020703109120388863  0.2863308189478025  1.0000
  H   H219      1.0  0.7754049851324789  0.01819012021597266  0.31592483832956064  1.0000
  H   H220      1.0  0.7567189763571921  0.995628172789212  0.23924389295980436  1.0000
  H   H221      1.0  0.7595712591192103  0.018582537455724024  0.18402309215260593  1.0000
  H   H222      1.0  0.7876871148647984  0.9994843603163551  0.20972964356035037  1.0000
  H   H223      1.0  0.7827204542581616  0.07216713463359947  0.18381685304410797  1.0000
  H   H224      1.0  0.8107998902538376  0.05302299637276686  0.2098301998970093  1.0000
  H   H225      1.0  0.7962822489550784  0.0882510098850402  0.2386394080174127  1.0000
  H   H226      1.0  0.736911162252238  0.044585339156976156  0.27978757711012076  1.0000
  H   H227      1.0  0.7397328393392782  0.06706580209681312  0.22399504819861865  1.0000
  H   H228      1.0  0.7536043648902853  0.08330466080507759  0.2785724736385616  1.0000
  N   N4        1.0  0.12276351200525758  0.6188558844375438  0.9981788107928632  1.0000
  C   C301      1.0  0.14393845503888125  0.5953342981758509  0.987690389560543  1.0000
  C   C302      1.0  0.10890376683277923  0.608291538669567  0.042356258109142564  1.0000
  C   C303      1.0  0.104425056383596  0.6196777326013954  0.956904929110937  1.0000
  C   C304      1.0  0.13389017398588515  0.6520062364224737  0.00580776792261517  1.0000
  H   H229      1.0  0.13614715712204895  0.5702850057055976  0.9801948120186974  1.0000
  H   H230      1.0  0.15757022656509115  0.593214829158492  0.01893632346310592  1.0000
  H   H231      1.0  0.1554473757902971  0.6031752929958527  0.9554985833520656  1.0000
  H   H232      1.0  0.12206270540343614  0.608027492420552  0.07446361065411744  1.0000
  H   H233      1.0  0.09226907187755938  0.6248100070030708  0.050824989931569586  1.0000
  H   H234      1.0  0.10092876427292284  0.582973743147327  0.03824556724532591  1.0000
  H   H235      1.0  0.0888220165312914  0.6383142577458774  0.962388078954572  1.0000
  H   H236      1.0  0.09473878219822994  0.5954357661856597  0.9514530147910858  1.0000
  H   H237      1.0  0.11461267100487738  0.6260657873030788  0.9226433086458754  1.0000
  H   H238      1.0  0.11838470595740799  0.6706535621380505  0.011776958323817643  1.0000
  H   H239      1.0  0.14542370743349586  0.6601068110206992  0.9738326201230515  1.0000
  H   H240      1.0  0.14708017248616287  0.6524818255493006  0.037816103677157376  1.0000
  N   N5        1.0  0.1503812448748734  0.4472127380887525  0.21256289614609203  1.0000
  C   C305      1.0  0.15339517319460588  0.45373772762346765  0.2649182648522625  1.0000
  C   C306      1.0  0.17028776541819682  0.4232899628702517  0.19673298042304058  1.0000
  C   C307      1.0  0.15353487591892526  0.4782162253552328  0.18528825127802917  1.0000
  C   C308      1.0  0.12421121335110233  0.43360542566793414  0.2032948515464816  1.0000
  H   H241      1.0  0.13891843280474947  0.4720490558182533  0.27786444638087304  1.0000
  H   H242      1.0  0.17302005482846014  0.4637384702071958  0.2733913564449349  1.0000
  H   H243      1.0  0.15073737110061614  0.4309184938235098  0.28657236113106993  1.0000
  H   H244      1.0  0.1683266761354766  0.4174174231115103  0.15750256249895822  1.0000
  H   H245      1.0  0.19032824055169617  0.4328915364359016  0.20286422411764138  1.0000
  H   H246      1.0  0.16848275207540772  0.39957109768150406  0.21661049595648477  1.0000
  H   H247      1.0  0.15100895218034005  0.4742108765981043  0.14570846348863334  1.0000
  H   H248      1.0  0.17324806635102621  0.48889578924615823  0.19091610504100073  1.0000
  H   H249      1.0  0.13905319142476186  0.49698675419750077  0.19690302825445422  1.0000
  H   H250      1.0  0.12111142854906212  0.42868436805099897  0.16406836998253688  1.0000
  H   H251      1.0  0.10874763443897927  0.45087080473982777  0.21521968577811929  1.0000
  H   H252      1.0  0.12121164805096901  0.4100421085562479  0.2230067958264199  1.0000
  N   N6        1.0  0.49729913382121965  0.6507205362339559  0.29104665444929323  1.0000
  C   C309      1.0  0.49612859705103296  0.6169650675121615  0.27135514965792423  1.0000
  C   C310      1.0  0.48606094996266574  0.6738614391397014  0.2555083764053114  1.0000
  C   C311      1.0  0.5247142287578835  0.6596717810746145  0.3006688842805199  1.0000
  C   C312      1.0  0.48230260169112354  0.6521805407057191  0.3366488112046512  1.0000
  H   H253      1.0  0.5085163366600944  0.6141893844045406  0.23853509470299747  1.0000
  H   H254      1.0  0.4758754938586952  0.6096796740628351  0.26176303752663543  1.0000
  H   H255      1.0  0.5031679873890429  0.5989473426795285  0.29846801625930935  1.0000
  H   H256      1.0  0.48676979014615845  0.6996523318373304  0.2690403555618524  1.0000
  H   H257      1.0  0.4968674154059876  0.6730342181075785  0.2205938537522549  1.0000
  H   H258      1.0  0.46534374179152266  0.6678024181708928  0.24761447286182714  1.0000
  H   H259      1.0  0.526455574450254  0.6848522350617531  0.3161213553943873  1.0000
  H   H260      1.0  0.5366312050577889  0.6588219019532886  0.2669960903243786  1.0000
  H   H261      1.0  0.5339676155990076  0.6422608023130982  0.3265997027930557  1.0000
  H   H262      1.0  0.4823014850331305  0.6774057449721591  0.3523095342885923  1.0000
  H   H263      1.0  0.4905715134893971  0.6352335914303897  0.3643869702649378  1.0000
  H   H264      1.0  0.4617048875764795  0.6445753919573296  0.3308945220131134  1.0000
  N   N7        1.0  0.6363876502841953  0.5958952887285792  0.44524640092408735  1.0000
  C   C313      1.0  0.6392119190232615  0.6089756627672169  0.39563666331368813  1.0000
  C   C314      1.0  0.6567081274719779  0.6102993635253225  0.4767407287723157  1.0000
  C   C315      1.0  0.639178009581822  0.5597111341338801  0.4440949773298481  1.0000
  C   C316      1.0  0.6104264400932871  0.6045126806243097  0.46439645399744967  1.0000
  H   H265      1.0  0.6240878868708679  0.5987244594162429  0.3709689267365312  1.0000
  H   H266      1.0  0.6585024356179691  0.6024805428775922  0.37990699947201567  1.0000
  H   H267      1.0  0.6375065004929921  0.6362636332006899  0.39485836448098105  1.0000
  H   H268      1.0  0.6550383838203582  0.6011136146546331  0.5145913203228955  1.0000
  H   H269      1.0  0.6766007393373653  0.6043811274701891  0.4633642539586673  1.0000
  H   H270      1.0  0.6550556631300529  0.6376110236554372  0.47849032406951103  1.0000
  H   H271      1.0  0.6369443155835682  0.5489177023355811  0.48088524036223923  1.0000
  H   H272      1.0  0.6585376823757749  0.5522955991483444  0.4296641562378326  1.0000
  H   H273      1.0  0.624072449545604  0.5481983493563367  0.42057046134552867  1.0000
  H   H274      1.0  0.6075512325378282  0.5945135876061418  0.5015778558732503  1.0000
  H   H275      1.0  0.5946007124761153  0.5942854672068983  0.4413082253785783  1.0000
  H   H276      1.0  0.6078031025052516  0.6316489484431106  0.46669555313477745  1.0000
  N   N8        1.0  0.7643460499885101  0.08759240572854621  0.6311146576567519  1.0000
  C   C317      1.0  0.764031875762926  0.051463543116473394  0.624954303920724  1.0000
  C   C318      1.0  0.7374596598047198  0.09985058554583427  0.6368815976927692  1.0000
  C   C319      1.0  0.7761115630090537  0.10284710617881254  0.5878575049088798  1.0000
  C   C320      1.0  0.7797557365695879  0.09627266104163557  0.6744887824774407  1.0000
  H   H277      1.0  0.7839677649180091  0.04142687938037759  0.6199766682612392  1.0000
  H   H278      1.0  0.7523813867720723  0.044134707932386164  0.5928264984804169  1.0000
  H   H279      1.0  0.7553739201371226  0.0389562904341636  0.6568867715143957  1.0000
  H   H280      1.0  0.7370584573454173  0.1270856967422819  0.6412200549660413  1.0000
  H   H281      1.0  0.7253189811173629  0.09392693808583454  0.604615199734967  1.0000
  H   H282      1.0  0.7278888447026138  0.08888079437081742  0.6692082849635875  1.0000
  H   H283      1.0  0.7767424290444127  0.13016159301713262  0.5910785102460349  1.0000
  H   H284      1.0  0.7645787734787968  0.09702655226094616  0.5547697795508052  1.0000
  H   H285      1.0  0.7963092286545485  0.0940003385195707  0.5817287104500831  1.0000
  H   H286      1.0  0.8001339605404806  0.08734457023697417  0.671484149120491  1.0000
  H   H287      1.0  0.771250970209053  0.08515119406465632  0.7077827178455292  1.0000
  H   H288      1.0  0.78036159167924  0.12337896186430264  0.6801394869366549  1.0000
  N   N9        1.0  0.1786010518916883  0.14081944763938825  0.10961697980305996  1.0000
  C   C321      1.0  0.17304109047821603  0.1604266379389152  0.15350952517103167  1.0000
  C   C322      1.0  0.18449157167099606  0.10654412312977968  0.12362423706294456  1.0000
  C   C323      1.0  0.2012302881351471  0.15502869528798757  0.0840894668014518  1.0000
  C   C324      1.0  0.15566785689556983  0.14123200263546276  0.07721743710072415  1.0000
  H   H289      1.0  0.15585162737029323  0.15055336641353945  0.17329838357710892  1.0000
  H   H290      1.0  0.16846532706812356  0.18644381542246857  0.14421714784832562  1.0000
  H   H291      1.0  0.18983652465833667  0.16067987378753967  0.17898894079790395  1.0000
  H   H292      1.0  0.18981302440302228  0.09147680338869768  0.09148221070042761  1.0000
  H   H293      1.0  0.20099855978159642  0.10535234470227195  0.1496282281217387  1.0000
  H   H294      1.0  0.1673149426399403  0.0944807974263071  0.1406182061246719  1.0000
  H   H295      1.0  0.19738214944568333  0.18087216780541904  0.07288413988309062  1.0000
  H   H296      1.0  0.20597890031105104  0.14071132643542184  0.05081175540449845  1.0000
  H   H297      1.0  0.21888023003174073  0.15508763916527601  0.10751126373303999  1.0000
  H   H298      1.0  0.15921358779311534  0.12695632378137134  0.04345495403229971  1.0000
  H   H299      1.0  0.1502611834036678  0.16675045666164467  0.06667363678930571  1.0000
  H   H300      1.0  0.13827498586006626  0.13023045574986192  0.09503760858017163  1.0000
  N   N10       1.0  0.009021433306655835  0.39170500767688377  0.3631905699356416  1.0000
  C   C325      1.0  0.021188593359422025  0.4138426198821415  0.32736509367641253  1.0000
  C   C326      1.0  0.9882592380890047  0.4095164015590414  0.38934603422013336  1.0000
  C   C327      1.0  0.0289506626388103  0.3804629242732375  0.3980381538561559  1.0000
  C   C328      1.0  0.9977252470504596  0.36296449935726954  0.33792791360513436  1.0000
  H   H301      1.0  0.03682578147642479  0.4011451754582312  0.3065991752882454  1.0000
  H   H302      1.0  0.030221480512606647  0.43562308045739173  0.3450933441022402  1.0000
  H   H303      1.0  0.006670045210483977  0.42307578612860897  0.3007983686783427  1.0000
  H   H304      1.0  0.9786203573396522  0.39335465536667974  0.4165406231408042  1.0000
  H   H305      1.0  0.9960863457375599  0.43129630568459454  0.4090877901157279  1.0000
  H   H306      1.0  0.9729781835473287  0.41868428408946085  0.3641370608745379  1.0000
  H   H307      1.0  0.020397049379004883  0.363864536835045  0.42588705268983595  1.0000
  H   H308      1.0  0.03794502891468765  0.4015403626460651  0.4176077224629212  1.0000
  H   H309      1.0  0.044818557035327444  0.3667139703319882  0.37944474441926995  1.0000
  H   H310      1.0  0.9884709115863417  0.3456024362973305  0.3639205391923869  1.0000
  H   H311      1.0  0.01289662195896657  0.34898173150283296  0.3177196997656053  1.0000
  H   H312      1.0  0.98264296315407  0.37057276249465126  0.31126979545575356  1.0000
  N   N11       1.0  0.04392056591268423  0.29220116454848316  0.0425585512531379  1.0000
  C   C329      1.0  0.0630097431710035  0.26632628150440035  0.03027572391954747  1.0000
  C   C330      1.0  0.04845608452722572  0.3035128264688936  0.0926996355988412  1.0000
  C   C331      1.0  0.017271373270131285  0.27879412227168776  0.03839702792077504  1.0000
  C   C332      1.0  0.04699111693202851  0.32024299715811205  0.009003789905019044  1.0000
  H   H313      1.0  0.08334489211035523  0.275577880406464  0.03319484261696215  1.0000
  H   H314      1.0  0.060038564638926095  0.2568533202001013  0.9928690916612086  1.0000
  H   H315      1.0  0.061339022221661876  0.2449424514093979  0.05510971891111738  1.0000
  H   H316      1.0  0.03482903885422073  0.32364681242948695  0.10292354177650576  1.0000
  H   H317      1.0  0.04589781314060959  0.2831017106341933  0.11916219057375055  1.0000
  H   H318      1.0  0.0685578365708781  0.31323578481798736  0.09720868593919696  1.0000
  H   H319      1.0  0.0023722783585060636  0.29790787955431386  0.04620935381015934  1.0000
  H   H320      1.0  0.014050155865040992  0.258266255950218  0.0643294472808047  1.0000
  H   H321      1.0  0.013413070061591092  0.2687880317648828  0.0015526492166995087  1.0000
  H   H322      1.0  0.03313535206057061  0.34046705225154733  0.01774582886034115  1.0000
  H   H323      1.0  0.04350365331575756  0.3127234982826841  0.9708150926635416  1.0000
  H   H324      1.0  0.066908003919111  0.33090671668019594  0.011274099712102803  1.0000
  N   N12       1.0  0.2581892660142509  0.9927885197708441  0.1891065800264037  1.0000
  C   C333      1.0  0.23467735951101676  0.012180764621147144  0.20066520800871868  1.0000
  C   C334      1.0  0.27647486241770214  0.9941221806361457  0.23037211237328906  1.0000
  C   C335      1.0  0.2709051514528913  0.006594732635799794  0.14566287135196473  1.0000
  C   C336      1.0  0.250710344882339  0.9582575918406883  0.179708574844685  1.0000
  H   H325      1.0  0.22056890857018022  0.012020479935535011  0.17005668666055884  1.0000
  H   H326      1.0  0.2396241051653077  0.038272091907860295  0.20869396439223398  1.0000
  H   H327      1.0  0.22462706893338427  0.0024183430223156943  0.2333693828011514  1.0000
  H   H328      1.0  0.2943574507936265  0.9795168311119771  0.22318542717399845  1.0000
  H   H329      1.0  0.2827222471046713  0.01979711095693104  0.2377334396405404  1.0000
  H   H330      1.0  0.2673811542974388  0.9847169750859274  0.26425146458426335  1.0000
  H   H331      1.0  0.2894228908303734  0.993615567977525  0.13728245667800298  1.0000
  H   H332      1.0  0.2756633594797037  0.03311639273187672  0.15051374771699405  1.0000
  H   H333      1.0  0.2583025705661774  0.004282516180933005  0.1131293683466362  1.0000
  H   H334      1.0  0.26777194804094917  0.9432927221974811  0.16831602793743752  1.0000
  H   H335      1.0  0.23608488595425117  0.95657840760536  0.15002193649008633  1.0000
  H   H336      1.0  0.24206245333361284  0.9466427742891783  0.2124119436912215  1.0000
  N   N13       1.0  0.5045641839449777  0.3542297362451612  0.2184744023798082  1.0000
  C   C337      1.0  0.5326472091180691  0.35854789480297433  0.20897570971995538  1.0000
  C   C338      1.0  0.49405084396892607  0.3293529007706966  0.18494863209619794  1.0000
  C   C339      1.0  0.4908380988397653  0.3858138394910178  0.21113193354998083  1.0000
  C   C340      1.0  0.5005918778649898  0.34276582042335635  0.2687054875163235  1.0000
  H   H337      1.0  0.5362993338218586  0.36576823243877843  0.1707582563368284  1.0000
  H   H338      1.0  0.5436912223283137  0.33543050894964455  0.2159841432836589  1.0000
  H   H339      1.0  0.5410855127637763  0.3781686948028123  0.23214284164726928  1.0000
  H   H340      1.0  0.4728958946221706  0.3257235753732587  0.19092846612068204  1.0000
  H   H341      1.0  0.496993593437929  0.33641602345691013  0.14644726308369505  1.0000
  H   H342      1.0  0.5037119045939523  0.30522212192886616  0.19050562779726388  1.0000
  H   H343      1.0  0.46951924564562975  0.3832650329709914  0.21732524738850523  1.0000
  H   H344      1.0  0.4934688540813436  0.39521763043172425  0.17363657431254698  1.0000
  H   H345      1.0  0.49816507249589087  0.4051225381131448  0.23634890435247424  1.0000
  H   H346      1.0  0.4796704161629142  0.3379645752236485  0.2762846551443132  1.0000
  H   H347      1.0  0.5072579913268321  0.3613658410167591  0.29525153696642636  1.0000
  H   H348      1.0  0.5115335325040994  0.3196397438892708  0.27606839365963864  1.0000
  N   N14       1.0  0.9262568207697764  0.15410518356586042  0.43572642869792483  1.0000
  C   C341      1.0  0.950829732606559  0.13882448984069948  0.45203041246441394  1.0000
  C   C342      1.0  0.9084925179145064  0.15771808083729277  0.47746134936329776  1.0000
  C   C343      1.0  0.9138311562272573  0.13313765971261546  0.3985396078439794  1.0000
  C   C344      1.0  0.9318843814456572  0.18679424924338156  0.4147877091415113  1.0000
  H   H349      1.0  0.9475217375690637  0.11388516437388518  0.46737029942859915  1.0000
  H   H350      1.0  0.9604895024704038  0.15402277347874696  0.4804081958781668  1.0000
  H   H351      1.0  0.964978951149119  0.13647749756682276  0.4216903655218816  1.0000
  H   H352      1.0  0.8892539895488633  0.16745149932810463  0.46598995862771647  1.0000
  H   H353      1.0  0.9048513928927141  0.13374476669324478  0.49562169511897525  1.0000
  H   H354      1.0  0.9164627824267014  0.17499046349156486  0.5051163908800012  1.0000
  H   H355      1.0  0.8951774873568125  0.14411532819343123  0.3856048717789434  1.0000
  H   H356      1.0  0.90925012628555  0.1082500951457286  0.4129927069247337  1.0000
  H   H357      1.0  0.9266664736399054  0.13000368149252417  0.36642462714569884  1.0000
  H   H358      1.0  0.9140464594336282  0.19843543048611073  0.39994448338254746  1.0000
  H   H359      1.0  0.9462970419036845  0.18515395441109897  0.38479051924636376  1.0000
  H   H360      1.0  0.940233995700063  0.20374228999069555  0.4423506506714897  1.0000
  N   N15       1.0  0.7434613473426802  0.761437744539204  0.19211971299175343  1.0000
  C   C345      1.0  0.755535186188942  0.7843117194579456  0.2271739887793621  1.0000
  C   C346      1.0  0.7549001618183673  0.7664816044694968  0.1435813366136183  1.0000
  C   C347      1.0  0.7151253071267949  0.7674379164490291  0.1900293030934132  1.0000
  C   C348      1.0  0.7482191290440171  0.7272862762820134  0.20790852460441606  1.0000
  H   H361      1.0  0.7768961048192315  0.7801753081121727  0.22984943636172603  1.0000
  H   H362      1.0  0.7472164766504432  0.7808658283467963  0.2641390887813276  1.0000
  H   H363      1.0  0.7523613141232068  0.810405316967254  0.21656545085344042  1.0000
  H   H364      1.0  0.7761409881679702  0.7611091268573802  0.14340649479718812  1.0000
  H   H365      1.0  0.7457617884746269  0.7499492175995569  0.11621622927934797  1.0000
  H   H366      1.0  0.752206663917405  0.7921922038035567  0.13073115656889694  1.0000
  H   H367      1.0  0.7058945848878401  0.7636778212414491  0.22610179981969203  1.0000
  H   H368      1.0  0.7054109988581604  0.7502787538230186  0.1642571836361583  1.0000
  H   H369      1.0  0.7107410707888383  0.7929926625642025  0.17820092515445962  1.0000
  H   H370      1.0  0.7386444520285607  0.7093682258871168  0.18325435514738836  1.0000
  H   H371      1.0  0.7404382431252519  0.7228491885635442  0.24484761473342945  1.0000
  H   H372      1.0  0.7693632299961108  0.7214396306445922  0.2088814137949499  1.0000
  N   N16       1.0  0.10680259159787497  0.23596661622218673  0.42479481946966985  1.0000
  C   C349      1.0  0.10858174565114975  0.26579968741795956  0.39442262729007166  1.0000
  C   C350      1.0  0.13016458713387946  0.23371763957956682  0.45584455926678363  1.0000
  C   C351      1.0  0.10529726219269775  0.20654968698324683  0.3934096496127796  1.0000
  C   C352      1.0  0.08322570125028972  0.23781399760869104  0.4552871851284949  1.0000
  H   H373      1.0  0.09171583637804748  0.26779628718321047  0.3694264755549497  1.0000
  H   H374      1.0  0.1264534450200172  0.26556533470880805  0.3717541586454876  1.0000
  H   H375      1.0  0.10908148200670031  0.28858449526632546  0.4167087641934787  1.0000
  H   H376      1.0  0.13206553029239942  0.2556445676232104  0.47973551298134737  1.0000
  H   H377      1.0  0.12954176544438512  0.2114838766274354  0.47928745971380127  1.0000
  H   H378      1.0  0.14823806949553364  0.23219411604278695  0.4335921419766357  1.0000
  H   H379      1.0  0.1039369690327816  0.18355094886544432  0.41505545694479534  1.0000
  H   H380      1.0  0.1228250548843568  0.20444014221543738  0.3698590710154003  1.0000
  H   H381      1.0  0.08792190838188496  0.20745984450970134  0.3693285236496126  1.0000
  H   H382      1.0  0.08361715638429179  0.25969800105361984  0.47952087566591955  1.0000
  H   H383      1.0  0.08102113881302975  0.21556551772113197  0.4783918537271097  1.0000
  H   H384      1.0  0.06535932860483729  0.23971433081618176  0.4327162816948328  1.0000
  N   N17       1.0  0.4213423807971261  0.5854025900827691  0.5011175026621739  1.0000
  C   C353      1.0  0.39693485793241007  0.602603932547838  0.4884594500202535  1.0000
  C   C354      1.0  0.4438007081417021  0.6054225345109848  0.48535673470985885  1.0000
  C   C355      1.0  0.42201543110135153  0.5531021375863734  0.4765214899588011  1.0000
  C   C356      1.0  0.4226033742265161  0.580552015780429  0.5541110392767615  1.0000
  H   H385      1.0  0.3795462780864579  0.5887180569339441  0.5011409276802797  1.0000
  H   H386      1.0  0.3949310230278087  0.605870524130857  0.4486469644495418  1.0000
  H   H387      1.0  0.3961817814648636  0.6275282053182392  0.5051132056159112  1.0000
  H   H388      1.0  0.44423797281647026  0.6296596838504457  0.5040859501705559  1.0000
  H   H389      1.0  0.4625616517817986  0.592762666901909  0.49299146886781237  1.0000
  H   H390      1.0  0.44305365307417927  0.6103640248394887  0.4458197838554857  1.0000
  H   H391      1.0  0.4209664199721808  0.5559034421897017  0.4364714667020961  1.0000
  H   H392      1.0  0.40542142646589086  0.5372824020305551  0.4877967262061892  1.0000
  H   H393      1.0  0.44033252809929735  0.5396019683336876  0.48469059703353207  1.0000
  H   H394      1.0  0.4411825022788097  0.5685529842622162  0.5651988872724532  1.0000
  H   H395      1.0  0.4063496914642148  0.5648028439782407  0.5671406047833193  1.0000
  H   H396      1.0  0.4212785477213292  0.6044503376457544  0.573648040246575  1.0000
  N   N18       1.0  0.8241355932695444  0.9529961342764067  0.9149398521701755  1.0000
  C   C357      1.0  0.8436335091598451  0.9690349963541434  0.8834987929962191  1.0000
  C   C358      1.0  0.7977001708719386  0.9615744686157335  0.8979817477462616  1.0000
  C   C359      1.0  0.827581920402627  0.9645842163647361  0.9652247080131978  1.0000
  C   C360      1.0  0.8276252184619567  0.9169202956401811  0.9132349898393507  1.0000
  H   H397      1.0  0.841101117591039  0.9962539070565096  0.8832434610001929  1.0000
  H   H398      1.0  0.8419637410010377  0.9604307087380172  0.8453996982871846  1.0000
  H   H399      1.0  0.8638076899094653  0.9640777666665313  0.8962196173376941  1.0000
  H   H400      1.0  0.7942211841171108  0.9529471486816822  0.8603207859040766  1.0000
  H   H401      1.0  0.782489167818382  0.9502681059813184  0.921350849096761  1.0000
  H   H402      1.0  0.7945294968176341  0.9887155725608404  0.898471739390747  1.0000
  H   H403      1.0  0.8129611774876316  0.9534075288647956  0.9899210532893187  1.0000
  H   H404      1.0  0.8252619229519901  0.9916984079700045  0.9675388736777853  1.0000
  H   H405      1.0  0.847219158171105  0.9584566965741634  0.9795694377405333  1.0000
  H   H406      1.0  0.8134870120504665  0.9042183431056718  0.9372750801055509  1.0000
  H   H407      1.0  0.8474347445411851  0.9096265317217981  0.9254219885025852  1.0000
  H   H408      1.0  0.8245919198477771  0.9070838535884536  0.8760701142107711  1.0000
  N   N19       1.0  0.3196650386685849  0.8319300847768873  0.6880499969165084  1.0000
  C   C361      1.0  0.342700636395243  0.8419962269978737  0.6597293967617955  1.0000
  C   C362      1.0  0.3101292963598912  0.8601658434625165  0.7167349138960905  1.0000
  C   C363      1.0  0.32684859091425705  0.8048063681179113  0.7210549532058799  1.0000
  C   C364      1.0  0.2989400154780832  0.8207425864803587  0.6547259230689506  1.0000
  H   H409      1.0  0.3502932510056977  0.8212848827837663  0.637454293200454  1.0000
  H   H410      1.0  0.35876273225488736  0.8507310997278704  0.6834876345935159  1.0000
  H   H411      1.0  0.3379980204459614  0.8624745904204987  0.6345003035648472  1.0000
  H   H412      1.0  0.3254145067646068  0.869828056938515  0.7415577272617526  1.0000
  H   H413      1.0  0.3040965505855402  0.8809239636810127  0.6930406340615923  1.0000
  H   H414      1.0  0.29298778796304403  0.8532712875546608  0.7391637340312532  1.0000
  H   H415      1.0  0.3328289194596181  0.7823972046129862  0.7006401261717781  1.0000
  H   H416      1.0  0.31022375373215566  0.7977825960317196  0.7446567017980957  1.0000
  H   H417      1.0  0.34320956958051413  0.8119131840668783  0.7452827855502033  1.0000
  H   H418      1.0  0.28104224766722513  0.8136837118721607  0.6748583915588039  1.0000
  H   H419      1.0  0.30523545815969744  0.7989655756664189  0.6331560026611964  1.0000
  H   H420      1.0  0.29351830794671413  0.8403966721596035  0.6285175707703465  1.0000
  N   N20       1.0  0.9761159256337493  0.5257220273893493  0.706953822198718  1.0000
  C   C365      1.0  0.9532691711071164  0.5470840233217945  0.6986982703297262  1.0000
  C   C366      1.0  0.9959577845722255  0.5438682757671817  0.7351277519937064  1.0000
  C   C367      1.0  0.9871809700385136  0.515791843364808  0.6597952877734681  1.0000
  C   C368      1.0  0.9680369584573024  0.4961118266709737  0.7341190270012071  1.0000
  H   H421      1.0  0.9380039394888855  0.534173346850444  0.6771572177128918  1.0000
  H   H422      1.0  0.9586867978341744  0.5697267695420982  0.6784051855084267  1.0000
  H   H423      1.0  0.9443795265238194  0.555115493883596  0.7334466566683014  1.0000
  H   H424      1.0  0.01377605849822472  0.5288574464998878  0.7408681279303803  1.0000
  H   H425      1.0  0.0019659090206591845  0.5668713932285652  0.7163243739251397  1.0000
  H   H426      1.0  0.9885720646025042  0.5508768347084412  0.7715867401031783  1.0000
  H   H427      1.0  0.992663245542408  0.5376644701002712  0.6377170681955576  1.0000
  H   H428      1.0  0.9729730549467768  0.5010326979153843  0.6383884436846778  1.0000
  H   H429      1.0  0.004872023838311534  0.5003790713777109  0.6644664709568404  1.0000
  H   H430      1.0  0.9847163586443836  0.4791858993042455  0.74026804630097  1.0000
  H   H431      1.0  0.9528262277315653  0.4820324405181077  0.7141476571748342  1.0000
  H   H432      1.0  0.9598702400018941  0.5027209747834677  0.7701472623309021  1.0000
  N   N21       1.0  0.5082721589129423  0.2263633022473392  0.9793995560172497  1.0000
  C   C369      1.0  0.48272480342078106  0.21150442374682613  0.967980703503032  1.0000
  C   C370      1.0  0.5045208240127056  0.260674951649691  0.9956804370312705  1.0000
  C   C371      1.0  0.5247701796457602  0.2258456997030402  0.9355908063961625  1.0000
  C   C372      1.0  0.521114033866438  0.20737566973397975  0.018294024420998367  1.0000
  H   H433      1.0  0.4849781241456779  0.1862567668420383  0.9531656525915464  1.0000
  H   H434      1.0  0.47197417764669414  0.2260290574011377  0.9403362992639902  1.0000
  H   H435      1.0  0.47015047503053486  0.20961745041879581  0.0006723211129782136  1.0000
  H   H436      1.0  0.5233865520595985  0.2725052513134599  0.005247341152159635  1.0000
  H   H437      1.0  0.49497188601058545  0.27587178681005353  0.9672993291694321  1.0000
  H   H438      1.0  0.49217387772395654  0.2617258492705375  0.028696565102392046  1.0000
  H   H439      1.0  0.5443022382723213  0.23659600415564636  0.9428957634813755  1.0000
  H   H440      1.0  0.5157191598591263  0.23994483303633796  0.9054301765943057  1.0000
  H   H441      1.0  0.5277765999443423  0.2001690544706255  0.92233317469213  1.0000
  H   H442      1.0  0.5394781378627678  0.21935342446041697  0.030498933080325363  1.0000
  H   H443      1.0  0.5261728679324671  0.18216973663258962  0.00595403731169708  1.0000
  H   H444      1.0  0.5084175614440963  0.20506457871270004  0.05077390794460146  1.0000
  N   N22       1.0  0.8757649069791192  0.14353498372292067  0.026555005939952858  1.0000
  C   C373      1.0  0.8863384592993622  0.11244824376327744  0.04607331356777444  1.0000
  C   C374      1.0  0.8930731665115312  0.17107183908005624  0.04026464423238796  1.0000
  C   C375      1.0  0.8495219238328207  0.14919222428926948  0.0467386048111309  1.0000
  C   C376      1.0  0.8740744273619284  0.14134711601415528  0.9732148225440931  1.0000
  H   H445      1.0  0.8732873287566182  0.0914036525804991  0.03764347640745869  1.0000
  H   H446      1.0  0.8885153326190373  0.11345036965853161  0.08611422326033402  1.0000
  H   H447      1.0  0.9058094335087976  0.10669187367630074  0.03047769813600265  1.0000
  H   H448      1.0  0.8947306726995043  0.17343589641853105  0.08030139184076424  1.0000
  H   H449      1.0  0.9130796960367507  0.16744761131098845  0.02586662157444808  1.0000
  H   H450      1.0  0.8857697244594215  0.19491450938433957  0.02591344452585398  1.0000
  H   H451      1.0  0.8359451575004084  0.12879629645946306  0.03724244268982102  1.0000
  H   H452      1.0  0.8407630858919221  0.17235434808744055  0.03283825279934627  1.0000
  H   H453      1.0  0.8499647903635866  0.1508532695021148  0.08697720787239094  1.0000
  H   H454      1.0  0.8668973618148391  0.16468837524592472  0.9570302277402851  1.0000
  H   H455      1.0  0.8604524756092623  0.12150489053057845  0.9617279965942825  1.0000
  H   H456      1.0  0.8933722851857941  0.13584887884814417  0.9567416915729225  1.0000
  N   N23       1.0  0.31146034785729254  0.08875475256001586  0.5031775298951873  1.0000
  C   C377      1.0  0.31964930633123556  0.09334211269784265  0.5540299690155462  1.0000
  C   C378      1.0  0.3129266083365625  0.12056945873418723  0.4774810743793551  1.0000
  C   C379      1.0  0.28443484084309334  0.07631788457865163  0.5018467150482531  1.0000
  C   C380      1.0  0.3289056010032379  0.06482832696472429  0.479333078284012  1.0000
  H   H457      1.0  0.3187368810897809  0.06977124874091079  0.5744576207252592  1.0000
  H   H458      1.0  0.3071137831045284  0.11143980965649569  0.5731187147002405  1.0000
  H   H459      1.0  0.34012932985182137  0.10222398232416974  0.5563114875403727  1.0000
  H   H460      1.0  0.30728993950883726  0.11783017027224196  0.4387875248712445  1.0000
  H   H461      1.0  0.2998857690091478  0.1392516154929493  0.49401847639978247  1.0000
  H   H462      1.0  0.3331178950484498  0.13056269490060646  0.47784741974834927  1.0000
  H   H463      1.0  0.2707824708422867  0.09345309729596596  0.5202134705333877  1.0000
  H   H464      1.0  0.28273366480838524  0.05196162425395312  0.5201445648648884  1.0000
  H   H465      1.0  0.27745710672252627  0.07317523373273738  0.46395006152017115  1.0000
  H   H466      1.0  0.3494827819085374  0.07350561369056896  0.47959794978523235  1.0000
  H   H467      1.0  0.3233724584362348  0.06077485933829685  0.4408100981758504  1.0000
  H   H468      1.0  0.3285579433225157  0.0406158396781553  0.49801163253285524  1.0000
  N   N24       1.0  0.20999625832240618  0.8873582819850391  0.8572394540578024  1.0000
  C   C381      1.0  0.18184671998390245  0.8861808825472717  0.8680029992715508  1.0000
  C   C382      1.0  0.2209777698029976  0.85380487805905  0.8601028981081987  1.0000
  C   C383      1.0  0.22309390966951773  0.9088007228053289  0.8929487083878218  1.0000
  C   C384      1.0  0.21403440052790723  0.9007394408560385  0.8080576222693748  1.0000
  H   H469      1.0  0.17303277772868833  0.9112085916772894  0.8667214220535175  1.0000
  H   H470      1.0  0.17812642448323052  0.8760035010342868  0.9048162216429088  1.0000
  H   H471      1.0  0.1712536170036089  0.8703283839700819  0.8416824888360535  1.0000
  H   H472      1.0  0.2116316453352802  0.8369426698396725  0.8334579643255432  1.0000
  H   H473      1.0  0.24223478047370986  0.8536806277392615  0.8524337691405428  1.0000
  H   H474      1.0  0.21808003923063582  0.8430131573508344  0.896728534364702  1.0000
  H   H475      1.0  0.24449715790504808  0.9092591723153873  0.8873005727319915  1.0000
  H   H476      1.0  0.21961559961917193  0.9002423268114005  0.93051505229375  1.0000
  H   H477      1.0  0.2158499022202084  0.9345737540052997  0.8906619447543117  1.0000
  H   H478      1.0  0.20495878287516836  0.8847752026078455  0.779989337475201  1.0000
  H   H479      1.0  0.23510863575142893  0.9030275579188253  0.7993741964925108  1.0000
  H   H480      1.0  0.20535871547456258  0.9257377671184792  0.8043684736056047  1.0000
  N   N25       1.0  0.8896438387990685  0.34580045551982536  0.5596024280569281  1.0000
  C   C385      1.0  0.8639063047212043  0.3315897670408371  0.5478996043131081  1.0000
  C   C386      1.0  0.8971157968507266  0.3361607907027108  0.6093099544864014  1.0000
  C   C387      1.0  0.8884251540345863  0.38208139468245683  0.5561321652416439  1.0000
  C   C388      1.0  0.9091629228396243  0.33319098931857394  0.5250459533382332  1.0000
  H   H481      1.0  0.8577172033435171  0.3380231111740544  0.510463030122642  1.0000
  H   H482      1.0  0.848667048577987  0.3406031492747457  0.5732131134619124  1.0000
  H   H483      1.0  0.8642022558976382  0.30420102065504007  0.5504502111358789  1.0000
  H   H484      1.0  0.9166452151069968  0.345843890708162  0.6190765307019881  1.0000
  H   H485      1.0  0.8830400993411796  0.3456027421783676  0.6365248503292826  1.0000
  H   H486      1.0  0.89794578575464  0.3088996056932814  0.6132820943922348  1.0000
  H   H487      1.0  0.8744348961904532  0.39265325120936767  0.582634934413876  1.0000
  H   H488      1.0  0.8823548484749005  0.39025835074087123  0.5193652350513042  1.0000
  H   H489      1.0  0.9076886257873261  0.39348055826360123  0.5636121605662445  1.0000
  H   H490      1.0  0.9289324740254168  0.34299552955686474  0.533122422038009  1.0000
  H   H491      1.0  0.9043106448100773  0.34014190819468326  0.4871632115401496  1.0000
  H   H492      1.0  0.9103254492895434  0.3059009619245307  0.5266085231080148  1.0000
  N   N26       1.0  0.6792166828863315  0.6187351625257893  0.8162491221229684  1.0000
  C   C389      1.0  0.6525494029717432  0.6095335404878712  0.8311321874831595  1.0000
  C   C390      1.0  0.6888302482670737  0.6455697666832242  0.8476789648052518  1.0000
  C   C391      1.0  0.679047036697827  0.6300399087210414  0.7653770971616385  1.0000
  C   C392      1.0  0.6965170285242144  0.589883803514314  0.8208239245470033  1.0000
  H   H493      1.0  0.6441757003049238  0.5901387915152531  0.8071357497013173  1.0000
  H   H494      1.0  0.6391589719279431  0.6310458303093514  0.8297372929775614  1.0000
  H   H495      1.0  0.6521018855476343  0.5999637184058962  0.868850269154348  1.0000
  H   H496      1.0  0.709050178973005  0.6528026887213773  0.837915226097789  1.0000
  H   H497      1.0  0.6765083721646252  0.6680059146854987  0.8441029234356708  1.0000
  H   H498      1.0  0.6888690499189634  0.6383133704483066  0.886525280921582  1.0000
  H   H499      1.0  0.6986934372274961  0.6382645815784588  0.7534535762564691  1.0000
  H   H500      1.0  0.6658283592854471  0.6514299609087407  0.760462217873345  1.0000
  H   H501      1.0  0.672366114101678  0.6103362718395636  0.7402424452791794  1.0000
  H   H502      1.0  0.716741236394717  0.595947168082291  0.8094600847904099  1.0000
  H   H503      1.0  0.689626868009698  0.5690965255536523  0.7978343613763595  1.0000
  H   H504      1.0  0.6973898360265558  0.5809462311577719  0.8588883968509311  1.0000
  N   N27       1.0  0.8486602201482777  0.5938284202115683  0.33333327291412423  1.0000
  C   C393      1.0  0.8386403789237612  0.6167568193509483  0.29623929669383736  1.0000
  C   C394      1.0  0.8322333409935047  0.5639910629979811  0.3343055546657377  1.0000
  C   C395      1.0  0.8479383478021785  0.6100637164766323  0.3811955101611451  1.0000
  C   C396      1.0  0.8757203314091144  0.5844654658458748  0.3217428585098848  1.0000
  H   H505      1.0  0.8382220116353568  0.6053050872563246  0.2596163383676793  1.0000
  H   H506      1.0  0.8505870852153238  0.6395240822787691  0.29391897199885875  1.0000
  H   H507      1.0  0.818357089116007  0.6245787769940937  0.30454918560148114  1.0000
  H   H508      1.0  0.8392016642393427  0.5460544043560077  0.3619215851028533  1.0000
  H   H509      1.0  0.8117265142512595  0.5701416417337419  0.3432823359009616  1.0000
  H   H510      1.0  0.8320609247110569  0.5512380681809772  0.2986697552465065  1.0000
  H   H511      1.0  0.8603921285663514  0.6324346669384617  0.3821452475083555  1.0000
  H   H512      1.0  0.8547576773805285  0.5932520729256686  0.41036471295482213  1.0000
  H   H513      1.0  0.827828468911305  0.6179784780099  0.39063528375484696  1.0000
  H   H514      1.0  0.8887054264959225  0.606366134710731  0.32079339371328963  1.0000
  H   H515      1.0  0.8769306244188294  0.5720734119163757  0.28586652789035105  1.0000
  H   H516      1.0  0.8836845924747048  0.5671234149134797  0.3492842924959943  1.0000
  N   N28       1.0  0.6888009904993302  0.24132881440525028  0.3290019939792457  1.0000
  C   C397      1.0  0.6727817234514016  0.2634902892121449  0.2988431823852673  1.0000
  C   C398      1.0  0.6742681911624839  0.21054780643143384  0.3381415036630706  1.0000
  C   C399      1.0  0.69482766266898  0.2576167864054677  0.3755741771326095  1.0000
  C   C400      1.0  0.713293833303083  0.2336354727953112  0.303401013789657  1.0000
  H   H517      1.0  0.6546245705431956  0.27080710132993724  0.31796650710180924  1.0000
  H   H518      1.0  0.6667165093169038  0.2512923372375569  0.26447877978723483  1.0000
  H   H519      1.0  0.6834334232555627  0.2864176093562721  0.2894009449274503  1.0000
  H   H520      1.0  0.6552245875838734  0.21550599267334075  0.3557630164468363  1.0000
  H   H521      1.0  0.6700975932062949  0.1971195576132963  0.3037956192573042  1.0000
  H   H522      1.0  0.6855097421050882  0.19343630623324565  0.3616695597419423  1.0000
  H   H523      1.0  0.7060107048829461  0.28074896508229674  0.37004356586040343  1.0000
  H   H524      1.0  0.7066693170004957  0.2413838648980995  0.399471706389137  1.0000
  H   H525      1.0  0.6767674999642722  0.2641125506827113  0.39569910628652855  1.0000
  H   H526      1.0  0.7260179370119002  0.21738199772511718  0.3255627330166265  1.0000
  H   H527      1.0  0.7245927393628403  0.2562409900904189  0.2949290467903377  1.0000
  H   H528      1.0  0.7095024057392598  0.22043177845821638  0.26871892880546105  1.0000
  N   N29       1.0  0.31061550883175265  0.5385592218594796  0.28344890516822907  1.0000
  C   C401      1.0  0.3276220153451283  0.5536554590466639  0.3205012241424604  1.0000
  C   C402      1.0  0.3242025792233111  0.5103702471951421  0.26099844946928663  1.0000
  C   C403      1.0  0.30436932251847815  0.5632953099065204  0.24599597504780318  1.0000
  C   C404      1.0  0.28629117103896407  0.526976184431573  0.3062990598101472  1.0000
  H   H529      1.0  0.34628114006123195  0.5622143016434514  0.30438840008958096  1.0000
  H   H530      1.0  0.3324022166107519  0.5359852190906602  0.34991659537255243  1.0000
  H   H531      1.0  0.31821316026076757  0.5753883696854014  0.33747578919203297  1.0000
  H   H532      1.0  0.31188443628557605  0.49806960494496566  0.23325622336135174  1.0000
  H   H533      1.0  0.342437939399576  0.5182952664770321  0.24272791838528887  1.0000
  H   H534      1.0  0.3295278962803396  0.4914546102219501  0.28832732362608693  1.0000
  H   H535      1.0  0.29383188635017726  0.5847491442129004  0.2616730647312297  1.0000
  H   H536      1.0  0.29194742193260786  0.5526572730225557  0.21700893272945404  1.0000
  H   H537      1.0  0.32229401025315346  0.5729223868352998  0.2284433667343137  1.0000
  H   H538      1.0  0.27525523521485923  0.547662293410654  0.32268248995871895  1.0000
  H   H539      1.0  0.29020043474717816  0.5086687443820811  0.3353131711047556  1.0000
  H   H540      1.0  0.2731920957567111  0.5150518648982696  0.27943657253370086  1.0000
  N   N30       1.0  0.5717664275457122  0.4232524533007337  0.49914218629966606  1.0000
  C   C405      1.0  0.5466595163400036  0.41141130652208235  0.5185577736663476  1.0000
  C   C406      1.0  0.5886446517090753  0.3947901688951382  0.4880260289817611  1.0000
  C   C407      1.0  0.5845419255910874  0.4445417604650737  0.5354921404836592  1.0000
  C   C408      1.0  0.567132573020499  0.442389563169844  0.45449675776289605  1.0000
  H   H541      1.0  0.5333800287347285  0.4322541511399578  0.527175138870157  1.0000
  H   H542      1.0  0.5494195040391322  0.39679312340618655  0.5522179934497761  1.0000
  H   H543      1.0  0.5364764219964987  0.39524949328236453  0.49212523246767886  1.0000
  H   H544      1.0  0.5926694111001627  0.3798221823748002  0.5209252278662303  1.0000
  H   H545      1.0  0.5793459647530137  0.37807295563478466  0.4610639685051326  1.0000
  H   H546      1.0  0.6076395748109717  0.40279350396732827  0.47272666254049256  1.0000
  H   H547      1.0  0.6033376784043933  0.45445737877969306  0.5218040353824747  1.0000
  H   H548      1.0  0.5885169221300842  0.4309729021501238  0.5696730106815857  1.0000
  H   H549      1.0  0.5721322849018435  0.46610673770365896  0.5446510769424803  1.0000
  H   H550      1.0  0.5853887727496649  0.453642978704567  0.4405243156699877  1.0000
  H   H551      1.0  0.5531211884704134  0.4627656261409753  0.4609502887056051  1.0000
  H   H552      1.0  0.5590724065878112  0.4267188331150324  0.4251981981651051  1.0000
  N   N31       1.0  0.9528382671084088  0.5571666706424502  0.052391451986459  1.0000
  C   C409      1.0  0.9332253282143146  0.5815697943091727  0.0368754930602595  1.0000
  C   C410      1.0  0.9772999497151076  0.5743210958105033  0.06494494081187252  1.0000
  C   C411      1.0  0.9577114447492378  0.5337559796850155  0.01243405651543239  1.0000
  C   C412      1.0  0.9431435020034804  0.5390720458079792  0.09515519803428107  1.0000
  H   H553      1.0  0.9290326649032589  0.5996402125610766  0.06614828514442328  1.0000
  H   H554      1.0  0.9145336354905615  0.5694869006777556  0.026858369321681064  1.0000
  H   H555      1.0  0.9400254437864946  0.5956636017130333  0.004661398557076035  1.0000
  H   H556      1.0  0.9926149405745729  0.5567230612034977  0.0767440610947099  1.0000
  H   H557      1.0  0.9851912391413584  0.5880764056654708  0.03337960365105963  1.0000
  H   H558      1.0  0.9744661447674263  0.5921879017672288  0.09499077166432768  1.0000
  H   H559      1.0  0.9730843757270661  0.5156396925502308  0.02215779960955833  1.0000
  H   H560      1.0  0.9643644606137676  0.5466984177241245  0.9791537777271311  1.0000
  H   H561      1.0  0.9398803049819638  0.5196784294154919  0.002783135958242422  1.0000
  H   H562      1.0  0.9399120119754019  0.5557135172831005  0.126598897575635  1.0000
  H   H563      1.0  0.957229657447287  0.5199941646163605  0.1071692389328523  1.0000
  H   H564      1.0  0.9244739747179694  0.5262308008505829  0.08741867968595884  1.0000
  N   N32       1.0  0.8539476418735937  0.684512807978524  0.7257405464256145  1.0000
  C   C413      1.0  0.8283776426413894  0.6881605915486974  0.7017811454245286  1.0000
  C   C414      1.0  0.8500496198845686  0.6794436933239408  0.7782491815607661  1.0000
  C   C415      1.0  0.8695062779092223  0.7146313005264854  0.7179061088214781  1.0000
  C   C416      1.0  0.8679029392203554  0.6559415207636538  0.7051319551578692  1.0000
  H   H565      1.0  0.8305329585531962  0.6920994968405343  0.6620966011632842  1.0000
  H   H566      1.0  0.8174021782189748  0.7095349463213161  0.7167489836321236  1.0000
  H   H567      1.0  0.8160560009897342  0.6659284956740552  0.7069828169129034  1.0000
  H   H568      1.0  0.8689385525366479  0.6761673436483123  0.797444052084735  1.0000
  H   H569      1.0  0.8399882935089773  0.7008452747265941  0.7951942241199715  1.0000
  H   H570      1.0  0.8380123979797757  0.6572620236044537  0.7855515585351214  1.0000
  H   H571      1.0  0.8890544562749615  0.7125581194779147  0.7350891165746423  1.0000
  H   H572      1.0  0.8597012094854465  0.7366238331910635  0.7336154679015005  1.0000
  H   H573      1.0  0.872641765684121  0.7193575309848641  0.6786608533292022  1.0000
  H   H574      1.0  0.8566702321749888  0.6327611099888572  0.7098285065164868  1.0000
  H   H575      1.0  0.8871717902049068  0.6524596622507808  0.7229736587456094  1.0000
  H   H576      1.0  0.8715586954208947  0.6590341170514115  0.665600525529174  1.0000
  N   N33       1.0  0.39083764818848876  0.6049737425280707  0.7534082585499497  1.0000
  C   C417      1.0  0.4009361435289858  0.5902839389543005  0.7986417010412996  1.0000
  C   C418      1.0  0.3647163573180247  0.5915646472730542  0.7427941467286039  1.0000
  C   C419      1.0  0.40851948868847504  0.597016977672194  0.7129558402530024  1.0000
  C   C420      1.0  0.38928117855427763  0.641095686362117  0.7591002131293366  1.0000
  H   H577      1.0  0.387871948389513  0.595464645466031  0.8298157772053801  1.0000
  H   H578      1.0  0.4205268717005153  0.6002946309193739  0.8078988613589935  1.0000
  H   H579      1.0  0.40295881753872786  0.56308200177665  0.7955523426608163  1.0000
  H   H580      1.0  0.36502393574513575  0.5642637794786072  0.7400068480151265  1.0000
  H   H581      1.0  0.3504518297726348  0.598434813044935  0.7713678027160654  1.0000
  H   H582      1.0  0.35699717188720304  0.601375278328105  0.7079936687401445  1.0000
  H   H583      1.0  0.4018596356048664  0.6084075617115957  0.6784794496903666  1.0000
  H   H584      1.0  0.4101192134726527  0.5699842990411434  0.7072361260279488  1.0000
  H   H585      1.0  0.42838582853237306  0.6064634417115993  0.720179663860525  1.0000
  H   H586      1.0  0.3836081716017024  0.6533116662123883  0.7245917320443069  1.0000
  H   H587      1.0  0.408291242978189  0.6516933215708747  0.7704692991545158  1.0000
  H   H588      1.0  0.37459365419004337  0.6482356231802721  0.7867351593785684  1.0000
  N   N34       1.0  0.5935927924359896  0.04159866166904291  0.8244724651110078  1.0000
  C   C421      1.0  0.573351018664952  0.05332975113762295  0.8583825157853496  1.0000
  C   C422      1.0  0.6192709251500655  0.04218513621843023  0.8486545383953669  1.0000
  C   C423      1.0  0.594239999313827  0.06326404833498644  0.7815379190536021  1.0000
  C   C424      1.0  0.5874558676589501  0.007596226651019  0.8091441912612136  1.0000
  H   H589      1.0  0.5769917601493904  0.07914924939848866  0.8701382023509926  1.0000
  H   H590      1.0  0.5724488471334717  0.037822551772526136  0.8915247216486206  1.0000
  H   H591      1.0  0.5536687482630904  0.0527551081577593  0.8414124688892685  1.0000
  H   H592      1.0  0.624647269266848  0.06749270866777124  0.8604953056426737  1.0000
  H   H593      1.0  0.6195302125963968  0.026164557977142122  0.8813303799279364  1.0000
  H   H594      1.0  0.6349227568378795  0.03329975138805752  0.8240648923406523  1.0000
  H   H595      1.0  0.608864121359246  0.05478014344444038  0.754539779515385  1.0000
  H   H596      1.0  0.5991299161442403  0.08905747452704937  0.7915368949410109  1.0000
  H   H597      1.0  0.5750504886653083  0.06374266650341043  0.7629830287804232  1.0000
  H   H598      1.0  0.6018693613747438  0.9982301211322744  0.782343730413316  1.0000
  H   H599      1.0  0.5678837922396599  0.006151704073581898  0.7919034464203472  1.0000
  H   H600      1.0  0.5874547632222729  0.9903417491910713  0.8403942808508248  1.0000
  N   N35       1.0  0.24621120535507773  0.7005174103441442  0.4463588866800408  1.0000
  C   C425      1.0  0.26356602326548173  0.7171724129819274  0.411443921293101  1.0000
  C   C426      1.0  0.2617201368511015  0.6782032489693998  0.47712248015089714  1.0000
  C   C427      1.0  0.22633973756960488  0.6812973425120622  0.4198407738319331  1.0000
  C   C428      1.0  0.23334821120225863  0.7253988397501009  0.4771770823346289  1.0000
  H   H601      1.0  0.25265148123394016  0.7346397003675166  0.3880823213249998  1.0000
  H   H602      1.0  0.2733031101349176  0.6991415176488787  0.3871634212977294  1.0000
  H   H603      1.0  0.27912722906103654  0.7313742596152768  0.43037953537156387  1.0000
  H   H604      1.0  0.24953448209894016  0.6657932248975795  0.5049306840874374  1.0000
  H   H605      1.0  0.2712504424705552  0.6587096999161043  0.455323794056238  1.0000
  H   H606      1.0  0.2773818262386775  0.6918315247392934  0.4963764104710477  1.0000
  H   H607      1.0  0.21302811764670118  0.6682052868996894  0.4450986686917306  1.0000
  H   H608      1.0  0.23546094943896873  0.6623360823471889  0.3962128199651602  1.0000
  H   H609      1.0  0.21430905373184936  0.697306514101386  0.39607197570326513  1.0000
  H   H610      1.0  0.22028451961514522  0.7136963079797128  0.5042796812559177  1.0000
  H   H611      1.0  0.2215148846957308  0.7427948068441605  0.45525717710678126  1.0000
  H   H612      1.0  0.24789930464763898  0.7402658505918914  0.49765525864216814  1.0000
  N   N36       1.0  0.4792115583204044  0.2054593774725875  0.43899062357263546  1.0000
  C   C429      1.0  0.4539965489971342  0.21677342131822686  0.4194070275746558  1.0000
  C   C430      1.0  0.47464270844834  0.18016821949118142  0.4764889876347409  1.0000
  C   C431      1.0  0.49322690798927393  0.23368143965826332  0.4605286324316751  1.0000
  C   C432      1.0  0.4949713948201901  0.19116380592592958  0.399493936077236  1.0000
  H   H613      1.0  0.45676365134647334  0.2348346398220849  0.3895459847506529  1.0000
  H   H614      1.0  0.4419016105257093  0.22858466275070707  0.4478885929228849  1.0000
  H   H615      1.0  0.442594532026697  0.19594119428297083  0.4041806108026576  1.0000
  H   H616      1.0  0.4636687127101831  0.15879541173417702  0.46161479972089303  1.0000
  H   H617      1.0  0.4933107784198987  0.1705076800834167  0.49108642772300487  1.0000
  H   H618      1.0  0.4634138364406679  0.19021674812974812  0.5075742214622911  1.0000
  H   H619      1.0  0.5125658842559293  0.22608887393316734  0.47468683163851516  1.0000
  H   H620      1.0  0.48226980948549114  0.24458489496353766  0.49131467697333064  1.0000
  H   H621      1.0  0.4965778513455144  0.25353547358500284  0.4334667515233562  1.0000
  H   H622      1.0  0.5144751044140352  0.1833025477343606  0.41248794908788416  1.0000
  H   H623      1.0  0.49795691333129366  0.2090090131079008  0.36944570470819055  1.0000
  H   H624      1.0  0.48546866114259446  0.16907259458376217  0.3836774484919749  1.0000
  N   N37       1.0  0.31251628967343453  0.6112897270877188  0.9984129816838601  1.0000
  C   C433      1.0  0.3399632329389518  0.6206182400187124  0.00670651923069876  1.0000
  C   C434      1.0  0.3015838828467043  0.6316225349710763  0.9589611444721318  1.0000
  C   C435      1.0  0.29746840526252005  0.616832694900367  0.04325163796805387  1.0000
  C   C436      1.0  0.3111086871724582  0.5761440305132287  0.9847932983380631  1.0000
  H   H625      1.0  0.3489795796747418  0.6053324481677091  0.035696591518917575  1.0000
  H   H626      1.0  0.3417786331895743  0.6468858409061339  0.01761861809472931  1.0000
  H   H627      1.0  0.35188184938894224  0.6169559088869968  0.9734963425199559  1.0000
  H   H628      1.0  0.303304682247478  0.658350590005012  0.9672554069126956  1.0000
  H   H629      1.0  0.3118298419354733  0.6271941708385133  0.9241021473284169  1.0000
  H   H630      1.0  0.2805297294780512  0.6264114206941304  0.9532016534351563  1.0000
  H   H631      1.0  0.3051719901654928  0.6018584563949575  0.07379934078183115  1.0000
  H   H632      1.0  0.2765859804986115  0.6102720607070613  0.03832401813979014  1.0000
  H   H633      1.0  0.29818531459786  0.6431631904231011  0.05441515772954619  1.0000
  H   H634      1.0  0.29070372297025254  0.5682173523648965  0.9779900189315549  1.0000
  H   H635      1.0  0.3192450653398969  0.5601037928080578  0.013743412380881725  1.0000
  H   H636      1.0  0.3226401619017788  0.5710012389475683  0.9515121197353144  1.0000
  N   N38       1.0  0.6763445276667374  0.8625810505841474  0.5399357908237161  1.0000
  C   C437      1.0  0.6745639542735544  0.8831829258779761  0.4959978039466597  1.0000
  C   C438      1.0  0.6654358440144695  0.8806416022731196  0.5816768359116236  1.0000
  C   C439      1.0  0.7039099404500728  0.8546787899275484  0.549712229058932  1.0000
  C   C440      1.0  0.6615013074971001  0.8318399476043872  0.5323421014869767  1.0000
  H   H637      1.0  0.6828044999264465  0.8702662393222944  0.4639528118702547  1.0000
  H   H638      1.0  0.6855317155758095  0.9066176989151342  0.5004541110812152  1.0000
  H   H639      1.0  0.6540395052293755  0.8896971565879056  0.4876033746954315  1.0000
  H   H640      1.0  0.6656717859557651  0.8653699288090592  0.615136229463714  1.0000
  H   H641      1.0  0.6767355737332038  0.9034351494600336  0.5893373604793289  1.0000
  H   H642      1.0  0.6449302021359051  0.8880466161488842  0.5749524049646901  1.0000
  H   H643      1.0  0.7156365883235029  0.8773342235185373  0.5560244736973413  1.0000
  H   H644      1.0  0.7128797824899427  0.8412832100912899  0.5188280258282422  1.0000
  H   H645      1.0  0.7059659107755444  0.8386563217075773  0.5821574606161527  1.0000
  H   H646      1.0  0.6626332467133708  0.8156270326083771  0.5645693232497601  1.0000
  H   H647      1.0  0.669287443011234  0.8174531339070497  0.5012211727703473  1.0000
  H   H648      1.0  0.640512079761005  0.8367948762543995  0.5256282330017816  1.0000
  N   N39       1.0  0.5432903606450719  0.6921654613276461  0.6590055543294467  1.0000
  C   C441      1.0  0.5523747374578574  0.7238473901851662  0.6387732904385484  1.0000
  C   C442      1.0  0.5621800200263898  0.6802218262540836  0.695289932088575  1.0000
  C   C443      1.0  0.5409626367006322  0.6677185357009553  0.6195529394262792  1.0000
  C   C444      1.0  0.5177260075343078  0.696774342746447  0.6824598173217297  1.0000
  H   H649      1.0  0.538165269905441  0.7341054386402661  0.6123920315234056  1.0000
  H   H650      1.0  0.5712459799365939  0.7210069650432284  0.6194312060662998  1.0000
  H   H651      1.0  0.5553772476169975  0.7426638456391523  0.667596828080135  1.0000
  H   H652      1.0  0.5559455157521218  0.6564003841867635  0.7115010246323336  1.0000
  H   H653      1.0  0.5815019005299262  0.6760073793324929  0.6786441006740823  1.0000
  H   H654      1.0  0.5648005500511547  0.6981592474843887  0.7253520097184836  1.0000
  H   H655      1.0  0.5345723675818593  0.6433494318704568  0.6334832336163492  1.0000
  H   H656      1.0  0.5599726389101357  0.6638544913518127  0.600989777262705  1.0000
  H   H657      1.0  0.526601742196285  0.6756597871597197  0.5917729673283411  1.0000
  H   H658      1.0  0.5109072454117802  0.6736226010741821  0.699793045810357  1.0000
  H   H659      1.0  0.5025509837700529  0.7044704468443562  0.656001512757422  1.0000
  H   H660      1.0  0.5186087012848705  0.715786549842824  0.7114341855898749  1.0000
  N   N40       1.0  0.031002508773650517  0.11156874882244083  0.7595877751314702  1.0000
  C   C445      1.0  0.03486551333114685  0.07851237160360292  0.7806697525419442  1.0000
  C   C446      1.0  0.04475023173610859  0.11379009165550125  0.7127495577248425  1.0000
  C   C447      1.0  0.04152689961076894  0.13669197479937623  0.7929923171299885  1.0000
  C   C448      1.0  0.0029139642256950093  0.11738167536481314  0.7519628531496235  1.0000
  H   H661      1.0  0.024612027788166957  0.07611043476683332  0.8159611607605556  1.0000
  H   H662      1.0  0.05581337361168481  0.07357711955880619  0.7880777987850704  1.0000
  H   H663      1.0  0.027440618479918077  0.05880480423428547  0.7564021639476499  1.0000
  H   H664      1.0  0.04213084234380471  0.13855017456311525  0.696017707174357  1.0000
  H   H665      1.0  0.06602119257544659  0.10970160008901186  0.7173926782475715  1.0000
  H   H666      1.0  0.03734013827955551  0.09520143649609603  0.68656552296203  1.0000
  H   H667      1.0  0.0402998762604625  0.16175188360504378  0.7772350774736062  1.0000
  H   H668      1.0  0.062324970926552314  0.13196345279766852  0.80187763133652  1.0000
  H   H669      1.0  0.030724446298416863  0.1369185680452205  0.8278790872715226  1.0000
  H   H670      1.0  0.9940226559746542  0.09813942325195835  0.728604051694789  1.0000
  H   H671      1.0  0.9994005199515762  0.14152863330501075  0.7342233718524087  1.0000
  H   H672      1.0  0.9920577415992903  0.11753937483086574  0.7868921324681031  1.0000
  N   N41       1.0  0.9846843503569935  0.7785100331716828  0.8861431487593073  1.0000
  C   C449      1.0  0.9622680675320305  0.7734814152393755  0.8533601781940475  1.0000
  C   C450      1.0  0.00901165924468561  0.7790671508201045  0.8576350728936969  1.0000
  C   C451      1.0  0.9858106033279433  0.7513457167904758  0.9215942058310403  1.0000
  C   C452      1.0  0.9816501589855697  0.8100730235887564  0.9121257426545601  1.0000
  H   H673      1.0  0.9435276301884818  0.7738478398070401  0.873559084309706  1.0000
  H   H674      1.0  0.9634417704930036  0.7493174332272251  0.8343725435911057  1.0000
  H   H675      1.0  0.9612202906067759  0.7929369607158124  0.8251440252521978  1.0000
  H   H676      1.0  0.026397587266859146  0.7820868386974578  0.8813638341011076  1.0000
  H   H677      1.0  0.011842941892091119  0.7556030136439842  0.8375177138224317  1.0000
  H   H678      1.0  0.009076939442542287  0.7993877658646302  0.8307044206831551  1.0000
  H   H679      1.0  0.9679748555929247  0.7503966982782152  0.9443340651838597  1.0000
  H   H680      1.0  0.0029083163523309086  0.7538058020876056  0.9461388547505644  1.0000
  H   H681      1.0  0.987771613014838  0.7271873836539694  0.9030957975931299  1.0000
  H   H682      1.0  0.9982532115901456  0.8145818768347752  0.9372064416252355  1.0000
  H   H683      1.0  0.9634829576359037  0.8103471923862683  0.9341321869271253  1.0000
  H   H684      1.0  0.9806638612377434  0.8311592787736874  0.8865050158828096  1.0000
  N   N42       1.0  0.3175182211169228  0.2718245075783522  0.18093823721348068  1.0000
  C   C453      1.0  0.3285289365479342  0.30313187936620734  0.16293923118863018  1.0000
  C   C454      1.0  0.3388325750157402  0.2484304118577094  0.1912206795677578  1.0000
  C   C455      1.0  0.30006282143411656  0.25763819058586807  0.14382344370174116  1.0000
  C   C456      1.0  0.30265686744773784  0.2780543061266326  0.22580659165072103  1.0000
  H   H685      1.0  0.31306108148329503  0.3214067601362538  0.154508918346143  1.0000
  H   H686      1.0  0.3401942579599311  0.29932021525599534  0.12942213049337514  1.0000
  H   H687      1.0  0.3418386807992766  0.3144689243440152  0.1900760932940162  1.0000
  H   H688      1.0  0.33116089722016473  0.2245096485476046  0.20487947738315793  1.0000
  H   H689      1.0  0.35057794482167715  0.24334358352073707  0.15818646101051814  1.0000
  H   H690      1.0  0.3525029856933391  0.2584297356226673  0.21886918547779133  1.0000
  H   H691      1.0  0.28364789686415687  0.2745188745834021  0.13533972886210877  1.0000
  H   H692      1.0  0.2914863252993692  0.23392189002580555  0.15624389494932145  1.0000
  H   H693      1.0  0.31068719339105916  0.2526375029169828  0.1095051208613631  1.0000
  H   H694      1.0  0.29432353899206914  0.2548729631096532  0.24068943922121955  1.0000
  H   H695      1.0  0.2861682131167425  0.29522614268937836  0.21929775354973624  1.0000
  H   H696      1.0  0.3152215269222173  0.2889822842066613  0.25444273576529053  1.0000
  N   N43       1.0  0.3150918604794041  0.055618663639341426  0.8401330500485796  1.0000
  C   C457      1.0  0.28740613081811095  0.05209185506466363  0.8264329775942867  1.0000
  C   C458      1.0  0.3169044944114755  0.0682358847835407  0.8902641879616626  1.0000
  C   C459      1.0  0.3280390203550611  0.07890918307940908  0.8068307493223432  1.0000
  C   C460      1.0  0.32803670234697235  0.02321716021489939  0.8370286230131179  1.0000
  H   H697      1.0  0.2770433458202225  0.0761102632490116  0.8278659482671521  1.0000
  H   H698      1.0  0.2769810948103099  0.03511590978229551  0.8513540468073584  1.0000
  H   H699      1.0  0.2852057837763772  0.041934228528714756  0.7891773663039  1.0000
  H   H700      1.0  0.33750008254495395  0.07133605814381694  0.9019313591366367  1.0000
  H   H701      1.0  0.3071668187592539  0.09258476219825895  0.8941036018316788  1.0000
  H   H702      1.0  0.307299397423937  0.05135400812050639  0.9164637484763628  1.0000
  H   H703      1.0  0.3490877948329437  0.08186268897029869  0.8158121943134599  1.0000
  H   H704      1.0  0.31902095619923676  0.10375848169456026  0.8086433287847395  1.0000
  H   H705      1.0  0.3268475263024868  0.0703050657328157  0.7686138791234186  1.0000
  H   H706      1.0  0.3189550215545125  0.00513116334160757  0.8620993513517238  1.0000
  H   H707      1.0  0.34905732435319137  0.025037090445449106  0.8464815746609525  1.0000
  H   H708      1.0  0.3267260534572823  0.012737577549651657  0.7997786907893882  1.0000
  N   N44       1.0  0.7135313904648348  0.8339890330189909  0.809927315456633  1.0000
  C   C461      1.0  0.7161739099058348  0.847702098784506  0.8592859865351223  1.0000
  C   C462      1.0  0.7053130576113616  0.8603480171334449  0.7763616029763949  1.0000
  C   C463      1.0  0.693836587813418  0.8074479542413784  0.8100295188860102  1.0000
  C   C464      1.0  0.7388207245230812  0.8204628892903155  0.7941182652209964  1.0000
  H   H709      1.0  0.6974696385185697  0.8580680688582704  0.8725973648602738  1.0000
  H   H710      1.0  0.730869157871089  0.8678366771362614  0.8605506492273409  1.0000
  H   H711      1.0  0.7225623062915872  0.8286571373681019  0.8856979296978492  1.0000
  H   H712      1.0  0.7200572287770907  0.880365836781932  0.7742618762973571  1.0000
  H   H713      1.0  0.7021381675270436  0.8507603536974014  0.739054854270899  1.0000
  H   H714      1.0  0.6867789081599233  0.8719489054627011  0.7883184143136194  1.0000
  H   H715      1.0  0.6914270844135106  0.7963649951106551  0.773372198338653  1.0000
  H   H716      1.0  0.6744635725562396  0.8167145142279109  0.8216518837116966  1.0000
  H   H717      1.0  0.6994360502907907  0.7871645561055896  0.8350384096793404  1.0000
  H   H718      1.0  0.7542537883661488  0.8396699490358972  0.7938938426305286  1.0000
  H   H719      1.0  0.7375731461537393  0.8097910682412902  0.7570557857204815  1.0000
  H   H720      1.0  0.7455574275708072  0.800530860479975  0.8187346119342459  1.0000
  N   N45       1.0  0.6214430800689729  0.15565433956751784  0.574572741293828  1.0000
  C   C465      1.0  0.6496072436339885  0.14862936637270296  0.5778255848196077  1.0000
  C   C466      1.0  0.6174703771855004  0.18928707921797017  0.5556916096723326  1.0000
  C   C467      1.0  0.609595367631362  0.15303361606862365  0.6231428546973414  1.0000
  C   C468      1.0  0.6090626231303786  0.13164087198307706  0.5415516333222543  1.0000
  H   H721      1.0  0.6597914947293635  0.16672459167301867  0.6014484745035207  1.0000
  H   H722      1.0  0.6590124486708719  0.14965575573354206  0.5415861284683625  1.0000
  H   H723      1.0  0.6532355027362362  0.1235855764990319  0.5928209022507129  1.0000
  H   H724      1.0  0.5964006328817554  0.19515487221092687  0.552128108332318  1.0000
  H   H725      1.0  0.6264264386945066  0.20819079331277135  0.5797010052281821  1.0000
  H   H726      1.0  0.6264282037397425  0.19221821651874849  0.5193965533232004  1.0000
  H   H727      1.0  0.6126078934386466  0.12810051134492073  0.6387822510039748  1.0000
  H   H728      1.0  0.5882216014531995  0.15758897475837208  0.621777012667523  1.0000
  H   H729      1.0  0.6182220012095478  0.17115870299569802  0.6487343005704842  1.0000
  H   H730      1.0  0.5876110609361941  0.13476140863973107  0.5405242086494917  1.0000
  H   H731      1.0  0.6128557573086854  0.10590014828752103  0.5531223067131569  1.0000
  H   H732      1.0  0.6163537051791207  0.1342909494641542  0.503844629450413  1.0000
  N   N46       1.0  0.49262341244982366  0.49155966067207374  0.023947028424677223  1.0000
  C   C469      1.0  0.5114234449244234  0.5122446712265563  0.9972386297901326  1.0000
  C   C470      1.0  0.46815916722277834  0.5100221477320661  0.030879124824034987  1.0000
  C   C471      1.0  0.5035295357578049  0.48265255018132247  0.07171495594591626  1.0000
  C   C472      1.0  0.48727766592988975  0.46127436560906265  0.9959643243012192  1.0000
  H   H733      1.0  0.5300743492751523  0.4990381356575297  0.9910387811614211  1.0000
  H   H734      1.0  0.5158048010655258  0.5354005202390497  0.017149941345306896  1.0000
  H   H735      1.0  0.5036845094031586  0.5192992815385883  0.9609563436170877  1.0000
  H   H736      1.0  0.4528471485650049  0.49420553924715127  0.0473278178636607  1.0000
  H   H737      1.0  0.4709506540364877  0.5317243349944539  0.05486371645679289  1.0000
  H   H738      1.0  0.4603770358431733  0.5193056151912671  0.9959455521527979  1.0000
  H   H739      1.0  0.4896443934109457  0.4672011015986804  0.09272295722399315  1.0000
  H   H740      1.0  0.5077804447363873  0.5048801942243084  0.0939187428963284  1.0000
  H   H741      1.0  0.5219312662067308  0.4685021100989523  0.06798658840236894  1.0000
  H   H742      1.0  0.47235755947296476  0.4456555147710049  0.014162117701339572  1.0000
  H   H743      1.0  0.5051277109684492  0.4462003192339991  0.9912115519684928  1.0000
  H   H744      1.0  0.47990433789323406  0.46715408473012143  0.9591095747525261  1.0000
  N   N47       1.0  0.2065904548632003  0.76689362911925  0.11069085204598618  1.0000
  C   C473      1.0  0.19424181226372694  0.7988734044689981  0.12174905312516453  1.0000
  C   C474      1.0  0.18663666886781086  0.7436011288990271  0.09289931073243164  1.0000
  C   C475      1.0  0.21887293750850204  0.7533665368020968  0.15479344975738127  1.0000
  C   C476      1.0  0.226648001559231  0.7717092481717561  0.07309596683569608  1.0000
  H   H745      1.0  0.17894282505634174  0.7963228134390873  0.14995541185635028  1.0000
  H   H746      1.0  0.184828670245478  0.8095899618618199  0.08893168165500766  1.0000
  H   H747      1.0  0.20875828145238998  0.8171971442112338  0.13477717690618238  1.0000
  H   H748      1.0  0.1954431178313934  0.7195678723572472  0.08234077295820508  1.0000
  H   H749      1.0  0.1716811960403708  0.7384647047783073  0.12098535626586616  1.0000
  H   H750      1.0  0.1763054826162212  0.7536184681883386  0.060633854026579836  1.0000
  H   H751      1.0  0.2282072829979184  0.7291363738402843  0.14734169561691787  1.0000
  H   H752      1.0  0.2043410469399594  0.7494512404814142  0.1840750028218777  1.0000
  H   H753      1.0  0.23421776208793393  0.7701302111485523  0.1690130798887341  1.0000
  H   H754      1.0  0.23638429513560524  0.7481471382127431  0.06368031940232988  1.0000
  H   H755      1.0  0.24200087238976722  0.7892385847974194  0.08505923680096994  1.0000
  H   H756      1.0  0.2180298522914167  0.7817399578570812  0.039286660913492984  1.0000
  N   N48       1.0  0.4525494457934719  0.9963107492960573  0.6522668393770298  1.0000
  C   C477      1.0  0.4287960500369076  0.9863826101692177  0.6258489044510731  1.0000
  C   C478      1.0  0.44575782696427985  0.004910463327697512  0.7027217420129767  1.0000
  C   C479      1.0  0.46432579396203383  0.025226656665161773  0.6283386059063083  1.0000
  C   C480      1.0  0.4712619980490045  0.9687139874080071  0.6521087099979596  1.0000
  H   H757      1.0  0.43303392468550184  0.9800886829383878  0.5874382009773194  1.0000
  H   H758      1.0  0.41417309997609864  0.006467203845863967  0.6254762834131109  1.0000
  H   H759      1.0  0.4194544842696939  0.9645509728262046  0.6428005186584309  1.0000
  H   H760      1.0  0.43194874908688796  0.02595405047434185  0.7041006452228905  1.0000
  H   H761      1.0  0.4364801543618381  0.9839039303895305  0.7218702988432221  1.0000
  H   H762      1.0  0.4632789612334218  0.012227810949077655  0.7238800560667653  1.0000
  H   H763      1.0  0.46947422433403446  0.019828088626246965  0.5900500372549913  1.0000
  H   H764      1.0  0.48248157876621056  0.03310845067228563  0.6471546436586129  1.0000
  H   H765      1.0  0.4507441715782375  0.04658521153164874  0.6283304169338296  1.0000
  H   H766      1.0  0.48950970490899465  0.9752957806995423  0.6715206861805383  1.0000
  H   H767      1.0  0.47676746680019005  0.9616137978691078  0.6145814962476587  1.0000
  H   H768      1.0  0.46305650912858504  0.9465879326483779  0.6702429859538975  1.0000
