data_image0
_chemical_formula_structural       FeS2FeS2FeSFeS3FeS2FeS2FeSFeS3FeS2FeS2FeSFeS3FeS2FeS2FeSFeS3FeS2FeS2FeSFeS3FeS2FeS2FeSFeS3FeS2FeS2FeSFeS3FeS2FeS2FeSFeS3FeS2FeS2FeSFeS3FeS2FeS2FeSFeS3FeS2FeS2FeSFeS3FeS2FeS2FeSFeS3C6H4C6H4C6H4C6H4C6H4C6H4C6H4C6H4C6H4C6H4C6H4C6H4C6H4C6H4C6H4C6H4C6H4C6H4C6H4C6H4C6H4C6H4C6H4C6H4FeS2FeS2FeSFeS3FeS2FeS2FeSFeS3FeS2FeS2FeSFeS3FeS2FeS2FeSFeS3FeS2FeS2FeSFeS3FeS2FeS2FeSFeS3FeS2FeS2FeSFeS3FeS2FeS2FeSFeS3FeS2FeS2FeSFeS3FeS2FeS2FeSFeS3FeS2FeS2FeSFeS3FeS2FeS2FeSFeS3C6H4C6H4C6H4C6H4C6H4C6H4C6H4C6H4C6H4C6H4C6H4C6H4C6H4C6H4C6H4C6H4C6H4C6H4C6H4C6H4C6H4C6H4C6H4C6H4NC4H12NC4H12NC4H12NC4H12NC4H12NC4H12NC4H12NC4H12NC4H12NC4H12NC4H12NC4H12NC4H12NC4H12NC4H12NC4H12NC4H12NC4H12NC4H12NC4H12NC4H12NC4H12NC4H12NC4H12NC4H12NC4H12NC4H12NC4H12NC4H12NC4H12NC4H12NC4H12NC4H12NC4H12NC4H12NC4H12NC4H12NC4H12NC4H12NC4H12NC4H12NC4H12NC4H12NC4H12NC4H12NC4H12NC4H12NC4H12
_chemical_formula_sum              "Fe96 S192 C480 H768 N48"
_cell_length_a       31.47370732391962
_cell_length_b       38.43512451886474
_cell_length_c       23.15229970298038
_cell_angle_alpha    90.51021989347419
_cell_angle_beta     90.60880225894489
_cell_angle_gamma    89.11113772210139

_space_group_name_H-M_alt    "P 1"
_space_group_IT_number       1

loop_
  _space_group_symop_operation_xyz
  'x, y, z'

loop_
  _atom_site_type_symbol
  _atom_site_label
  _atom_site_symmetry_multiplicity
  _atom_site_fract_x
  _atom_site_fract_y
  _atom_site_fract_z
  _atom_site_occupancy
  Fe  Fe1       1.0  0.430785973460491  0.6061048272597144  0.36758880823110424  1.0000
  S   S1        1.0  0.37632302999294776  0.6261486421679457  0.3134071713463195  1.0000
  S   S2        1.0  0.45699190605271495  0.5516725133776025  0.37088286871205367  1.0000
  Fe  Fe2       1.0  0.44854317760336576  0.6762059664991575  0.421222011899767  1.0000
  S   S3        1.0  0.3959534704596185  0.702836135849643  0.37241978973240025  1.0000
  S   S4        1.0  0.48855004098080973  0.7033604511290346  0.4875673271980904  1.0000
  Fe  Fe3       1.0  0.35778773829670163  0.6559838580259427  0.3932954718562608  1.0000
  S   S5        1.0  0.2899339065640584  0.6666955405580183  0.4185668434260634  1.0000
  Fe  Fe4       1.0  0.41904165205239585  0.6711754925426656  0.2969720415537656  1.0000
  S   S6        1.0  0.42946174125512404  0.6911016939173232  0.2073818549135562  1.0000
  S   S7        1.0  0.4085640511127641  0.6319423138856185  0.449157939135797  1.0000
  S   S8        1.0  0.47525236429809764  0.648461208037234  0.34435231090327645  1.0000
  Fe  Fe5       1.0  0.42687019697199025  0.8781837601732402  0.5677754873021377  1.0000
  S   S9        1.0  0.3884540509130046  0.8422114444879502  0.6210424067883579  1.0000
  S   S10       1.0  0.4415554464415545  0.8632177058863527  0.47657382453896824  1.0000
  Fe  Fe6       1.0  0.43593716955651657  0.931896451296896  0.6637749441550888  1.0000
  S   S11       1.0  0.3977070339266482  0.901117985247929  0.7257802269013224  1.0000
  S   S12       1.0  0.45920912894986066  0.9842950521545635  0.6922044956784015  1.0000
  Fe  Fe7       1.0  0.43479621353033737  0.8552999978206439  0.6916916261320264  1.0000
  S   S13       1.0  0.3123002995430181  0.8178331117277997  0.13271109777354506  1.0000
  Fe  Fe8       1.0  0.3553272023209637  0.8911148471662718  0.6495512836179534  1.0000
  S   S14       1.0  0.2849340661001224  0.8962351507886166  0.6500747470587472  1.0000
  S   S15       1.0  0.4767474385415126  0.8866375534886107  0.6355487732678617  1.0000
  S   S16       1.0  0.38982803486437856  0.926404973639074  0.5904009808713366  1.0000
  Fe  Fe9       1.0  0.6295825957283967  0.24661100944164466  0.7172490463440765  1.0000
  S   S17       1.0  0.605564250502937  0.20820985321225857  0.7806982215769257  1.0000
  S   S18       1.0  0.686046543791949  0.27905402242077776  0.7389878291988097  1.0000
  Fe  Fe10      1.0  0.5581494692113086  0.234160153446252  0.6321150464178504  1.0000
  S   S19       1.0  0.5271630611457812  0.19502706881873075  0.6878464043780663  1.0000
  S   S20       1.0  0.5307848900804883  0.2461222101697405  0.5449784127806506  1.0000
  Fe  Fe11      1.0  0.5417975239642623  0.23168395761800298  0.7601436347264163  1.0000
  S   S21       1.0  0.4958046989890744  0.2381031093828611  0.8322845220533824  1.0000
  Fe  Fe12      1.0  0.5933045418241665  0.17490105375426243  0.7027522310963078  1.0000
  S   S22       1.0  0.6021288194385178  0.11718208997692295  0.7027075553177733  1.0000
  S   S23       1.0  0.5667872448657173  0.2734004462420911  0.7031747692201538  1.0000
  S   S24       1.0  0.6237387109465554  0.21086863412954465  0.640502232881567  1.0000
  Fe  Fe13      1.0  0.3305905373788421  0.3467120102133282  0.3596131365099153  1.0000
  S   S25       1.0  0.322653539456084  0.36531224599338064  0.45110161381641234  1.0000
  S   S26       1.0  0.38325045437086397  0.37378220556955355  0.8002083353971815  1.0000
  Fe  Fe14      1.0  0.255471405470009  0.29857309770122525  0.36359333519840265  1.0000
  S   S27       1.0  0.24102042980140256  0.3124043762010103  0.45538077890684564  1.0000
  S   S28       1.0  0.20956448318003676  0.26438582156850976  0.3163080796674791  1.0000
  Fe  Fe15      1.0  0.2531188479224611  0.36699937426404494  0.42880811865133456  1.0000
  S   S29       1.0  0.20618724504810815  0.4098121805488373  0.44766214833092316  1.0000
  Fe  Fe16      1.0  0.3114910532167192  0.30885415634179963  0.46927068295274893  1.0000
  S   S30       1.0  0.3344944290120668  0.2830440577122578  0.5507887885428758  1.0000
  S   S31       1.0  0.26194875490133657  0.35344425142117447  0.3355358974256974  1.0000
  S   S32       1.0  0.3252498493416236  0.2899418714094791  0.37932731134123165  1.0000
  Fe  Fe17      1.0  0.9757667664143717  0.09653705851794822  0.6232482472432628  1.0000
  S   S33       1.0  0.9357191422524767  0.06709151804656943  0.5589216015174105  1.0000
  S   S34       1.0  0.03712424439836992  0.0780076776221189  0.6636330034927121  1.0000
  Fe  Fe18      1.0  0.9033058654630343  0.1463839068219345  0.6564210809139026  1.0000
  S   S35       1.0  0.8575182951785155  0.12179429138505343  0.5947934919732472  1.0000
  S   S36       1.0  0.8703208477036218  0.16319429541759808  0.26330787045790094  1.0000
  Fe  Fe19      1.0  0.8844070020977244  0.07114591351760216  0.6251961011497074  1.0000
  S   S37       1.0  0.8421024014688597  0.029356370710777346  0.6564234776130228  1.0000
  Fe  Fe20      1.0  0.9124185433327615  0.12064843725689005  0.5343436603902185  1.0000
  S   S38       1.0  0.8937187384807105  0.13618351573165585  0.4448404048773071  1.0000
  S   S39       1.0  0.926131773551823  0.09552728573177961  0.6913462373413792  1.0000
  S   S40       1.0  0.9566147203136285  0.15021603553873522  0.5934476793855313  1.0000
  Fe  Fe21      1.0  0.8837209575586896  0.328305065460932  0.42117695838061864  1.0000
  S   S41       1.0  0.9536168535252486  0.31649358591772203  0.4209944932909459  1.0000
  S   S42       1.0  0.8345432865358265  0.29370893145809357  0.4589922942468786  1.0000
  Fe  Fe22      1.0  0.893147867011609  0.3951422594248193  0.3543433942317258  1.0000
  S   S43       1.0  0.9639085196468838  0.3887755124449317  0.34682262807837555  1.0000
  S   S44       1.0  0.8594113986322949  0.4418870728951084  0.3179916086881885  1.0000
  Fe  Fe23      1.0  0.94974447520823  0.33281310874702286  0.3282175729888722  1.0000
  S   S45       1.0  0.9773590313553742  0.3004967492946581  0.2562662908154882  1.0000
  Fe  Fe24      1.0  0.9607583265782516  0.3731769838841318  0.43989613031965946  1.0000
  S   S46       1.0  0.0040032613325764466  0.3891344694527945  0.5123602699721284  1.0000
  S   S47       1.0  0.8791094863059801  0.3406516569455973  0.3269349224066572  1.0000
  S   S48       1.0  0.8910004217163786  0.3838462922433027  0.44873392880023577  1.0000
  Fe  Fe25      1.0  0.7755254672777218  0.7882963302256395  0.6514879390535917  1.0000
  S   S49       1.0  0.7670195569421363  0.7361657501178718  0.6091494648859535  1.0000
  S   S50       1.0  0.8284870701378261  0.8030745518679475  0.7118556006553011  1.0000
  Fe  Fe26      1.0  0.6917832088002263  0.8170729984120323  0.6080557694283976  1.0000
  S   S51       1.0  0.6745013327080711  0.7681825537500397  0.5606009188239726  1.0000
  S   S52       1.0  0.646087170454391  0.8622798386376624  0.6141254484818089  1.0000
  Fe  Fe27      1.0  0.6997589984927209  0.7409267293955837  0.6390623560476837  1.0000
  S   S53       1.0  0.6681727386212652  0.6944970555267205  0.6757610955923417  1.0000
  Fe  Fe28      1.0  0.7425921720074695  0.7670058237709894  0.5334701126829053  1.0000
  S   S54       1.0  0.7590046059795901  0.7552116947101504  0.44137118503389255  1.0000
  S   S55       1.0  0.7104371672779816  0.7897758404509331  0.6895733300147241  1.0000
  S   S56       1.0  0.7577466709339997  0.8188407777010801  0.573017779635066  1.0000
  Fe  Fe29      1.0  0.973959277283641  0.7974052140701626  0.3579940752206079  1.0000
  S   S57       1.0  0.9530278598467323  0.8532263809226488  0.36666850094078085  1.0000
  S   S58       1.0  0.9583201008882447  0.758547595973114  0.4258772546448188  1.0000
  Fe  Fe30      1.0  0.029222621143819127  0.8109566479088561  0.25417919140679934  1.0000
  S   S59       1.0  0.015321262870221508  0.8681747137345248  0.25496480172540104  1.0000
  S   S60       1.0  0.07109760218656169  0.7852707871576339  0.18839455385718384  1.0000
  Fe  Fe31      1.0  0.021563049162717007  0.8641080810164024  0.35132379126584085  1.0000
  S   S61       1.0  0.0635889357524364  0.8929182794645458  0.4123646346518426  1.0000
  Fe  Fe32      1.0  0.9479455668641402  0.8519342694578438  0.269567885550729  1.0000
  S   S62       1.0  0.9803718291421667  0.8912036078413957  0.619385014029947  1.0000
  S   S63       1.0  0.04278434337186798  0.8086526227658318  0.34886323333487496  1.0000
  S   S64       1.0  0.9619189660490755  0.7944411338956218  0.2624838742569404  1.0000
  Fe  Fe33      1.0  0.2360720811043888  0.012521668780504314  0.408191405935288  1.0000
  S   S65       1.0  0.21119336047811413  0.03638600633267597  0.3265404324234161  1.0000
  S   S66       1.0  0.2611639837931613  0.9576394661650877  0.40183268463463906  1.0000
  Fe  Fe34      1.0  0.21981257987836944  0.07824487660682601  0.4789422622543626  1.0000
  S   S67       1.0  0.19215159438779117  0.1073994702698964  0.4040404199427472  1.0000
  S   S68       1.0  0.2214076762043835  0.10067107365324747  0.5681832564475315  1.0000
  Fe  Fe35      1.0  0.15926621620881698  0.057488917830027964  0.38306185258812014  1.0000
  S   S69       1.0  0.09073078822486291  0.05051284858593208  0.3593760624773464  1.0000
  Fe  Fe36      1.0  0.2468056097833908  0.08337153112523732  0.3554190959613026  1.0000
  S   S70       1.0  0.28892595657591225  0.1140906525257214  0.29827939070465764  1.0000
  S   S71       1.0  0.1818689626509271  0.030623428058357716  0.46338169511001176  1.0000
  S   S72       1.0  0.2770793996652925  0.0576565234147962  0.4323108365636411  1.0000
  Fe  Fe37      1.0  0.07781958612728057  0.5649190917516318  0.5841338468477267  1.0000
  S   S73       1.0  0.03662713319417099  0.5667879756322888  0.6623401852727689  1.0000
  S   S74       1.0  0.052539020418493676  0.5471697159665481  0.4983820568956892  1.0000
  Fe  Fe38      1.0  0.15643968988170154  0.5885739546885356  0.6491133965964626  1.0000
  S   S75       1.0  0.12220519157495377  0.5920241132650716  0.7333681688210937  1.0000
  S   S76       1.0  0.2269494040682241  0.597529938539199  0.6483437766177956  1.0000
  Fe  Fe39      1.0  0.09271454622697227  0.5417599715144192  0.7061253608375773  1.0000
  S   S77       1.0  0.08560888192309067  0.49826821871483545  0.7687393191096796  1.0000
  Fe  Fe40      1.0  0.06977122161888705  0.6167731673529017  0.6816118492442657  1.0000
  S   S78       1.0  0.034724565252959305  0.6622310097077543  0.7204267034892167  1.0000
  S   S79       1.0  0.13168528941817015  0.5357734501079134  0.6263154765805486  1.0000
  S   S80       1.0  0.10610130556105224  0.6175069528958818  0.5986661851584933  1.0000
  Fe  Fe41      1.0  0.5870475781847062  0.995026568403029  0.342239542021094  1.0000
  S   S81       1.0  0.5830679053078426  0.9898308560087494  0.4379534478012143  1.0000
  S   S82       1.0  0.5648520564820475  0.9466137474459949  0.2971197441196547  1.0000
  Fe  Fe42      1.0  0.6224454798057382  0.06780770302737253  0.3513126709725178  1.0000
  S   S83       1.0  0.6201368793605212  0.06888440281076004  0.44768769089055604  1.0000
  S   S84       1.0  0.6533857316546445  0.1143407673029367  0.3139619044953912  1.0000
  Fe  Fe43      1.0  0.6468336301041886  0.015029044972100891  0.4403830387022852  1.0000
  S   S85       1.0  0.7040013118345316  0.9988692468195283  0.4922618039518589  1.0000
  Fe  Fe44      1.0  0.5568618812886946  0.044007780922037165  0.4349261845422074  1.0000
  S   S86       1.0  0.5009223437257381  0.058885048900478354  0.4881276976761562  1.0000
  S   S87       1.0  0.6535668171064071  0.015055153162629287  0.3445617289967294  1.0000
  S   S88       1.0  0.5560524882121024  0.04812726957432911  0.33887102711585504  1.0000
  Fe  Fe45      1.0  0.5648271812973438  0.4801500228224462  0.12532481073965784  1.0000
  S   S89       1.0  0.6665412370228502  0.4942956439357459  0.6022178368775398  1.0000
  S   S90       1.0  0.4950706054073695  0.49299038629909264  0.12128006059207828  1.0000
  Fe  Fe46      1.0  0.6401042307240955  0.4499979173453684  0.1929923248062557  1.0000
  S   S91       1.0  0.7559287228654521  0.48243935970910207  0.528847335838605  1.0000
  S   S92       1.0  0.6646407180026456  0.41732738023803223  0.26649484330912837  1.0000
  Fe  Fe47      1.0  0.7120946444692451  0.5265894578848406  0.5530037607378905  1.0000
  S   S93       1.0  0.6928378346226682  0.5713138051682178  0.497361433385017  1.0000
  Fe  Fe48      1.0  0.713887076565391  0.4509515760768312  0.5855157499007244  1.0000
  S   S94       1.0  0.693923503864145  0.3982423430401816  0.5537765247739144  1.0000
  S   S95       1.0  0.6047591245717451  0.5009503593962239  0.19825343131098758  1.0000
  S   S96       1.0  0.5949985471060594  0.4271209093984137  0.12767164099507022  1.0000
  C   C1        1.0  0.11566425443457273  0.7592912744396864  0.7246495471657832  1.0000
  C   C2        1.0  0.07872748623412917  0.7578995378002034  0.7574527272833318  1.0000
  C   C3        1.0  0.05474671598913905  0.7275387887325674  0.7576563486061303  1.0000
  C   C4        1.0  0.0676330303752748  0.698518388348341  0.7250919342539102  1.0000
  C   C5        1.0  0.10562702394933021  0.6993870309876326  0.6943810548586158  1.0000
  C   C6        1.0  0.12963110169801428  0.7297998509443596  0.6940865120793197  1.0000
  H   H1        1.0  0.06893423466807147  0.7799877476473422  0.7834046971129129  1.0000
  H   H2        1.0  0.02630337625852963  0.7265287232855672  0.7831709879216469  1.0000
  H   H3        1.0  0.1162279486566049  0.6769285291341822  0.6700032943496351  1.0000
  H   H4        1.0  0.12589007864791335  0.7301764486257444  0.14428679085830562  1.0000
  C   C7        1.0  0.06988188122232564  0.9358652719437999  0.39137858268606557  1.0000
  C   C8        1.0  0.11060169629375771  0.9494553251466077  0.39275382280098015  1.0000
  C   C9        1.0  0.11680366820672017  0.9838664163209273  0.37733016736008995  1.0000
  C   C10       1.0  0.08217863134310299  0.0058315976833727134  0.3653662487718459  1.0000
  C   C11       1.0  0.04116729189827928  0.9921968199146173  0.36295809884230884  1.0000
  C   C12       1.0  0.03508704784111405  0.9568171445310325  0.37494307492299245  1.0000
  H   H5        1.0  0.13758024438114536  0.933410147673582  0.40544757556301003  1.0000
  H   H6        1.0  0.1486314563513118  0.9933556259565535  0.3754748954995152  1.0000
  H   H7        1.0  0.01424536714857938  0.008901625840481042  0.352643474278229  1.0000
  H   H8        1.0  0.003469193634982659  0.9461331204486384  0.37357687637277026  1.0000
  C   C13       1.0  0.9349517131074795  0.8701203668112384  0.6440974393109185  1.0000
  C   C14       1.0  0.9066636815897899  0.8544959062669143  0.6049369138987503  1.0000
  C   C15       1.0  0.8727602195912435  0.8347333854343828  0.6252451007571526  1.0000
  C   C16       1.0  0.8671269321810434  0.8307809286992809  0.6847196718544939  1.0000
  C   C17       1.0  0.8946422056448531  0.8472866593464167  0.7236956216841585  1.0000
  C   C18       1.0  0.9283760908825743  0.8669530524757001  0.7034460613991684  1.0000
  H   H9        1.0  0.9115416826839602  0.8569210549403075  0.5589454499138462  1.0000
  H   H10       1.0  0.8519048688427787  0.8217715913652305  0.5948240028683957  1.0000
  H   H11       1.0  0.8905460260219313  0.84420445104069  0.7697554121583703  1.0000
  H   H12       1.0  0.9494330065279405  0.8795553516143485  0.734026571412766  1.0000
  C   C19       1.0  0.814405321757854  0.7545086042868403  0.4360045780547501  1.0000
  C   C20       1.0  0.8395612928060676  0.7404128812368327  0.4804903750998736  1.0000
  C   C21       1.0  0.883969444244617  0.7408695239001735  0.47693152719037185  1.0000
  C   C22       1.0  0.9030965352019527  0.7558754781708703  0.4291853886102935  1.0000
  C   C23       1.0  0.8780146168110001  0.769589358750009  0.3845476517772587  1.0000
  C   C24       1.0  0.8336554594556925  0.7687110448528209  0.38764014100550664  1.0000
  H   H13       1.0  0.8248431467984728  0.7288272846831011  0.5172994112339436  1.0000
  H   H14       1.0  0.9034163221695005  0.7300886950101378  0.5113411307436349  1.0000
  H   H15       1.0  0.8929813049625018  0.7811096645133099  0.3478905230827083  1.0000
  H   H16       1.0  0.8144609494509246  0.7801614395965146  0.3535472095506643  1.0000
  C   C25       1.0  0.6730338627068541  0.6605897703091487  0.6252669894974161  1.0000
  C   C26       1.0  0.6640640155760837  0.6265442774220259  0.6413235144419619  1.0000
  C   C27       1.0  0.6698676451592143  0.5991600888718536  0.6017242286353135  1.0000
  C   C28       1.0  0.6840345380023425  0.6058367471646416  0.5457785270764114  1.0000
  C   C29       1.0  0.6919359766889067  0.6399806317848854  0.5292952453162036  1.0000
  C   C30       1.0  0.6868884288358846  0.6673018925089341  0.5692455552010239  1.0000
  H   H17       1.0  0.6531641751799782  0.6212435232065918  0.6845239206914565  1.0000
  H   H18       1.0  0.6630580450616147  0.5728666435198487  0.6145088999697245  1.0000
  H   H19       1.0  0.7029081987364486  0.6452382551431158  0.4861477948057596  1.0000
  H   H20       1.0  0.6938040396619283  0.6935319743765406  0.556465197258874  1.0000
  C   C31       1.0  0.6894778618508921  0.9622187008926281  0.5309399451200223  1.0000
  C   C32       1.0  0.719411217382493  0.9360849190526046  0.5435865568031536  1.0000
  C   C33       1.0  0.7066452171156012  0.9057130089423807  0.5711697833892767  1.0000
  C   C34       1.0  0.6640953610360542  0.9015319352595301  0.5860566446033783  1.0000
  C   C35       1.0  0.6348331482383719  0.928586351332316  0.5760961097666153  1.0000
  C   C36       1.0  0.6475683568582994  0.958971850102647  0.5490520793167594  1.0000
  H   H21       1.0  0.7521455969783647  0.9388972578826552  0.5307351395869263  1.0000
  H   H22       1.0  0.7297252080775729  0.8855998771681641  0.5802632575147904  1.0000
  H   H23       1.0  0.6020253685291557  0.9259110567210722  0.5882791324050417  1.0000
  H   H24       1.0  0.6249259025216388  0.9799953119807988  0.5427435125374199  1.0000
  C   C37       1.0  0.8047128354957368  0.4358188984513026  0.3074808094268876  1.0000
  C   C38       1.0  0.780817567088747  0.46084452968214756  0.277310600397359  1.0000
  C   C39       1.0  0.737551406079268  0.4556190729862115  0.2657716196288037  1.0000
  C   C40       1.0  0.7181024228100764  0.4251882228228714  0.2838807872089928  1.0000
  C   C41       1.0  0.7417955293310626  0.40045025482816354  0.3151866519606653  1.0000
  C   C42       1.0  0.7850683819401324  0.4057790199664683  0.32709691563458293  1.0000
  H   H25       1.0  0.7957639246967182  0.48430088168136054  0.2626488166904859  1.0000
  H   H26       1.0  0.719149975210959  0.47544426607812684  0.2436048063527098  1.0000
  H   H27       1.0  0.7267445648607275  0.37706966846337864  0.32992484187660837  1.0000
  H   H28       1.0  0.8031359960812924  0.38664293704740393  0.3513797239904874  1.0000
  C   C43       1.0  0.019667970229394482  0.43249875822505524  0.5075159590768001  1.0000
  C   C44       1.0  0.018988431020141805  0.4495601948705129  0.4543894034320944  1.0000
  C   C45       1.0  0.030456240232571874  0.48457845689159323  0.45137677707682755  1.0000
  C   C46       1.0  0.04196258610532766  0.5026864064017541  0.5016641942652801  1.0000
  C   C47       1.0  0.04307117508606084  0.4855299082041038  0.5546937207903583  1.0000
  C   C48       1.0  0.03225090387813623  0.45037410026636604  0.5575321015607367  1.0000
  H   H29       1.0  0.009970402005553547  0.43582684517230136  0.41554465751574193  1.0000
  H   H30       1.0  0.03003492886213066  0.49772334573377114  0.41023350690978  1.0000
  H   H31       1.0  0.05156240652713606  0.49939707822632806  0.5938138680176498  1.0000
  H   H32       1.0  0.03277230742949544  0.4372864650001307  0.5987303618845609  1.0000
  C   C49       1.0  0.9011840328100795  0.20055657780695604  0.2598891343677143  1.0000
  C   C50       1.0  0.9258199283019526  0.20779680461475256  0.21154199262679318  1.0000
  C   C51       1.0  0.950060253216115  0.23821410057706907  0.21038262726737367  1.0000
  C   C52       1.0  0.9489122651350506  0.2615712048044442  0.2571196447206366  1.0000
  C   C53       1.0  0.9239159408808855  0.25416039180007977  0.3048293030939264  1.0000
  C   C54       1.0  0.9006381406137424  0.22365021754223752  0.3064954931285121  1.0000
  H   H33       1.0  0.9263769436541804  0.1900327922126699  0.1752378500255607  1.0000
  H   H34       1.0  0.9691195842109249  0.24379847882526887  0.17319972785627333  1.0000
  H   H35       1.0  0.922516294169261  0.27168554387940225  0.34106140208664654  1.0000
  H   H36       1.0  0.8820389674414647  0.21806934186379834  0.3440349115292111  1.0000
  C   C55       1.0  0.8772551384328782  0.1798926015009317  0.44950062459726253  1.0000
  C   C56       1.0  0.9060936843533762  0.2053823288121227  0.4668335833196371  1.0000
  C   C57       1.0  0.8931165221939079  0.2404402518140107  0.46981747049876554  1.0000
  C   C58       1.0  0.8510524516771288  0.24993736969395067  0.45679783853809147  1.0000
  C   C59       1.0  0.8217229474691854  0.22425725040983746  0.4420462461316064  1.0000
  C   C60       1.0  0.8349065350243805  0.18930806898201286  0.4376696750729975  1.0000
  H   H37       1.0  0.9386920227636283  0.19815589346278903  0.47688881455314436  1.0000
  H   H38       1.0  0.9156208392401501  0.25999077867904724  0.48293081501935675  1.0000
  H   H39       1.0  0.7889713664351597  0.23145399943353911  0.43325865542496417  1.0000
  H   H40       1.0  0.8122547083687298  0.16963876830310953  0.425654112563796  1.0000
  C   C61       1.0  0.7288646177990009  0.0765713304498344  0.15866730141630292  1.0000
  C   C62       1.0  0.6923484228366981  0.05898059400715476  0.17474700279445932  1.0000
  C   C63       1.0  0.668593767658618  0.07088372013982053  0.22204800389842028  1.0000
  C   C64       1.0  0.6806238304008905  0.10097125202933337  0.2520229027190977  1.0000
  C   C65       1.0  0.7164150889084611  0.11912185246290175  0.23485800831938053  1.0000
  C   C66       1.0  0.741008611487938  0.10655595299589217  0.18891647022855085  1.0000
  H   H41       1.0  0.6827370023557896  0.03590704500979358  0.15117335641342497  1.0000
  H   H42       1.0  0.6406041992343648  0.05703362819787957  0.2348220408644239  1.0000
  H   H43       1.0  0.7255958688299334  0.14242079281558873  0.2579158730472574  1.0000
  H   H44       1.0  0.7690596381433645  0.12031913460793157  0.17662047828793548  1.0000
  C   C67       1.0  0.08709731071442706  0.08887584856325514  0.6368573653888868  1.0000
  C   C68       1.0  0.12231818880358514  0.08674509285459332  0.6741898534797679  1.0000
  C   C69       1.0  0.16334690045731803  0.09198571921935665  0.6534913189116136  1.0000
  C   C70       1.0  0.16951857203993104  0.09811891411065843  0.5948331154566933  1.0000
  C   C71       1.0  0.13429518661947015  0.10038881841838572  0.5572956156288251  1.0000
  C   C72       1.0  0.09296230402329608  0.09644397606485981  0.5785155107923421  1.0000
  H   H45       1.0  0.11792322977423186  0.08072561535015924  0.719288584999715  1.0000
  H   H46       1.0  0.19032082635960768  0.09017576009823765  0.6826989300688391  1.0000
  H   H47       1.0  0.13884878821380098  0.10515129558295183  0.5118714808369373  1.0000
  H   H48       1.0  0.06590161434341058  0.09813086862697487  0.54944727812945  1.0000
  C   C73       1.0  0.2316120305670227  0.2230508356593902  0.30298846831976933  1.0000
  C   C74       1.0  0.2050851262357361  0.1943225573270815  0.29828406363960214  1.0000
  C   C75       1.0  0.2227261708011502  0.16073537769141016  0.29373408524046946  1.0000
  C   C76       1.0  0.2668379160654718  0.1559454620628696  0.29335375618653514  1.0000
  C   C77       1.0  0.2933153237805715  0.18480719787356206  0.2941019803057624  1.0000
  C   C78       1.0  0.27565525153944914  0.2183815240620145  0.2991252833116508  1.0000
  H   H49       1.0  0.17094012612305828  0.19787928245155428  0.29999747154248924  1.0000
  H   H50       1.0  0.20212385195681004  0.1384950500951687  0.29102425108031715  1.0000
  H   H51       1.0  0.32746740377134265  0.1811456031862217  0.2930661572967632  1.0000
  H   H52       1.0  0.2961586278900289  0.24056928421649562  0.300262245844285  1.0000
  C   C79       1.0  0.2118180157226515  0.49026799035369634  0.8642185782962308  1.0000
  C   C80       1.0  0.25405498175410457  0.4412478204754729  0.3671243221577493  1.0000
  C   C81       1.0  0.17013464364748218  0.5099626964250826  0.7821477602685432  1.0000
  C   C82       1.0  0.1348521770718891  0.4925658877079919  0.8029321558089801  1.0000
  C   C83       1.0  0.13855372671212685  0.4726354917278976  0.8530773350533516  1.0000
  C   C84       1.0  0.17717118431257778  0.4714377578722602  0.8837377296377675  1.0000
  H   H53       1.0  0.28093352274882843  0.4280990995504368  0.38719963245079536  1.0000
  H   H54       1.0  0.16792189342030972  0.5244609929154805  0.7425169883961135  1.0000
  H   H55       1.0  0.1114069510865907  0.4589448822359375  0.8692637083182295  1.0000
  H   H56       1.0  0.1798315742430763  0.45667779478557474  0.9232567206989061  1.0000
  C   C85       1.0  0.47609298309767895  0.25556038366146555  0.5472986151922956  1.0000
  C   C86       1.0  0.45479338563556637  0.25789452768718574  0.5999786106545895  1.0000
  C   C87       1.0  0.41113499260472874  0.26600638211834593  0.600902953882106  1.0000
  C   C88       1.0  0.3889348916256056  0.2723860098089695  0.5492140732635277  1.0000
  C   C89       1.0  0.4102560186681085  0.26993720559961787  0.4966400702504694  1.0000
  C   C90       1.0  0.453574601780248  0.2609988782924085  0.4956850137126501  1.0000
  H   H57       1.0  0.471969599792228  0.25369460657059356  0.6400116462505447  1.0000
  H   H58       1.0  0.39484599713654767  0.26787083066897605  0.6417795348920613  1.0000
  H   H59       1.0  0.3935202584672234  0.2746936948753259  0.45656912822357654  1.0000
  H   H60       1.0  0.46971341425233265  0.25842234837565037  0.4548919510628791  1.0000
  C   C91       1.0  0.46301010544132565  0.27480354064610457  0.8221779859303255  1.0000
  C   C92       1.0  0.43669627741089484  0.2864149754497624  0.866837663364626  1.0000
  C   C93       1.0  0.4116302446184463  0.31656312096485345  0.859806740381667  1.0000
  C   C94       1.0  0.41336136110828015  0.33543860374750606  0.8086213697903746  1.0000
  C   C95       1.0  0.43951797792810615  0.32372515134282365  0.7638219534951599  1.0000
  C   C96       1.0  0.4638992185982903  0.2931921207022085  0.7703742295777342  1.0000
  H   H61       1.0  0.4359404888869437  0.27233129043242976  0.9071058479258537  1.0000
  H   H62       1.0  0.3915518518052807  0.32543386079881287  0.8944318052566629  1.0000
  H   H63       1.0  0.4406988456489453  0.33800644289435766  0.7238398941855029  1.0000
  H   H64       1.0  0.482984281051812  0.2838140252355025  0.7350563357781285  1.0000
  C   C97       1.0  0.5722085118682435  0.10100716268080158  0.6444640708810505  1.0000
  C   C98       1.0  0.5618036360656057  0.06576231626247821  0.6416856780315197  1.0000
  C   C99       1.0  0.538081569562066  0.052971285164075815  0.5947434418808188  1.0000
  C   C100      1.0  0.5245713295031167  0.0755079115722334  0.5508538581735778  1.0000
  C   C101      1.0  0.5350870290914835  0.11066978431001137  0.5535618390787184  1.0000
  C   C102      1.0  0.5588746482258712  0.12340453477243582  0.6003396391510377  1.0000
  H   H65       1.0  0.5718824881226342  0.048315242519490605  0.675679249325233  1.0000
  H   H66       1.0  0.5305963089941456  0.02559373567882206  0.5922447839082192  1.0000
  H   H67       1.0  0.5256242973586636  0.1279288347258112  0.5189236190762736  1.0000
  H   H68       1.0  0.5676335315707771  0.15045500419119295  0.6013702196417825  1.0000
  C   C103      1.0  0.6888878607924497  0.3120632724169964  0.6876215375314382  1.0000
  C   C104      1.0  0.7147627938334441  0.34077423072289414  0.6978128655529447  1.0000
  C   C105      1.0  0.716292693781213  0.36752838787734227  0.657097820915533  1.0000
  C   C106      1.0  0.6926872707995508  0.3652500012726968  0.6056406000423171  1.0000
  C   C107      1.0  0.6679536414886237  0.3359277417029543  0.5947875891535901  1.0000
  C   C108      1.0  0.6656485920512877  0.3095696138686854  0.6359784016360666  1.0000
  H   H69       1.0  0.7328348420458236  0.3427016945555894  0.7377122528918069  1.0000
  H   H70       1.0  0.7356998327506205  0.3897783980784548  0.665705524441581  1.0000
  H   H71       1.0  0.6497939684135383  0.33389766716641983  0.5549689497680707  1.0000
  H   H72       1.0  0.6457654739681162  0.28738100769517044  0.6275790363252839  1.0000
  C   C109      1.0  0.44390167182753787  0.9658316657236601  0.1922644494038985  1.0000
  C   C110      1.0  0.45196999070636823  0.9332934206203023  0.21692619360788212  1.0000
  C   C111      1.0  0.4886957517836638  0.9277297663387158  0.2504368019181766  1.0000
  C   C112      1.0  0.5174544251381171  0.954690419880184  0.25913104838607454  1.0000
  C   C113      1.0  0.5087868965163282  0.9875124211401904  0.2358896797019638  1.0000
  C   C114      1.0  0.5294008746804786  0.001921993304749181  0.7560623818160964  1.0000
  H   H73       1.0  0.4297983126849362  0.9124338148248121  0.2104001502630306  1.0000
  H   H74       1.0  0.4949731223871381  0.9024061570656432  0.2690334656060504  1.0000
  H   H75       1.0  0.5314028842521894  0.008175446716392587  0.24103571493961923  1.0000
  H   H76       1.0  0.5091970807356946  0.021198695155206337  0.776690438637315  1.0000
  C   C115      1.0  0.27239634921227723  0.9087074653329552  0.5794797651698101  1.0000
  C   C116      1.0  0.2973857697786085  0.8962699418548077  0.5339074178192691  1.0000
  C   C117      1.0  0.2922150043983067  0.9102053096567922  0.47860473010343924  1.0000
  C   C118      1.0  0.26283479684041494  0.9372371858133149  0.4691653529290916  1.0000
  C   C119      1.0  0.23653877753043667  0.948588415721363  0.514186756534133  1.0000
  C   C120      1.0  0.2409477112826959  0.9340180509311923  0.5692797724731495  1.0000
  H   H77       1.0  0.32145941741951495  0.8764207286473135  0.5414761303830106  1.0000
  H   H78       1.0  0.3121745015360744  0.9009704913009706  0.4437360692476652  1.0000
  H   H79       1.0  0.21301765233865852  0.9687026048558399  0.5068376597943924  1.0000
  H   H80       1.0  0.22125745922337758  0.9433619030833011  0.6043339348323458  1.0000
  C   C121      1.0  0.3473362420602725  0.7845978455655744  0.1549106838900569  1.0000
  C   C122      1.0  0.37795832413985664  0.7711179000953099  0.11706198053091986  1.0000
  C   C123      1.0  0.40419318335542065  0.7430812055469096  0.13406368546638148  1.0000
  C   C124      1.0  0.4006201028309701  0.7291184764193084  0.18944211290806523  1.0000
  C   C125      1.0  0.37156273876446677  0.7439535237952989  0.22813636420256264  1.0000
  C   C126      1.0  0.3443599966222764  0.7711484737176769  0.21056861464412768  1.0000
  H   H81       1.0  0.3806035690245338  0.7815815393444373  0.07404773468133284  1.0000
  H   H82       1.0  0.4267526282086401  0.7318956975219467  0.10388838878246441  1.0000
  H   H83       1.0  0.3690194621034953  0.7339210889253309  0.2711180371195139  1.0000
  H   H84       1.0  0.3212141748817442  0.7819459438267833  0.2402184619610247  1.0000
  C   C127      1.0  0.47995871713427185  0.7484162236884917  0.48274848207048976  1.0000
  C   C128      1.0  0.46818315566783586  0.7636056365677464  0.43009240347246414  1.0000
  C   C129      1.0  0.45736019716625953  0.7991412812156781  0.4277568381822073  1.0000
  C   C130      1.0  0.45790677692558795  0.8194014923801156  0.478223970356853  1.0000
  C   C131      1.0  0.47101658045259176  0.8044184905837727  0.5304892650898094  1.0000
  C   C132      1.0  0.4823425974417126  0.769051825014916  0.5326614480813431  1.0000
  H   H85       1.0  0.4674299574671083  0.7479850494520943  0.3910425863945944  1.0000
  H   H86       1.0  0.4475777402112276  0.8106392859821094  0.38712343004141564  1.0000
  H   H87       1.0  0.47237647171444785  0.8199563417268745  0.5695337480388779  1.0000
  H   H88       1.0  0.4917882486586918  0.7575103302819415  0.5734103975253406  1.0000
  C   C133      1.0  0.27353161601574666  0.648225231116332  0.4836302588498768  1.0000
  C   C134      1.0  0.299191364251721  0.624014830124122  0.5128840470657814  1.0000
  C   C135      1.0  0.285103909687808  0.6091423993157352  0.5642383598968012  1.0000
  C   C136      1.0  0.2449269827028337  0.6178646884714363  0.5858501252102802  1.0000
  C   C137      1.0  0.21949492181659785  0.6424656418393335  0.5571391350739732  1.0000
  C   C138      1.0  0.23382720385007658  0.6576723147733897  0.506145492948644  1.0000
  H   H89       1.0  0.3293966340120916  0.6159758796130679  0.49538033708581225  1.0000
  H   H90       1.0  0.30485732479039124  0.5900545451107883  0.5863207216895968  1.0000
  H   H91       1.0  0.18885080265367882  0.6498953857748074  0.5743474011869039  1.0000
  H   H92       1.0  0.21389282684865413  0.6765071593616069  0.48376253579354034  1.0000
  C   C139      1.0  0.4648943557472467  0.534152575547375  0.30149707457971525  1.0000
  C   C140      1.0  0.4917073442339866  0.505084233344452  0.2944716697421686  1.0000
  C   C141      1.0  0.5001797149681197  0.4919347073955713  0.23905444917644827  1.0000
  C   C142      1.0  0.48114480315774105  0.5073663119991011  0.1906058074454664  1.0000
  C   C143      1.0  0.4528917789606017  0.5355179216812135  0.19766148056959132  1.0000
  C   C144      1.0  0.4453051637287156  0.5492467890497317  0.25302833787687706  1.0000
  H   H93       1.0  0.5066713272724876  0.493208907441308  0.3318197463332218  1.0000
  H   H94       1.0  0.5215109124202539  0.4698058101197824  0.23382649878393957  1.0000
  H   H95       1.0  0.43778868034366386  0.5473457574333386  0.16031553802235995  1.0000
  H   H96       1.0  0.42433293148646767  0.571492749227089  0.25808263318113495  1.0000
  Fe  Fe49      1.0  0.4725468795634016  0.5910708710285894  0.8578724443834659  1.0000
  S   S97       1.0  0.40295142990803245  0.594975395263292  0.8761243452139089  1.0000
  S   S98       1.0  0.4917860409767817  0.5473949270142687  0.7983832702893313  1.0000
  Fe  Fe50      1.0  0.4927315190986825  0.652528296985835  0.9362368325278417  1.0000
  S   S99       1.0  0.4250773003481824  0.660974382588373  0.9617064561313319  1.0000
  S   S100      1.0  0.5437543193792155  0.6861936675223731  0.97432789334642  1.0000
  Fe  Fe51      1.0  0.4237317363822455  0.6030215555401611  0.967723192554858  1.0000
  S   S101      1.0  0.3913139510174837  0.5741651079469651  0.03748579791071793  1.0000
  Fe  Fe52      1.0  0.41120684871858765  0.652388302740043  0.8675778993448464  1.0000
  S   S102      1.0  0.36390292882741143  0.6861764236488829  0.8198127032482528  1.0000
  S   S103      1.0  0.4929267096738083  0.5947100284054874  0.9506388161641265  1.0000
  S   S104      1.0  0.4795762703095101  0.6479941988918578  0.8409074768282193  1.0000
  Fe  Fe53      1.0  0.4331540031264076  0.8653894690978131  0.02100418525056491  1.0000
  S   S105      1.0  0.37100040530898165  0.8450757663638456  0.9871409312513723  1.0000
  S   S106      1.0  0.5001188093495091  0.846828440807401  0.004550530611914239  1.0000
  Fe  Fe54      1.0  0.391185323285146  0.923969094970415  0.09041733396893625  1.0000
  S   S107      1.0  0.3257037440052978  0.9086366629111137  0.0637690355794589  1.0000
  S   S108      1.0  0.40090065673575515  0.9718386754585473  0.14486773145864307  1.0000
  Fe  Fe55      1.0  0.3492392186114092  0.8541511476841191  0.07833431013655234  1.0000
  S   S109      1.0  0.46721271858258845  0.8179320290211078  0.7514284341070306  1.0000
  Fe  Fe56      1.0  0.35334500669417207  0.9016514985036591  0.9755993060009249  1.0000
  S   S110      1.0  0.31547399386403646  0.9244466470207512  0.9016610337347396  1.0000
  S   S111      1.0  0.41276174537879556  0.8700261693256468  0.11295102139468471  1.0000
  S   S112      1.0  0.4175774213840023  0.9212466719063314  0.0011089132911297206  1.0000
  Fe  Fe57      1.0  0.6416641908821678  0.2629301956136761  0.15182959865484658  1.0000
  S   S113      1.0  0.6250782974169486  0.2348485617844753  0.23263537880825558  1.0000
  S   S114      1.0  0.7063876160266858  0.2699678017116404  0.1140379632571793  1.0000
  Fe  Fe58      1.0  0.5502114272437777  0.2772191305734577  0.1192017601477473  1.0000
  S   S115      1.0  0.5240452951360963  0.25000678582337404  0.19584546509480938  1.0000
  S   S116      1.0  0.5163199671286195  0.3026659780552408  0.045375956727750966  1.0000
  Fe  Fe59      1.0  0.5760540692703277  0.27702192037456475  0.24454905458643617  1.0000
  S   S117      1.0  0.5595315964300221  0.29696150926077436  0.33258047791858303  1.0000
  Fe  Fe60      1.0  0.5745247650396141  0.20986546021381766  0.17864902651784265  1.0000
  S   S118      1.0  0.5644305611645719  0.15318982829192973  0.1925149643016053  1.0000
  S   S119      1.0  0.5977162104228648  0.3081883015577599  0.16934087642824291  1.0000
  S   S120      1.0  0.5956127154901504  0.23393266869634646  0.09632144535774767  1.0000
  Fe  Fe61      1.0  0.3317848132625559  0.3786998514454433  0.866157524456061  1.0000
  S   S121      1.0  0.33875887235895585  0.4154455101121045  0.9408988778436871  1.0000
  S   S122      1.0  0.3784570760700876  0.36681603574061106  0.2978817547481092  1.0000
  Fe  Fe62      1.0  0.24050931782323373  0.3614402922148403  0.8951810375668031  1.0000
  S   S123      1.0  0.23937128618262  0.39672738374344185  0.9730706752901421  1.0000
  S   S124      1.0  0.18647709560588252  0.32879712563445473  0.8629534267842597  1.0000
  Fe  Fe63      1.0  0.2736029558140595  0.43371996706426086  0.9162521093723611  1.0000
  S   S125      1.0  0.2595076704684174  0.4899420530508638  0.9030839571725531  1.0000
  Fe  Fe64      1.0  0.30474217889634686  0.37463239116922176  0.9904738173646341  1.0000
  S   S126      1.0  0.3287250332462294  0.3585382048183781  0.0781818442875073  1.0000
  S   S127      1.0  0.26905716190741774  0.4004742433288238  0.8368405465659369  1.0000
  S   S128      1.0  0.30302540182424875  0.33594558366734845  0.9173649076913458  1.0000
  Fe  Fe65      1.0  0.9132164384846859  0.06292913535000769  0.13816562887277772  1.0000
  S   S129      1.0  0.8793175035603874  0.06731553326546921  0.053051788065213046  1.0000
  S   S130      1.0  0.9502257916095221  0.01598452411785578  0.16672794434181593  1.0000
  Fe  Fe66      1.0  0.8759757721059509  0.13050282526736479  0.18408663712683415  1.0000
  S   S131      1.0  0.8376674393549488  0.14091016661212036  0.10429831200476714  1.0000
  S   S132      1.0  0.8773816778157729  0.18473101778370096  0.7210710802860578  1.0000
  Fe  Fe67      1.0  0.823757399536056  0.08411805538818816  0.1068024120091966  1.0000
  S   S133      1.0  0.7595674511152315  0.0608141149617027  0.10134424269004416  1.0000
  Fe  Fe68      1.0  0.89719934501826  0.1238044533849959  0.0588372950071272  1.0000
  S   S134      1.0  0.921958267469269  0.15478058518178306  0.9850306494769875  1.0000
  S   S135      1.0  0.8563333317816948  0.0753980658771464  0.19138208474941676  1.0000
  S   S136      1.0  0.9368401253720297  0.11769323928602136  0.1392957546811857  1.0000
  Fe  Fe69      1.0  0.9019473360370424  0.34417819276553685  0.9463052638000586  1.0000
  S   S137      1.0  0.9642373818365554  0.3269076610519479  0.9085984934177608  1.0000
  S   S138      1.0  0.8678641109562129  0.3128163584910856  0.011632771213217596  1.0000
  Fe  Fe70      1.0  0.9064742020153247  0.4165019460026008  0.8965834592288193  1.0000
  S   S139      1.0  0.9694142582742997  0.40587634790807225  0.8553468338551908  1.0000
  S   S140      1.0  0.87098314391326  0.46740989301876545  0.889512536143316  1.0000
  Fe  Fe71      1.0  0.9412706254010025  0.3550031821402954  0.8295446021013705  1.0000
  S   S141      1.0  0.9548739322774384  0.33454570510491344  0.7405399936527709  1.0000
  Fe  Fe72      1.0  0.9864407514039845  0.37906596941709575  0.9375296276038102  1.0000
  S   S142      1.0  0.049639564234919  0.38530109070513935  0.9803579908771656  1.0000
  S   S143      1.0  0.8763104417289971  0.3674441555782855  0.8641675300730115  1.0000
  S   S144      1.0  0.9260676187535642  0.39428317701768195  0.9818960364660486  1.0000
  Fe  Fe73      1.0  0.7907017502887677  0.740789737494425  0.03139675950533527  1.0000
  S   S145      1.0  0.822745477122356  0.6970696755970633  0.9828637489203107  1.0000
  S   S146      1.0  0.797343359775347  0.7439424544193932  0.12818385859644943  1.0000
  Fe  Fe74      1.0  0.7500912976064921  0.7701467432853593  0.9233467361501364  1.0000
  S   S147      1.0  0.7790618869374935  0.7298212747986639  0.8650509472734651  1.0000
  S   S148      1.0  0.7044016890793036  0.8090427121036353  0.8863199386758632  1.0000
  Fe  Fe75      1.0  0.7609185158687176  0.6931405038974311  0.9345788132737558  1.0000
  S   S149      1.0  0.7266086469546332  0.6445504840218307  0.9102928758063134  1.0000
  Fe  Fe76      1.0  0.8381187277760437  0.7379757298855857  0.9181361307945229  1.0000
  S   S150      1.0  0.9035427254621011  0.7371648398995284  0.8798782829438051  1.0000
  S   S151      1.0  0.7272693882015034  0.732901340956347  0.9891323361778568  1.0000
  S   S152      1.0  0.8108423892162137  0.7821602412226925  0.970251312311627  1.0000
  Fe  Fe77      1.0  0.040024127316187874  0.8819895461428936  0.8185277648538317  1.0000
  S   S153      1.0  0.033724632371349594  0.9284940960996044  0.7612856653020981  1.0000
  S   S154      1.0  0.0008831009291467851  0.8793792402332823  0.8983931803706469  1.0000
  Fe  Fe78      1.0  0.10110447116179011  0.8441206320606937  0.7390342183015329  1.0000
  S   S155      1.0  0.09938302864627291  0.8867151756713388  0.673857944653418  1.0000
  S   S156      1.0  0.14343628247763318  0.7981777566775803  0.7193761500335246  1.0000
  Fe  Fe79      1.0  0.10428681067229406  0.9220032940504136  0.7507577355903207  1.0000
  S   S157      1.0  0.1535636044733104  0.9634348537641344  0.7500322487973654  1.0000
  Fe  Fe80      1.0  0.029353156801184443  0.8889799119511143  0.6901175375417599  1.0000
  S   S158      1.0  0.8961634918527558  0.8757039617201012  0.21368171342579023  1.0000
  S   S159      1.0  0.11106245345319321  0.879228135968791  0.8155777670096301  1.0000
  S   S160      1.0  0.0304272762566129  0.8426905707039118  0.7477364512893817  1.0000
  Fe  Fe81      1.0  0.22371306666005555  0.10071634461296997  0.9879760587455397  1.0000
  S   S161      1.0  0.18538329373140017  0.14134679448692533  0.9405098597549292  1.0000
  S   S162      1.0  0.2900319679211878  0.08395566574839952  0.9638841416237071  1.0000
  Fe  Fe82      1.0  0.1562417341960951  0.09013302614602262  0.07871409866790957  1.0000
  S   S163      1.0  0.1117445954378189  0.1297446231524761  0.039517801247587414  1.0000
  S   S164      1.0  0.1436226938014855  0.05478359482053969  0.15320216741728454  1.0000
  Fe  Fe83      1.0  0.13107565202119287  0.10554183583318788  0.9554546746090514  1.0000
  S   S165      1.0  0.0814780684535994  0.09162491645680482  0.8897800353272625  1.0000
  Fe  Fe84      1.0  0.16950984176175932  0.1620871146418892  0.028930551126485016  1.0000
  S   S166      1.0  0.1662186528384699  0.2179330747432168  0.05883828074711195  1.0000
  S   S167      1.0  0.1706464643849399  0.06312212973028375  0.9954784995856695  1.0000
  S   S168      1.0  0.21289465485935344  0.12461161063915441  0.07543451651952338  1.0000
  Fe  Fe85      1.0  0.0940722383329986  0.5476465849427252  0.14160587164886373  1.0000
  S   S169      1.0  0.11790472489283599  0.5435766509742272  0.23272720374896294  1.0000
  S   S170      1.0  0.0312761579067915  0.52925401612651  0.10958188439637317  1.0000
  Fe  Fe86      1.0  0.16802554116626942  0.588683200444169  0.10137566546629007  1.0000
  S   S171      1.0  0.19916168196914533  0.5889694686406775  0.18849695992078552  1.0000
  S   S172      1.0  0.19729692692654355  0.6161571068269478  0.02755459030638674  1.0000
  Fe  Fe87      1.0  0.18122128034516244  0.5330289008530953  0.19195612821954144  1.0000
  S   S173      1.0  0.23404983519927933  0.49828285686749524  0.22416461579133662  1.0000
  Fe  Fe88      1.0  0.13410944715346496  0.5996286653211407  0.22166331657841165  1.0000
  S   S174      1.0  0.12269370960045123  0.6389936757179626  0.2911293733264564  1.0000
  S   S175      1.0  0.15583052371076597  0.5315857913699824  0.1009661831296953  1.0000
  S   S176      1.0  0.10433202021817789  0.6048654093671106  0.13430616873830914  1.0000
  Fe  Fe89      1.0  0.6563129693645062  0.9903127891721638  0.8611597865661254  1.0000
  S   S177      1.0  0.6132765236782952  0.9870134889348625  0.9370181940150599  1.0000
  S   S178      1.0  0.6455254552094747  0.9582056915407025  0.7822793434918291  1.0000
  Fe  Fe90      1.0  0.715502719263823  0.04146703785205519  0.9188456803355395  1.0000
  S   S179      1.0  0.6784146745326667  0.04236184813012489  0.0010938244543625686  1.0000
  S   S180      1.0  0.7712442966483628  0.07482388024626188  0.9001729654136243  1.0000
  Fe  Fe91      1.0  0.6745278461901069  0.9845336332325416  0.9877918520071237  1.0000
  S   S181      1.0  0.6906341279842465  0.9411304478277932  0.048766907371538215  1.0000
  Fe  Fe92      1.0  0.6214703663901588  0.044665053996388426  0.941957094201022  1.0000
  S   S182      1.0  0.5674861024328145  0.08282598995608051  0.9469190710384718  1.0000
  S   S183      1.0  0.716767343406416  0.9836331403691643  0.9108955772390832  1.0000
  S   S184      1.0  0.6589117021202567  0.048195312686456715  0.8608718053112282  1.0000
  Fe  Fe93      1.0  0.708358394051017  0.5064656880584479  0.6786062134019808  1.0000
  S   S185      1.0  0.605983287153848  0.49976733018115865  0.05454264796064612  1.0000
  S   S186      1.0  0.6893534612320265  0.5265274774761646  0.7659730528048853  1.0000
  Fe  Fe94      1.0  0.7896699121715052  0.4953493624145125  0.611554588883231  1.0000
  S   S187      1.0  0.6870148195842285  0.46864350204102173  0.12893521788043416  1.0000
  S   S188      1.0  0.8600417528552949  0.49689326838214554  0.6240846040359465  1.0000
  Fe  Fe95      1.0  0.6477107328295865  0.5176931191859315  0.12783251174666832  1.0000
  S   S189      1.0  0.67541327398355  0.5707047005586363  0.14036685954445405  1.0000
  Fe  Fe96      1.0  0.6405928844618979  0.4484194488989052  0.06363154386160508  1.0000
  S   S190      1.0  0.6677240798905614  0.41342978735920866  0.9944142237677185  1.0000
  S   S191      1.0  0.7501303990781564  0.5423359077862798  0.6304876634253858  1.0000
  S   S192      1.0  0.7515499311106744  0.4602170741956285  0.6667121621918223  1.0000
  C   C145      1.0  0.08387430152168318  0.7435555321462917  0.21423059094525265  1.0000
  C   C146      1.0  0.0659622130184705  0.7322120387246446  0.2656179491702386  1.0000
  C   C147      1.0  0.0784542959084884  0.7003026994324747  0.28939515978187846  1.0000
  C   C148      1.0  0.10737903657272985  0.678737632616677  0.2603751974074706  1.0000
  C   C149      1.0  0.12370492637067887  0.6890702711478632  0.20723103578392066  1.0000
  C   C150      1.0  0.11242801563348381  0.7217730788930471  0.18453961756399195  1.0000
  H   H97       1.0  0.042174382052906134  0.7477697062038595  0.28717066692728244  1.0000
  H   H98       1.0  0.06499684832761021  0.6920220661845312  0.32975339735912024  1.0000
  H   H99       1.0  0.14548837624617428  0.6721471431130288  0.18414540044963834  1.0000
  H   H100      1.0  0.1584864243949189  0.7306715040468016  0.6691760046230306  1.0000
  C   C151      1.0  0.13406176197113528  0.0014291343342647256  0.7831813383363335  1.0000
  C   C152      1.0  0.09093053379897453  0.010351888972506051  0.7791283324585144  1.0000
  C   C153      1.0  0.07489061010163756  0.039112704894122  0.8099374146637682  1.0000
  C   C154      1.0  0.10212305358886087  0.05907445950095336  0.8444625814663682  1.0000
  C   C155      1.0  0.14556659090296842  0.05115146390732961  0.8461931800049003  1.0000
  C   C156      1.0  0.16148471662187291  0.022240759420682155  0.8158761825270187  1.0000
  H   H101      1.0  0.06986544498682101  0.9952929160170522  0.7520959742107772  1.0000
  H   H102      1.0  0.04133612310794854  0.04535686042060161  0.8075608593960062  1.0000
  H   H103      1.0  0.1669217263380276  0.06707372492852759  0.8714715301337678  1.0000
  H   H104      1.0  0.19477834584767462  0.015578011066358366  0.8194802331676952  1.0000
  C   C157      1.0  0.8620182768530545  0.8421935229941372  0.19325140542814312  1.0000
  C   C158      1.0  0.8424503398276338  0.8420806157172132  0.13870666998663905  1.0000
  C   C159      1.0  0.8206334098243055  0.8125208536255238  0.11940083030964588  1.0000
  C   C160      1.0  0.8190232334381998  0.7829571006185643  0.15418890019436282  1.0000
  C   C161      1.0  0.8367327572461248  0.7839574027071153  0.2098251887622813  1.0000
  C   C162      1.0  0.8579395178942815  0.8136078081062807  0.22929757512783877  1.0000
  H   H105      1.0  0.8455382106215065  0.8641498874603429  0.1105703346385194  1.0000
  H   H106      1.0  0.8053648529172357  0.8126176225032928  0.07758852511776237  1.0000
  H   H107      1.0  0.8353099002557526  0.761566748383219  0.2375008270642338  1.0000
  H   H108      1.0  0.8719212533350629  0.8142693469904891  0.27200002370456566  1.0000
  C   C163      1.0  0.9299049503312408  0.7770614906260781  0.8841285610962509  1.0000
  C   C164      1.0  0.907943628641438  0.8079635439712483  0.8974695584956575  1.0000
  C   C165      1.0  0.9299084903150284  0.8392989456522087  0.9034169331553242  1.0000
  C   C166      1.0  0.9736654677627912  0.8400141941059052  0.8937281388642743  1.0000
  C   C167      1.0  0.9954960431059405  0.8092971764631354  0.8788042476318275  1.0000
  C   C168      1.0  0.9737085353527233  0.7778154803801615  0.8746381184307003  1.0000
  H   H109      1.0  0.8739488607950977  0.8079696981766322  0.9020790591645261  1.0000
  H   H110      1.0  0.9127752474037667  0.8631481144113442  0.9136427913301337  1.0000
  H   H111      1.0  0.029372279275797553  0.8097250120898711  0.8714267844740284  1.0000
  H   H112      1.0  0.9908828591769014  0.7539972674122858  0.8644863295339741  1.0000
  C   C169      1.0  0.7103978503795897  0.6252732370883025  0.9743691812813763  1.0000
  C   C170      1.0  0.6800952979448246  0.599051434908691  0.9728707159361492  1.0000
  C   C171      1.0  0.6686763603171427  0.5825039866429857  0.024025695755265364  1.0000
  C   C172      1.0  0.6876737325256048  0.5921003231190336  0.07648232978454494  1.0000
  C   C173      1.0  0.71694322807961  0.6190752786343148  0.078173768124145  1.0000
  C   C174      1.0  0.7283181044720464  0.6356573655201891  0.027151112270830557  1.0000
  H   H113      1.0  0.6654295387428925  0.5916396798733469  0.9322774778431039  1.0000
  H   H114      1.0  0.6448051910078576  0.5627284575561501  0.02299224167322178  1.0000
  H   H115      1.0  0.7314914309713759  0.6266992089334295  0.11876090431031994  1.0000
  H   H116      1.0  0.751505552601523  0.656068776218357  0.02872809576808555  1.0000
  C   C175      1.0  0.6940462179620066  0.9035858679889989  0.005155762079086301  1.0000
  C   C176      1.0  0.7133666697868396  0.8730075307480407  0.025717874139312258  1.0000
  C   C177      1.0  0.7161986641019761  0.8434762352408994  0.989650545887656  1.0000
  C   C178      1.0  0.6990341846317788  0.8444779966781156  0.9335783548105482  1.0000
  C   C179      1.0  0.6783505876520575  0.874533580665009  0.9140783274667951  1.0000
  C   C180      1.0  0.6762140975458867  0.9040120362924786  0.9495605790519864  1.0000
  H   H117      1.0  0.7263673605393576  0.8721174690828888  0.06911466601887883  1.0000
  H   H118      1.0  0.7314661206034782  0.8199636516418196  0.005338377763768554  1.0000
  H   H119      1.0  0.664567431196695  0.8752491591059101  0.8711046064025688  1.0000
  H   H120      1.0  0.6605072532524117  0.9269688955281757  0.9334747511270878  1.0000
  C   C181      1.0  0.8715452509492336  0.4810969158984745  0.8175326019608782  1.0000
  C   C182      1.0  0.9065451176224748  0.4739244326963838  0.7822640463093194  1.0000
  C   C183      1.0  0.9044667014764516  0.48110867331486473  0.7229870112814881  1.0000
  C   C184      1.0  0.86707217557407  0.4950569936329515  0.699042681903454  1.0000
  C   C185      1.0  0.8331615134233369  0.5041707488864879  0.7349457869500806  1.0000
  C   C186      1.0  0.8354609298569717  0.4973842371455742  0.7940592111099524  1.0000
  H   H121      1.0  0.9352633757035105  0.4629191326412974  0.8005109062294163  1.0000
  H   H122      1.0  0.931187687068674  0.47466249562075297  0.6956532379473648  1.0000
  H   H123      1.0  0.8044492967249398  0.515457291000532  0.7171270713363965  1.0000
  H   H124      1.0  0.8084088699285615  0.5031712309145242  0.8207821200114698  1.0000
  C   C187      1.0  0.04684664457170218  0.42607325567821797  0.014369548782703578  1.0000
  C   C188      1.0  0.07709437797850582  0.4356890175128227  0.05597800608974168  1.0000
  C   C189      1.0  0.07245747016687942  0.46747858920021174  0.08576835520388859  1.0000
  C   C190      1.0  0.03733859616788715  0.4892442088309177  0.07424626086238795  1.0000
  C   C191      1.0  0.007471438136298136  0.47970831865703134  0.03232078958191864  1.0000
  C   C192      1.0  0.012773803638436165  0.44856436853006654  0.0015596544251774702  1.0000
  H   H125      1.0  0.1036602949140446  0.41844386339148393  0.06573525211572329  1.0000
  H   H126      1.0  0.0954521806478359  0.4746873180272572  0.11857316224552794  1.0000
  H   H127      1.0  0.9806116616289106  0.4967170916252389  0.02282571469538275  1.0000
  H   H128      1.0  0.9903881021456549  0.4421609227672073  0.9677656968603077  1.0000
  C   C193      1.0  0.8996818818076189  0.2260492140133755  0.7249952072956097  1.0000
  C   C194      1.0  0.9256562353682448  0.23835163003617535  0.6812170666200943  1.0000
  C   C195      1.0  0.9426698556672466  0.27185766621565405  0.6857746103510075  1.0000
  C   C196      1.0  0.9339509859840263  0.2927326138508061  0.7342833669455742  1.0000
  C   C197      1.0  0.9078581580373911  0.280353957218298  0.7776950421503919  1.0000
  C   C198      1.0  0.8906332792850814  0.2471302078950505  0.7729640738665504  1.0000
  H   H129      1.0  0.9324777933451965  0.22220954601327408  0.6438522874445459  1.0000
  H   H130      1.0  0.9627619265917494  0.28147947114993643  0.6519781206372707  1.0000
  H   H131      1.0  0.9007083982911257  0.29643072079409827  0.8149434080165681  1.0000
  H   H132      1.0  0.8704496196012471  0.23766539195659797  0.8068434795523374  1.0000
  C   C199      1.0  0.9079932748397282  0.1989707948590695  0.9931238436668549  1.0000
  C   C200      1.0  0.8940029579894458  0.2119891405153035  0.04636351520675985  1.0000
  C   C201      1.0  0.881136717328238  0.24693218486724103  0.052011012583083716  1.0000
  C   C202      1.0  0.8829589907142874  0.26905584613704414  0.004502414759802953  1.0000
  C   C203      1.0  0.8978659314602565  0.2563458331028865  0.9516611373360753  1.0000
  C   C204      1.0  0.9104365552476397  0.22140708869709605  0.9460017844341995  1.0000
  H   H133      1.0  0.8933071698562008  0.1952114509453282  0.0833041207193208  1.0000
  H   H134      1.0  0.8701795551664733  0.25681375578603877  0.09322959358097127  1.0000
  H   H135      1.0  0.8986429671314756  0.2732165009777473  0.9146513981619425  1.0000
  H   H136      1.0  0.9209721202482984  0.21185814466575403  0.9046473719621438  1.0000
  C   C205      1.0  0.825356671538975  0.04177420359555394  0.7257510170538651  1.0000
  C   C206      1.0  0.8100559574509606  0.01674594699670462  0.7632995054403976  1.0000
  C   C207      1.0  0.7941649442704231  0.026766357066845936  0.8173610974708209  1.0000
  C   C208      1.0  0.7941257117768357  0.06179004482483017  0.834508320831109  1.0000
  C   C209      1.0  0.810740947542772  0.08670739613792017  0.7977103714303149  1.0000
  C   C210      1.0  0.8258510660319469  0.07677470870131754  0.7431266167635351  1.0000
  H   H137      1.0  0.8105356547741522  0.9896527673621119  0.7504155844867056  1.0000
  H   H138      1.0  0.7828623937003256  0.007281245143315517  0.8462128594378926  1.0000
  H   H139      1.0  0.8107906982016871  0.11384335111285114  0.8106797441371756  1.0000
  H   H140      1.0  0.8367890600471836  0.09647130880813243  0.7141472749633575  1.0000
  C   C211      1.0  0.004170530260184879  0.02526495145976293  0.16179625389411134  1.0000
  C   C212      1.0  0.034094920341124935  0.008627505156236337  0.19763730541873903  1.0000
  C   C213      1.0  0.07703366849468951  0.01789332804645305  0.19536889162392912  1.0000
  C   C214      1.0  0.09008634235217294  0.04298067468560207  0.15607516377528774  1.0000
  C   C215      1.0  0.0601693139891073  0.0584965815289938  0.11903430880952848  1.0000
  C   C216      1.0  0.01724675903658457  0.050094469334366565  0.12244019848576149  1.0000
  H   H141      1.0  0.023971141141148067  0.9894899576199219  0.22841898840041597  1.0000
  H   H142      1.0  0.09998505703641336  0.005984318532897159  0.22452732964529876  1.0000
  H   H143      1.0  0.06987343494885989  0.07727268133740595  0.0880438887843511  1.0000
  H   H144      1.0  0.9943195755770485  0.0626413298216224  0.0940960344308448  1.0000
  C   C217      1.0  0.17635179481673624  0.29852905512520544  0.9169507212780612  1.0000
  C   C218      1.0  0.16566021312494847  0.26431203630841915  0.9023644756279535  1.0000
  C   C219      1.0  0.16188893953740124  0.23931323246134947  0.9458184817415367  1.0000
  C   C220      1.0  0.16785247849077886  0.2488128328429709  0.003773336923337256  1.0000
  C   C221      1.0  0.17591635137893788  0.28350458422450214  0.018350686036273878  1.0000
  C   C222      1.0  0.1809611780505923  0.3081564854291626  0.9749852614425186  1.0000
  H   H145      1.0  0.16209066899347402  0.25679872285069216  0.8574501924916516  1.0000
  H   H146      1.0  0.1547646500234019  0.21273534547848627  0.9343520023012527  1.0000
  H   H147      1.0  0.17943346573277352  0.29127718226164384  0.06308255622270464  1.0000
  H   H148      1.0  0.18835582608888377  0.33469151836279665  0.9865109041597265  1.0000
  C   C223      1.0  0.21359184260203495  0.43863326377647616  0.3906449500756204  1.0000
  C   C224      1.0  0.20864892469126708  0.5086220877792605  0.8126138836043262  1.0000
  C   C225      1.0  0.2599837141387832  0.46033699641427356  0.3168907749162959  1.0000
  C   C226      1.0  0.22542714184611837  0.4764866697988417  0.2891459829563858  1.0000
  C   C227      1.0  0.1848385364870002  0.4742242510414818  0.31288712230000204  1.0000
  C   C228      1.0  0.17898385534825378  0.4557920784784531  0.3643308035990316  1.0000
  H   H149      1.0  0.2362132002975488  0.5210469378857278  0.7954046326526878  1.0000
  H   H150      1.0  0.29142312249972857  0.4620594076925081  0.29921758888430494  1.0000
  H   H151      1.0  0.15785646400442685  0.48579324267470786  0.29080698056471777  1.0000
  H   H152      1.0  0.1475218560582099  0.4536046295203825  0.382109565152309  1.0000
  C   C229      1.0  0.4649525141891214  0.31896995839421716  0.0572319216934527  1.0000
  C   C230      1.0  0.44591259384964554  0.3176437994452224  0.11151379914034276  1.0000
  C   C231      1.0  0.4041730935950815  0.3304452259872731  0.1186505758826899  1.0000
  C   C232      1.0  0.3814935009395871  0.3439368425294445  0.07125053977075413  1.0000
  C   C233      1.0  0.40103493998373596  0.345747751726016  0.017595924641109484  1.0000
  C   C234      1.0  0.44268564016786593  0.33348992567463276  0.010629018381440813  1.0000
  H   H153      1.0  0.4632896298333168  0.3068327859323008  0.14784426512839222  1.0000
  H   H154      1.0  0.38963206246787996  0.32979494618034927  0.16076705885893094  1.0000
  H   H155      1.0  0.3839290823565996  0.3562457095492906  0.9810938269042344  1.0000
  H   H156      1.0  0.4574495279649456  0.3346844505444039  0.9687237882014823  1.0000
  C   C235      1.0  0.5096636511140032  0.31731600956145306  0.3244161478845533  1.0000
  C   C236      1.0  0.4812448424174124  0.3190343357834882  0.37046692086883115  1.0000
  C   C237      1.0  0.4405568824076596  0.3339129686043381  0.36258800016584125  1.0000
  C   C238      1.0  0.4290280015162993  0.3482294607416779  0.30915520330860513  1.0000
  C   C239      1.0  0.45819467072327286  0.3477714074424818  0.2640153417791511  1.0000
  C   C240      1.0  0.49813402360440273  0.33182016848298274  0.271285120726906  1.0000
  H   H157      1.0  0.4906245810385543  0.3086933473671993  0.4119777084844036  1.0000
  H   H158      1.0  0.41833471699719965  0.33461235766463376  0.3979239962409269  1.0000
  H   H159      1.0  0.449684008034727  0.35906296335084115  0.22286700998432174  1.0000
  H   H160      1.0  0.5200895024751349  0.3310535225130206  0.2356987814596705  1.0000
  C   C241      1.0  0.5616957973171641  0.13233125078668115  0.12540376750902427  1.0000
  C   C242      1.0  0.5779282118926894  0.09845506858681571  0.11893414828905358  1.0000
  C   C243      1.0  0.5795504467840672  0.08293793330801862  0.06398621291949214  1.0000
  C   C244      1.0  0.5637891946028923  0.10102117819121799  0.015996344618247393  1.0000
  C   C245      1.0  0.546273056078971  0.13443848987321855  0.022766660280091555  1.0000
  C   C246      1.0  0.545707541813236  0.15027364549951758  0.07741539537813735  1.0000
  H   H161      1.0  0.5903362811550498  0.0846582486923882  0.15612671582306836  1.0000
  H   H162      1.0  0.592812641015382  0.056988990431506764  0.05890211741015072  1.0000
  H   H163      1.0  0.5339262962771926  0.14840647817830305  0.9857040596496565  1.0000
  H   H164      1.0  0.5326131714534748  0.1762949868335176  0.08251108507368321  1.0000
  C   C247      1.0  0.7024516207247021  0.31072221370994013  0.08115279755179272  1.0000
  C   C248      1.0  0.7086351183732994  0.31429708582533883  0.02167603409752461  1.0000
  C   C249      1.0  0.6994591219273687  0.346305732043401  0.9948919467550519  1.0000
  C   C250      1.0  0.6844529150328155  0.374605831466269  0.027775226558361954  1.0000
  C   C251      1.0  0.6812721772958925  0.371396717277981  0.08763842181957293  1.0000
  C   C252      1.0  0.6896871586718427  0.33950160410007063  0.11415533096410901  1.0000
  H   H165      1.0  0.7189862192921451  0.29210289719674576  0.9960974603637935  1.0000
  H   H166      1.0  0.7029333856368639  0.34884180492090866  0.9486936436285515  1.0000
  H   H167      1.0  0.671570641768687  0.3932565981341697  0.11391377590462604  1.0000
  H   H168      1.0  0.685480100898994  0.3371152014505678  0.1602813883101739  1.0000
  C   C253      1.0  0.513193571251582  0.9813531937641518  0.7110406947526173  1.0000
  C   C254      1.0  0.5393482580112247  0.9563362395753738  0.6847003023510266  1.0000
  C   C255      1.0  0.5803658476982624  0.9498528694506746  0.7061476772417287  1.0000
  C   C256      1.0  0.5959074913766338  0.9692157790142205  0.752665684757499  1.0000
  C   C257      1.0  0.5710343810405208  0.9961224851618624  0.7765447946091103  1.0000
  C   C258      1.0  0.47179131359878923  0.9931821894272141  0.20288360457565902  1.0000
  H   H169      1.0  0.5280303029635119  0.9419051534669021  0.647807578411467  1.0000
  H   H170      1.0  0.5996440982408544  0.9290426873889265  0.6880082157736789  1.0000
  H   H171      1.0  0.5829973645506946  0.01140925020789929  0.8123901450437246  1.0000
  H   H172      1.0  0.465811467258164  0.018333753348034998  0.18344585154945325  1.0000
  C   C259      1.0  0.3082827928765896  0.9691211982628434  0.9160550820331224  1.0000
  C   C260      1.0  0.34238129965498076  0.9887835831476881  0.9364606076787219  1.0000
  C   C261      1.0  0.33660853807052044  0.024174155086310156  0.9497092881739939  1.0000
  C   C262      1.0  0.2964815661438237  0.03998415388460863  0.943853964518548  1.0000
  C   C263      1.0  0.2623578525918266  0.020473254025526355  0.9227883048182997  1.0000
  C   C264      1.0  0.26832943975607126  0.9851198806501883  0.9084086746087991  1.0000
  H   H173      1.0  0.37341695284424287  0.9768248076503723  0.9417001543116562  1.0000
  H   H174      1.0  0.36315310635410025  0.03915701507802094  0.9657272596716469  1.0000
  H   H175      1.0  0.23148228157486142  0.032647285535513104  0.9172057532934438  1.0000
  H   H176      1.0  0.2417241858853325  0.9700187803563571  0.8930146067341448  1.0000
  C   C265      1.0  0.43545855522838495  0.7840047314911908  0.7748517896430781  1.0000
  C   C266      1.0  0.39452050697837193  0.7791206259100484  0.7522050194927679  1.0000
  C   C267      1.0  0.3714700296826334  0.7496482332780153  0.7676783044774819  1.0000
  C   C268      1.0  0.3894369418622957  0.7253761403884207  0.8059504819823126  1.0000
  C   C269      1.0  0.4291261940031115  0.731649328505035  0.8311898186021073  1.0000
  C   C270      1.0  0.4521908254958644  0.7607930959996637  0.8154923114053566  1.0000
  H   H177      1.0  0.3810853301238585  0.7976066157490149  0.7220911910538474  1.0000
  H   H178      1.0  0.34033183363833436  0.7452025761104423  0.7491358951438475  1.0000
  H   H179      1.0  0.442336147966295  0.7139108373794165  0.8626175672761208  1.0000
  H   H180      1.0  0.48320368214228426  0.765122167790316  0.8345293595187601  1.0000
  C   C271      1.0  0.5299349622223336  0.7305494635383649  0.9838843764866163  1.0000
  C   C272      1.0  0.4881683006087851  0.7429260674356659  0.9758250314182016  1.0000
  C   C273      1.0  0.4782951634129575  0.7785210229394247  0.9831872850653872  1.0000
  C   C274      1.0  0.5104564863718637  0.8019279430721704  0.9972708823457831  1.0000
  C   C275      1.0  0.5522947429787248  0.7896625030103525  0.004283467542925301  1.0000
  C   C276      1.0  0.5618637632030788  0.7540751707889872  0.9984964743793311  1.0000
  H   H181      1.0  0.46328367614507315  0.7252699971129387  0.9641541506338059  1.0000
  H   H182      1.0  0.445945640380102  0.7878143913166421  0.9771712523873451  1.0000
  H   H183      1.0  0.5773742230602897  0.8076257650563704  0.014958156205747919  1.0000
  H   H184      1.0  0.5941708901295102  0.7448287777389263  0.005132309194975093  1.0000
  C   C277      1.0  0.337268391282363  0.5852777554623608  0.03358768013322844  1.0000
  C   C278      1.0  0.32403274627392414  0.6159092053416009  0.00609785109718608  1.0000
  C   C279      1.0  0.2809090022000821  0.6252400000455853  0.0038960756612556047  1.0000
  C   C280      1.0  0.2508369696765458  0.6035844809241491  0.028095517386873547  1.0000
  C   C281      1.0  0.26392498294471106  0.5727524804217203  0.05511372353930133  1.0000
  C   C282      1.0  0.30718332477037463  0.5636933084428507  0.05809734013259815  1.0000
  H   H185      1.0  0.34697730137725935  0.6328343044527879  0.9874168587842674  1.0000
  H   H186      1.0  0.2710424104271247  0.6496784040036875  0.9848796947443514  1.0000
  H   H187      1.0  0.24087079028184014  0.555815160952259  0.07390942946675683  1.0000
  H   H188      1.0  0.317171100322472  0.5398492900122054  0.07888998385135437  1.0000
  C   C283      1.0  0.5466979079398648  0.5428819674730679  0.7883411369557911  1.0000
  C   C284      1.0  0.5619492367207575  0.5186571060144795  0.747757531942194  1.0000
  C   C285      1.0  0.6057789682818762  0.5140346240581107  0.7398580847194629  1.0000
  C   C286      1.0  0.6344424212875716  0.5334264363372714  0.7729260155783589  1.0000
  C   C287      1.0  0.6192311408286533  0.5577513739415889  0.8134402205253932  1.0000
  C   C288      1.0  0.5753372391194236  0.5626576137536691  0.8209585774631273  1.0000
  H   H189      1.0  0.5398256271587427  0.5031907952705507  0.7227661113263955  1.0000
  H   H190      1.0  0.6173131757589606  0.494722895476772  0.7094238597845557  1.0000
  H   H191      1.0  0.6413839231871196  0.5729574847003353  0.8387175962571789  1.0000
  H   H192      1.0  0.5637032609819846  0.5814959642602706  0.8522174474519627  1.0000
  N   N1        1.0  0.16416978166198581  0.57480881069667  0.4218081946622836  1.0000
  C   C289      1.0  0.14141522293031072  0.6055666007077479  0.44555355747054126  1.0000
  C   C290      1.0  0.13554156784604987  0.5559812363801246  0.3819357327939134  1.0000
  C   C291      1.0  0.17751090091458277  0.5515427201276591  0.4694007980774822  1.0000
  C   C292      1.0  0.20198884247007354  0.5861127408315879  0.3900394146089329  1.0000
  H   H193      1.0  0.11180784004812772  0.5980625417618705  0.4676413799228878  1.0000
  H   H194      1.0  0.13207826366815856  0.6241699147744947  0.4109499160419449  1.0000
  H   H195      1.0  0.16132198623688687  0.6197884214864949  0.4772877298065483  1.0000
  H   H196      1.0  0.1522602390796881  0.5338826064354775  0.36052721157750617  1.0000
  H   H197      1.0  0.10783402578094092  0.5452964714118135  0.40477718455885203  1.0000
  H   H198      1.0  0.12270745238977021  0.5734744518750068  0.3477967567411462  1.0000
  H   H199      1.0  0.19450489095743406  0.5279289005782724  0.45274773891462117  1.0000
  H   H200      1.0  0.14958170141667115  0.5425220928906817  0.49400618254766354  1.0000
  H   H201      1.0  0.19912280390640902  0.5649500833149783  0.5005370425448252  1.0000
  H   H202      1.0  0.21959103758546705  0.5635334930282778  0.3708450921665011  1.0000
  H   H203      1.0  0.22443568292052385  0.6002981826629101  0.41882460720093706  1.0000
  H   H204      1.0  0.19295797443846685  0.6039256507986848  0.3541016687239643  1.0000
  N   N2        1.0  0.2871348551007272  0.6682453753277048  0.1812850301287412  1.0000
  C   C293      1.0  0.29909399698442607  0.6309153062770617  0.18204678898956161  1.0000
  C   C294      1.0  0.3106035465144503  0.68558889771068  0.13492912860024542  1.0000
  C   C295      1.0  0.29801790301336956  0.6840794977737625  0.2377646190855407  1.0000
  C   C296      1.0  0.24096836006074504  0.6723855767635418  0.1705237541553819  1.0000
  H   H205      1.0  0.3340676689355461  0.6270945881480502  0.18751620363258836  1.0000
  H   H206      1.0  0.2898750356591251  0.6177962161643638  0.1410274425158864  1.0000
  H   H207      1.0  0.2835022186828799  0.6171257173359592  0.217953063162317  1.0000
  H   H208      1.0  0.34553161518145686  0.6814999319992752  0.13996219237135854  1.0000
  H   H209      1.0  0.301593467637798  0.6751907274019009  0.09160930949426405  1.0000
  H   H210      1.0  0.3043179006665704  0.7141881361666248  0.13480587723986837  1.0000
  H   H211      1.0  0.2894449520154611  0.7122665302138764  0.2390109538827463  1.0000
  H   H212      1.0  0.3326175896868024  0.6814117674602401  0.24696702702411288  1.0000
  H   H213      1.0  0.28105852878017207  0.6714095173162701  0.2738000304790038  1.0000
  H   H214      1.0  0.23146275870118524  0.700323592589574  0.1670972038876286  1.0000
  H   H215      1.0  0.22227928289577578  0.6612166272270549  0.20624374280210844  1.0000
  H   H216      1.0  0.23108205965052894  0.6592301635390148  0.12953919805888092  1.0000
  N   N3        1.0  0.927998027654388  0.7297457050891041  0.6927736705565668  1.0000
  C   C297      1.0  0.9612238056507469  0.7241941119179951  0.6488468048857393  1.0000
  C   C298      1.0  0.9294375304095301  0.7009857351778449  0.7347587719382535  1.0000
  C   C299      1.0  0.885860250652978  0.7308849327937467  0.6639745301182206  1.0000
  C   C300      1.0  0.9353503534211122  0.7630111921690325  0.7235422298538075  1.0000
  H   H217      1.0  0.959232942318039  0.7443877209110035  0.6147407427878835  1.0000
  H   H218      1.0  0.9583878642103696  0.698293589236127  0.627348567229859  1.0000
  H   H219      1.0  0.9935099231561362  0.7250989945696455  0.668604415201262  1.0000
  H   H220      1.0  0.9600372309640167  0.7003274139083675  0.759219705199984  1.0000
  H   H221      1.0  0.9038506140624518  0.7039775924441313  0.7673324343452894  1.0000
  H   H222      1.0  0.9261843757695529  0.6752190023322938  0.7130967862694347  1.0000
  H   H223      1.0  0.879974548649823  0.7068298390156544  0.6382820654349993  1.0000
  H   H224      1.0  0.8828154721159437  0.7534430793489575  0.6342010951249243  1.0000
  H   H225      1.0  0.8599249052151715  0.7338079911859564  0.6960883948687467  1.0000
  H   H226      1.0  0.9659224586168329  0.7625966699250167  0.7480526905770984  1.0000
  H   H227      1.0  0.9097270078866537  0.7688241665040453  0.7552904086645824  1.0000
  H   H228      1.0  0.9364296298965996  0.7851070840010892  0.6930307745680698  1.0000
  N   N4        1.0  0.08579161300049319  0.5598143554436662  0.9357610649906583  1.0000
  C   C301      1.0  0.06851541301943187  0.5808951747690684  0.8875935093983126  1.0000
  C   C302      1.0  0.06628410461227283  0.5250737189129879  0.9342159916309948  1.0000
  C   C303      1.0  0.07590710788976573  0.5771131576444276  0.991313989131855  1.0000
  C   C304      1.0  0.1324118061759582  0.556157207992887  0.9301540811907915  1.0000
  H   H229      1.0  0.08274737993547698  0.6072212233321502  0.8870768122200334  1.0000
  H   H230      1.0  0.03343191311458127  0.584311043053393  0.890771517209326  1.0000
  H   H231      1.0  0.07506032575990028  0.5681691166627941  0.845069533711522  1.0000
  H   H232      1.0  0.08074891762179705  0.5075212431916473  0.9673032662478595  1.0000
  H   H233      1.0  0.03155787220268412  0.5267576122308247  0.9425778392217258  1.0000
  H   H234      1.0  0.07013678255620202  0.512250440443693  0.8914160276415635  1.0000
  H   H235      1.0  0.04103102586156004  0.5804356784064157  0.9974440803315707  1.0000
  H   H236      1.0  0.09073811549994558  0.6031722362913401  0.9948621808522408  1.0000
  H   H237      1.0  0.08793003266604503  0.5613153418152916  0.028106623093709704  1.0000
  H   H238      1.0  0.14639987831672993  0.5391251085420566  0.9643547178440921  1.0000
  H   H239      1.0  0.14826155227063764  0.5817628274794333  0.9339381701668166  1.0000
  H   H240      1.0  0.14116249354781638  0.5445812176355024  0.8877926423324304  1.0000
  N   N5        1.0  0.05453129677944135  0.982501899505766  0.5715429603933839  1.0000
  C   C305      1.0  0.015095279966600206  0.9828466989635224  0.6057321932438818  1.0000
  C   C306      1.0  0.05993712317597821  0.9481946653850741  0.5430000157177786  1.0000
  C   C307      1.0  0.09129909924597945  0.9890918226694297  0.6102320311099734  1.0000
  C   C308      1.0  0.05171635793021401  0.009885153586446593  0.527168785764227  1.0000
  H   H241      1.0  0.01623840812401567  0.9626676291873737  0.6398819429692428  1.0000
  H   H242      1.0  0.9867011160716695  0.9775119720922747  0.578144994213358  1.0000
  H   H243      1.0  0.00978146453035933  0.008451650826671875  0.6276115802066833  1.0000
  H   H244      1.0  0.032942257114235485  0.9425529077332494  0.5130027830640672  1.0000
  H   H245      1.0  0.08965162759757339  0.9468055139119468  0.5173877579959536  1.0000
  H   H246      1.0  0.06121820216170115  0.926828254251787  0.5749945833886003  1.0000
  H   H247      1.0  0.12155421089833363  0.9898366307080552  0.5858475250828598  1.0000
  H   H248      1.0  0.09484185804727918  0.9686639831551068  0.6437601809803064  1.0000
  H   H249      1.0  0.08775624747620969  0.014447631263212026  0.6334546555083478  1.0000
  H   H250      1.0  0.08135951275478304  0.01099687510481795  0.5013826150035775  1.0000
  H   H251      1.0  0.04647295697404896  0.035962521395875635  0.5472795126367678  1.0000
  H   H252      1.0  0.024964231535690606  0.005259714219992828  0.496372964284993  1.0000
  N   N6        1.0  0.546444878782097  0.6037555188687411  0.5355690258328119  1.0000
  C   C309      1.0  0.5449327345522494  0.5928794005992912  0.5966388885173862  1.0000
  C   C310      1.0  0.5028558326675678  0.6062901120840464  0.5115904398255028  1.0000
  C   C311      1.0  0.5711399013801295  0.5778037705190118  0.5017987546710282  1.0000
  C   C312      1.0  0.5666900966198135  0.6381252084309479  0.5320041262937382  1.0000
  H   H253      1.0  0.529931105610277  0.5669985100977657  0.6010002291922896  1.0000
  H   H254      1.0  0.5263833561910715  0.6118381264417704  0.6233274750148146  1.0000
  H   H255      1.0  0.5773898763894127  0.5908739096414923  0.6160861903950758  1.0000
  H   H256      1.0  0.5031209445227584  0.6141083077743373  0.4653817772675237  1.0000
  H   H257      1.0  0.4862465447861997  0.5809506387256387  0.5135715349611285  1.0000
  H   H258      1.0  0.4834671736800308  0.6260847019558178  0.5353915909697425  1.0000
  H   H259      1.0  0.6037173261807066  0.5741534397107994  0.5199073508596174  1.0000
  H   H260      1.0  0.574431025288438  0.5858799783472688  0.4560040252929034  1.0000
  H   H261      1.0  0.5557419217893385  0.5519304106512148  0.5015897030609833  1.0000
  H   H262      1.0  0.5490370684615251  0.6582756387886668  0.5574465705977709  1.0000
  H   H263      1.0  0.5677108456186307  0.6474734877355872  0.48665880803903244  1.0000
  H   H264      1.0  0.5998138545620382  0.6372578188600873  0.5488794658012897  1.0000
  N   N7        1.0  0.7755596290694287  0.25331934272159057  0.27165388395131684  1.0000
  C   C313      1.0  0.7946991331911863  0.2784427577719798  0.3126088396758013  1.0000
  C   C314      1.0  0.7999491140793158  0.25250534353397025  0.21737433928445005  1.0000
  C   C315      1.0  0.7311682621554269  0.26397072048610865  0.2590730942599109  1.0000
  C   C316      1.0  0.7761805024616157  0.21826792615926266  0.2974360724574747  1.0000
  H   H265      1.0  0.7944511639583969  0.3052018391412985  0.29470123964904577  1.0000
  H   H266      1.0  0.8282678421914892  0.27121489148011635  0.3232187805867445  1.0000
  H   H267      1.0  0.7772184084078881  0.27958938387082927  0.35416111467121436  1.0000
  H   H268      1.0  0.7861977130338449  0.23384232044463446  0.18542207496712249  1.0000
  H   H269      1.0  0.799871961497952  0.27840060256235327  0.1964159401206282  1.0000
  H   H270      1.0  0.833623958593989  0.24448360304423336  0.22509889044846385  1.0000
  H   H271      1.0  0.7292918509973391  0.28988154643990754  0.23794120654035697  1.0000
  H   H272      1.0  0.711804120935447  0.2655546112028541  0.29899351013394465  1.0000
  H   H273      1.0  0.7157940983954433  0.24503736495747008  0.22921302263075846  1.0000
  H   H274      1.0  0.7644844877129406  0.19831764355920165  0.266223122190884  1.0000
  H   H275      1.0  0.7559826389583445  0.2173446937353191  0.3364830050626604  1.0000
  H   H276      1.0  0.8088997681582324  0.21021457850682607  0.31064604182347644  1.0000
  N   N8        1.0  0.8153026165750956  0.38212100341516975  0.13415556279521845  1.0000
  C   C317      1.0  0.8448621700973565  0.3933822586078468  0.08906487029144383  1.0000
  C   C318      1.0  0.7783258976428584  0.40628469978569975  0.13639176229329086  1.0000
  C   C319      1.0  0.837502624162236  0.38211100314686464  0.19070442913919305  1.0000
  C   C320      1.0  0.8006632248463157  0.34661773044514066  0.12043066277007441  1.0000
  H   H277      1.0  0.8562926327021463  0.4202448691661109  0.09742928088105596  1.0000
  H   H278      1.0  0.8295848635805468  0.3928453240771275  0.04543814759889364  1.0000
  H   H279      1.0  0.8732965355246073  0.3758125753548988  0.08692645472177496  1.0000
  H   H280      1.0  0.7549653453899604  0.3981891209884967  0.16935664973981024  1.0000
  H   H281      1.0  0.7880888550066598  0.4332087238263254  0.1479391455971859  1.0000
  H   H282      1.0  0.7612677898564505  0.4073093524337373  0.09404530147187784  1.0000
  H   H283      1.0  0.8657125090861887  0.364251434693927  0.19055081392180084  1.0000
  H   H284      1.0  0.8161537563387878  0.37375813804574254  0.22574749297422136  1.0000
  H   H285      1.0  0.849004511458762  0.40855143136470284  0.2024084901782004  1.0000
  H   H286      1.0  0.7770176302870307  0.33770059968816724  0.1521755275941572  1.0000
  H   H287      1.0  0.8275955050005755  0.32750318634112024  0.12014227935312372  1.0000
  H   H288      1.0  0.7854793920626106  0.34534258543123886  0.07677112548027298  1.0000
  N   N9        1.0  0.5295908651779196  0.6163121667465015  0.1279770960510913  1.0000
  C   C321      1.0  0.5384397510108029  0.5944144718485713  0.1790286590515442  1.0000
  C   C322      1.0  0.5594455405918468  0.6065207688769464  0.08149190562275854  1.0000
  C   C323      1.0  0.5350873904341764  0.6533807017086865  0.14346522122586847  1.0000
  C   C324      1.0  0.4854086826202811  0.6109462941099509  0.10787972811614499  1.0000
  H   H289      1.0  0.5162847897491216  0.6007900231175  0.2149486807715515  1.0000
  H   H290      1.0  0.5715270920615325  0.5978097729205925  0.19541823192821872  1.0000
  H   H291      1.0  0.534801723330351  0.5662962227634535  0.1683955949044893  1.0000
  H   H292      1.0  0.5544318214004172  0.6230425407191155  0.04270368858328322  1.0000
  H   H293      1.0  0.5930910462324233  0.6097106317747207  0.09572913277239103  1.0000
  H   H294      1.0  0.5555981418384343  0.5788836210658602  0.06791355416525824  1.0000
  H   H295      1.0  0.5282281935996995  0.6705673672596049  0.10579682041368965  1.0000
  H   H296      1.0  0.5681234493985833  0.6585626311771673  0.1583017841545784  1.0000
  H   H297      1.0  0.5131059645188818  0.6616424955498474  0.17857856882943435  1.0000
  H   H298      1.0  0.4801443129129605  0.5834250625044686  0.09447358233638581  1.0000
  H   H299      1.0  0.47728688712874984  0.6277378798135517  0.07031832671255756  1.0000
  H   H300      1.0  0.46209739881539647  0.6175173762833669  0.14235522545244716  1.0000
  N   N10       1.0  0.902285959678873  0.5134966833167957  0.4489799374883565  1.0000
  C   C325      1.0  0.9261936548618848  0.5021629659846408  0.3973382871666174  1.0000
  C   C326      1.0  0.9312294700723978  0.5143326095666385  0.49967748072450324  1.0000
  C   C327      1.0  0.8676242123581202  0.48890022451852777  0.4594741362976321  1.0000
  C   C328      1.0  0.8840432753949647  0.548660799065187  0.43941177237019924  1.0000
  H   H301      1.0  0.9389462306452854  0.4751638647601396  0.40218045648546424  1.0000
  H   H302      1.0  0.9534997008220432  0.5194599039263837  0.38919806960434117  1.0000
  H   H303      1.0  0.905616086083088  0.5023050646438777  0.3579041282495502  1.0000
  H   H304      1.0  0.9145320275566187  0.5234536645823953  0.5392198972774946  1.0000
  H   H305      1.0  0.9449524272438429  0.48809320029254744  0.5090685599566289  1.0000
  H   H306      1.0  0.9581394490798756  0.5322665728242809  0.49291897870400647  1.0000
  H   H307      1.0  0.8488599732262698  0.49677390619541584  0.4980063616760367  1.0000
  H   H308      1.0  0.8802706574916644  0.46215553764438866  0.46714438431650485  1.0000
  H   H309      1.0  0.8453069054366386  0.48741740798779226  0.42185551277280664  1.0000
  H   H310      1.0  0.8657343154739017  0.5579222514477169  0.4776454231329553  1.0000
  H   H311      1.0  0.8619629162596827  0.548910676970223  0.40149009377819544  1.0000
  H   H312      1.0  0.9094032936646983  0.5678694841665743  0.43135874632719706  1.0000
  N   N11       1.0  0.2849840951752906  0.1841086789502766  0.48659228714430874  1.0000
  C   C329      1.0  0.30393538214770255  0.14968797050122107  0.47250079799425837  1.0000
  C   C330      1.0  0.30915284766299117  0.21150664552467235  0.45778474704139027  1.0000
  C   C331      1.0  0.2865158910240558  0.18994149257939852  0.5497932000208122  1.0000
  C   C332      1.0  0.24031087335489  0.18536263580758572  0.46623372660618495  1.0000
  H   H313      1.0  0.2869049381780393  0.1285040551880896  0.4945739483595015  1.0000
  H   H314      1.0  0.33788160116151794  0.14802408608251238  0.48626007471493343  1.0000
  H   H315      1.0  0.3023951038158934  0.14415168609069795  0.4251540002987446  1.0000
  H   H316      1.0  0.2945711714875028  0.2376291247987068  0.4656613193674961  1.0000
  H   H317      1.0  0.34255838724914883  0.21244948311159928  0.47403995328604737  1.0000
  H   H318      1.0  0.3101147099170001  0.20722945623566535  0.41030475589656784  1.0000
  H   H319      1.0  0.272920668547153  0.21592960237651204  0.561697091500635  1.0000
  H   H320      1.0  0.3197849113462868  0.18910487343916538  0.5666469176417424  1.0000
  H   H321      1.0  0.2682747710006169  0.16983159338011533  0.5730096238275941  1.0000
  H   H322      1.0  0.2210484620563213  0.16526068303621466  0.4878466989027473  1.0000
  H   H323      1.0  0.23798174187907462  0.18068180032218173  0.4187699396201314  1.0000
  H   H324      1.0  0.2251474836252627  0.21116169217242042  0.47527943875609163  1.0000
  N   N12       1.0  0.7316299350076638  0.49736266980947863  0.9309464740515362  1.0000
  C   C333      1.0  0.6850513735864315  0.5020115599119962  0.9257787713660535  1.0000
  C   C334      1.0  0.7528138707586046  0.5291130486128119  0.9111627087299508  1.0000
  C   C335      1.0  0.7451413012519716  0.46730742222046473  0.8949223497319491  1.0000
  C   C336      1.0  0.7435199535455601  0.4909934455975353  0.9919111621648682  1.0000
  H   H325      1.0  0.6749668066526571  0.506230070224578  0.8802419161106895  1.0000
  H   H326      1.0  0.6735941692677465  0.5246859440575175  0.9513170335387463  1.0000
  H   H327      1.0  0.6680670515372602  0.4787683167209048  0.9410732515694441  1.0000
  H   H328      1.0  0.7880522858202513  0.526178963299544  0.9139112489618172  1.0000
  H   H329      1.0  0.7440606538837391  0.5351036802078052  0.8656242502973827  1.0000
  H   H330      1.0  0.7437090286878688  0.5521793895238986  0.937904589760114  1.0000
  H   H331      1.0  0.7800194385758211  0.4624783474564177  0.8983745360067451  1.0000
  H   H332      1.0  0.7371983171521749  0.4716159389989333  0.8484688653236304  1.0000
  H   H333      1.0  0.7291599036558225  0.4430418862654447  0.9082722022320913  1.0000
  H   H334      1.0  0.7785865473149717  0.4878621559705271  0.9971920616122212  1.0000
  H   H335      1.0  0.7288225016221138  0.4668731659908064  0.008009138179219777  1.0000
  H   H336      1.0  0.7329352174008154  0.5129196583439374  0.020426027940831037  1.0000
  N   N13       1.0  0.57146272785756  0.9137607609664108  0.1051132477761989  1.0000
  C   C337      1.0  0.5990192609431051  0.9390849218223933  0.13522641842321392  1.0000
  C   C338      1.0  0.5938161386177974  0.8995089358304492  0.054219168143784024  1.0000
  C   C339      1.0  0.5316205697112509  0.9313780537357909  0.08645359180626033  1.0000
  C   C340      1.0  0.5616085149693586  0.8849512420858122  0.14438787414534504  1.0000
  H   H337      1.0  0.5831833135415262  0.950650742636948  0.1737148430031703  1.0000
  H   H338      1.0  0.6074987297848558  0.9609082850594018  0.10640996737667163  1.0000
  H   H339      1.0  0.6293522433799561  0.9267028216679848  0.15016208355854355  1.0000
  H   H340      1.0  0.6240653441066693  0.8862715945365788  0.06713515964958172  1.0000
  H   H341      1.0  0.5745865520779695  0.8798300037336435  0.030984996700605505  1.0000
  H   H342      1.0  0.6015627806765664  0.9203638025868293  0.023238615706929533  1.0000
  H   H343      1.0  0.5098152742891428  0.9129984541593601  0.06414856029800453  1.0000
  H   H344      1.0  0.5378780609329268  0.9531146457846056  0.05643053588029878  1.0000
  H   H345      1.0  0.514197148389019  0.9425665407502474  0.12393892693709474  1.0000
  H   H346      1.0  0.5461937638028885  0.8947511438703581  0.18430797232159235  1.0000
  H   H347      1.0  0.5909056864372053  0.8704618752895619  0.1577781695188436  1.0000
  H   H348      1.0  0.5397017081278682  0.8659963444537461  0.12338088397872915  1.0000
  N   N14       1.0  0.5768919302572919  0.8661511018559187  0.4498919177075734  1.0000
  C   C341      1.0  0.5820911814991875  0.8278987482774977  0.45290229670177984  1.0000
  C   C342      1.0  0.5573478798624635  0.8792003580423369  0.5037870190456158  1.0000
  C   C343      1.0  0.5491637932583923  0.875431357776288  0.40026059132788533  1.0000
  C   C344      1.0  0.6189509489999888  0.882115042978909  0.44287162975638494  1.0000
  H   H349      1.0  0.5509542601313863  0.814971774583888  0.45809895709307336  1.0000
  H   H350      1.0  0.6025258847085866  0.8201654509154002  0.49045126606096007  1.0000
  H   H351      1.0  0.5970510163083579  0.8170703153486083  0.41317365300245945  1.0000
  H   H352      1.0  0.5533790354626448  0.9080092917826855  0.5036932056279503  1.0000
  H   H353      1.0  0.5257037092151721  0.8677597194732687  0.5104915521224161  1.0000
  H   H354      1.0  0.576836514768385  0.8720113430714777  0.5421798288599953  1.0000
  H   H355      1.0  0.5439554942643061  0.9040930319357938  0.3977274379331977  1.0000
  H   H356      1.0  0.5174283781435195  0.8632533958135363  0.4035500310125132  1.0000
  H   H357      1.0  0.5633118218931431  0.866812199944761  0.3585747423908219  1.0000
  H   H358      1.0  0.6410940323279604  0.8746543914137479  0.4786336479893935  1.0000
  H   H359      1.0  0.6165022461722514  0.9110550519293289  0.4426343112572862  1.0000
  H   H360      1.0  0.6340644724651294  0.8737593220798526  0.40169363074047787  1.0000
  N   N15       1.0  0.24848043156017965  0.8523218420418481  0.8028546623608674  1.0000
  C   C345      1.0  0.24471573017447112  0.81436412120527  0.810655636463221  1.0000
  C   C346      1.0  0.2932923914284969  0.8608332747813175  0.7917394915991076  1.0000
  C   C347      1.0  0.23408613133378608  0.8707268396553528  0.8556259153938958  1.0000
  C   C348      1.0  0.22170544392024608  0.8633862954715112  0.7533276013980549  1.0000
  H   H361      1.0  0.26442630594649214  0.8050912032239993  0.8478378244975767  1.0000
  H   H362      1.0  0.2551966141169841  0.7997623881945914  0.7714523615688862  1.0000
  H   H363      1.0  0.21115131258383557  0.8070378224394149  0.8185262353326913  1.0000
  H   H364      1.0  0.2971298545248737  0.88927660226284  0.7854134091935374  1.0000
  H   H365      1.0  0.31442100118932714  0.8532152869428891  0.8285609101782693  1.0000
  H   H366      1.0  0.3051860915508157  0.8474737831253084  0.752112967200117  1.0000
  H   H367      1.0  0.23535408799516952  0.8994818034262233  0.8504230232856123  1.0000
  H   H368      1.0  0.2545539867134762  0.864003765039077  0.8935959553716947  1.0000
  H   H369      1.0  0.20081377923894211  0.8641361139017951  0.8662752593444103  1.0000
  H   H370      1.0  0.22367399780752287  0.8918799860224479  0.7458835907411473  1.0000
  H   H371      1.0  0.1878376553182094  0.8574422854114047  0.7602714194081075  1.0000
  H   H372      1.0  0.23123525727576  0.8497783053419566  0.712742473660187  1.0000
  N   N16       1.0  0.9858850330044995  0.1530134738528858  0.8274758774798132  1.0000
  C   C349      1.0  0.9859128805401527  0.18647035589968167  0.7965567929966751  1.0000
  C   C350      1.0  0.010445398618295965  0.12683491380528777  0.7940762994692607  1.0000
  C   C351      1.0  0.9417363678105197  0.14108131237216465  0.833849107687604  1.0000
  C   C352      1.0  0.005554062878164734  0.15752524185706215  0.8852515015045096  1.0000
  H   H373      1.0  0.966747537067224  0.20671284341315654  0.8195419146455505  1.0000
  H   H374      1.0  0.9720410595446587  0.18361938216339668  0.75238353590965  1.0000
  H   H375      1.0  0.01873294004932191  0.19633443436296916  0.7919135654765209  1.0000
  H   H376      1.0  0.008533224768695336  0.10067903817399841  0.8137404854201109  1.0000
  H   H377      1.0  0.9985650047655233  0.12456990237919992  0.7489368771377375  1.0000
  H   H378      1.0  0.04470745857239633  0.13343670162727292  0.791823276036517  1.0000
  H   H379      1.0  0.9258510200217875  0.13729644029614585  0.7914016551848739  1.0000
  H   H380      1.0  0.9218936883803407  0.16016010592416155  0.8581127837983754  1.0000
  H   H381      1.0  0.9405043819053505  0.11607443511553873  0.8575981846899753  1.0000
  H   H382      1.0  0.03967036547812364  0.16441743774615025  0.8822929150208672  1.0000
  H   H383      1.0  0.003982629127437853  0.13316721020141956  0.9108024919035053  1.0000
  H   H384      1.0  0.9890680464146232  0.1782426100369773  0.9106325263273432  1.0000
  N   N17       1.0  0.281804091326745  0.0014502660490454122  0.7238393155490708  1.0000
  C   C353      1.0  0.26769812220121647  0.969382327052467  0.7521656860433164  1.0000
  C   C354      1.0  0.296437253753566  0.02648982332906935  0.7683627327833765  1.0000
  C   C355      1.0  0.24601945768903777  0.017017009492234392  0.6904930352047935  1.0000
  C   C356      1.0  0.31710502064681934  0.9927336035380004  0.6843406444980435  1.0000
  H   H385      1.0  0.25403013919308925  0.9508052858182159  0.720234211662701  1.0000
  H   H386      1.0  0.24251092402832652  0.9749794849815049  0.7842271744849872  1.0000
  H   H387      1.0  0.2943712157930225  0.9560188476432218  0.7754160162717091  1.0000
  H   H388      1.0  0.3082788967003891  0.05072006184281452  0.7485924004068595  1.0000
  H   H389      1.0  0.2702503619381875  0.03417215732628298  0.7980812850817202  1.0000
  H   H390      1.0  0.3225501082590101  0.015160112561337202  0.7954935009484073  1.0000
  H   H391      1.0  0.2553375273932472  0.04142721898069013  0.6686767256777508  1.0000
  H   H392      1.0  0.21852441715228244  0.02347535628064845  0.7186565850758787  1.0000
  H   H393      1.0  0.2342375429349388  0.9988207298215379  0.6565047995257309  1.0000
  H   H394      1.0  0.3071699583768772  0.9733773900294698  0.6509025903970381  1.0000
  H   H395      1.0  0.3448874675334337  0.9812887175960986  0.7080805220152879  1.0000
  H   H396      1.0  0.3282980678746117  0.016173419344042594  0.6614737490631273  1.0000
  N   N18       1.0  0.035989534195227435  0.285402752293884  0.054527191504093464  1.0000
  C   C357      1.0  0.015269517653609954  0.3174920305793514  0.07700125985775519  1.0000
  C   C358      1.0  0.0031014367557482547  0.2606107770517625  0.03543487800014855  1.0000
  C   C359      1.0  0.06254011998470532  0.26944387487968613  0.10054619589349101  1.0000
  C   C360      1.0  0.06314663748468052  0.29407582744129224  0.005113498978856157  1.0000
  H   H397      1.0  0.03915709139134527  0.33720695478278495  0.09021306524122519  1.0000
  H   H398      1.0  0.995250512669018  0.31209054403490577  0.11523076149248257  1.0000
  H   H399      1.0  0.9944607850328907  0.32990549587544526  0.043607004813666084  1.0000
  H   H400      1.0  0.017508673611573267  0.23586319258473254  0.01896034975172567  1.0000
  H   H401      1.0  0.9815357059189709  0.2539498700072742  0.07132980058583982  1.0000
  H   H402      1.0  0.9828172753775221  0.2716751425968327  0.00028214560375294795  1.0000
  H   H403      1.0  0.07829225354736047  0.24491999172115553  0.08523586782227444  1.0000
  H   H404      1.0  0.043329987252230584  0.263093256598099  0.13906664286798054  1.0000
  H   H405      1.0  0.08823564963506758  0.287203738282128  0.11500619478308693  1.0000
  H   H406      1.0  0.08810094879492181  0.3130115159386919  0.017827360405926695  1.0000
  H   H407      1.0  0.04441572905914559  0.30631627797006633  0.9695609274119703  1.0000
  H   H408      1.0  0.07949085820825208  0.2705425677408575  0.9872142999810023  1.0000
  N   N19       1.0  0.28468943753071546  0.25669743543048607  0.12540396547281274  1.0000
  C   C361      1.0  0.28386932108963625  0.26721597457051927  0.06409883957215556  1.0000
  C   C362      1.0  0.322667053703163  0.271119783858417  0.15444837077116702  1.0000
  C   C363      1.0  0.28594394720081967  0.21829431799671314  0.12874761690778302  1.0000
  C   C364      1.0  0.24616817370380722  0.27024751105755723  0.15442615841648077  1.0000
  H   H409      1.0  0.3135635536030367  0.2591401297086167  0.041640141619252224  1.0000
  H   H410      1.0  0.28057885912658603  0.2959600273563247  0.05972385422027138  1.0000
  H   H411      1.0  0.25683656588997555  0.2552894160305467  0.04020518757413716  1.0000
  H   H412      1.0  0.32146797255888093  0.3000851774433244  0.15470467086225215  1.0000
  H   H413      1.0  0.32517413115701704  0.26272580841362697  0.20024074874548203  1.0000
  H   H414      1.0  0.35246217093753285  0.2629112155288109  0.13230458976831083  1.0000
  H   H415      1.0  0.257588634578313  0.20672715917739767  0.10707591989266874  1.0000
  H   H416      1.0  0.28606161140193187  0.20937530738225787  0.17432396396612848  1.0000
  H   H417      1.0  0.3147166514659434  0.2071948228229676  0.10747902983211599  1.0000
  H   H418      1.0  0.24677666884002708  0.2641878522102231  0.20125665950881144  1.0000
  H   H419      1.0  0.21693197962575028  0.2585083330455189  0.13594210920128313  1.0000
  H   H420      1.0  0.24311036773100633  0.299028414356248  0.15035456261164626  1.0000
  N   N20       1.0  0.2971970839443363  0.04004102014873312  0.161653408579159  1.0000
  C   C365      1.0  0.3123136173187513  0.04327792650036577  0.10171920881774321  1.0000
  C   C366      1.0  0.283835503810329  0.0039012459677558735  0.1715397322602641  1.0000
  C   C367      1.0  0.260684275539295  0.06399912137801378  0.17080807741559068  1.0000
  C   C368      1.0  0.33180486863510594  0.04899031077134408  0.2025265895425401  1.0000
  H   H421      1.0  0.32215290338796065  0.07032234066257184  0.09226519113298104  1.0000
  H   H422      1.0  0.2870046845141505  0.0365106394371546  0.06978005006904153  1.0000
  H   H423      1.0  0.3400718677741084  0.025677141711877516  0.09327525598178377  1.0000
  H   H424      1.0  0.31059189062574166  0.9850852671363759  0.16444217652739868  1.0000
  H   H425      1.0  0.272498987665576  0.0005083262291583067  0.21650083494987027  1.0000
  H   H426      1.0  0.2574685007195827  0.9965510637327077  0.14162962552004776  1.0000
  H   H427      1.0  0.24762012735313613  0.06168920818216375  0.21503120435655343  1.0000
  H   H428      1.0  0.23434683791992417  0.05852774966734943  0.13980622644471485  1.0000
  H   H429      1.0  0.2698664955694153  0.09162653657082215  0.16559590590318218  1.0000
  H   H430      1.0  0.3214418480230605  0.04655204277582703  0.24811483800614687  1.0000
  H   H431      1.0  0.34208868291155925  0.07632106828353133  0.1968122561028438  1.0000
  H   H432      1.0  0.3601330049993495  0.03172375242668979  0.19640373359195418  1.0000
  N   N21       1.0  0.8184527005532177  0.9597078819979056  0.10632812190157392  1.0000
  C   C369      1.0  0.7919653762296297  0.9319734446066816  0.1301986946652327  1.0000
  C   C370      1.0  0.8264395341468483  0.9863053613367997  0.1514145672313838  1.0000
  C   C371      1.0  0.7959705966780135  0.9760068599647325  0.05681615605970669  1.0000
  C   C372      1.0  0.8594801345287332  0.9446195840753056  0.08712869606934226  1.0000
  H   H433      1.0  0.8080437838083094  0.9189275575560092  0.16748958467191688  1.0000
  H   H434      1.0  0.7850159977802936  0.911663975695363  0.09704181940646105  1.0000
  H   H435      1.0  0.7607766811915179  0.942570157472779  0.14514097905457568  1.0000
  H   H436      1.0  0.8467838049709807  0.007288326020540525  0.13474305024622743  1.0000
  H   H437      1.0  0.796233631870099  0.9987683635220417  0.1662662257439078  1.0000
  H   H438      1.0  0.843189683458495  0.9748931327293202  0.18958434320488493  1.0000
  H   H439      1.0  0.8144898807919171  0.9976130101147525  0.03826477632061697  1.0000
  H   H440      1.0  0.7647119284835677  0.9873729703985025  0.07000069262473028  1.0000
  H   H441      1.0  0.7893296823657916  0.9567716804726769  0.02179758237662721  1.0000
  H   H442      1.0  0.8804553589243937  0.9650149135019916  0.06969118353546677  1.0000
  H   H443      1.0  0.8548036814464108  0.924533622501679  0.0528525750080715  1.0000
  H   H444      1.0  0.8770525129150015  0.9320198523761629  0.12368708638903114  1.0000
  N   N22       1.0  0.45490442931489483  0.47364416027790807  0.9447732856283115  1.0000
  C   C373      1.0  0.4431804665687245  0.4651832681990657  0.8842710845120736  1.0000
  C   C374      1.0  0.4597832131667731  0.4411878566310716  0.9782444497031122  1.0000
  C   C375      1.0  0.42127852652465925  0.49582815658588225  0.9707789741932339  1.0000
  C   C376      1.0  0.49545610814044116  0.4925713936840253  0.9458811326495057  1.0000
  H   H445      1.0  0.41268729155817774  0.45091657103255  0.8815416609165186  1.0000
  H   H446      1.0  0.4678827632429506  0.4485401714977756  0.863206006033064  1.0000
  H   H447      1.0  0.4393988860902823  0.4891878067039697  0.8578706373131275  1.0000
  H   H448      1.0  0.46877908502377547  0.44674633111477047  0.024053028055924353  1.0000
  H   H449      1.0  0.4297692386345993  0.42626426873347484  0.9785670151517666  1.0000
  H   H450      1.0  0.4848527330019846  0.4237589624754039  0.9598608867202103  1.0000
  H   H451      1.0  0.42912917326367134  0.5027621151921348  0.01649464578035542  1.0000
  H   H452      1.0  0.39001810233235024  0.482689708274687  0.9704259017523296  1.0000
  H   H453      1.0  0.41696733907173994  0.5206925842233463  0.9469330794776283  1.0000
  H   H454      1.0  0.5047119944789836  0.5001477678511939  0.9908069586048203  1.0000
  H   H455      1.0  0.493098513642829  0.5167895889637607  0.9198898400247846  1.0000
  H   H456      1.0  0.5218027273441841  0.47646213660727427  0.9275575055403636  1.0000
  N   N23       1.0  0.16573033715030538  0.8802037185460487  0.26975479023581866  1.0000
  C   C377      1.0  0.14456725729752562  0.8475724820565227  0.25239929752742113  1.0000
  C   C378      1.0  0.2039396633350108  0.8849401556876223  0.23418429514162864  1.0000
  C   C379      1.0  0.17839599361230407  0.8783982241083519  0.3313642586184701  1.0000
  C   C380      1.0  0.13598614389822727  0.9099365290190548  0.26121129867485005  1.0000
  H   H457      1.0  0.13414680271096935  0.8480466857058381  0.20627016463315836  1.0000
  H   H458      1.0  0.11576181345906433  0.8430393900943107  0.278628248582469  1.0000
  H   H459      1.0  0.16602736687626996  0.824500512552612  0.2577766307963526  1.0000
  H   H460      1.0  0.22082095464546136  0.9092159238806339  0.24653669032852368  1.0000
  H   H461      1.0  0.22701514825482505  0.8628505150044455  0.23930221746886057  1.0000
  H   H462      1.0  0.195647962069724  0.8865336464897625  0.18740073664253054  1.0000
  H   H463      1.0  0.19451831004272369  0.9026514541737438  0.34595758907436075  1.0000
  H   H464      1.0  0.20085947023648587  0.8562950731343985  0.33947873704780274  1.0000
  H   H465      1.0  0.15029042069600784  0.8748990762688635  0.3594850821096428  1.0000
  H   H466      1.0  0.15050085506775246  0.9349812809816898  0.27504399497091564  1.0000
  H   H467      1.0  0.10650371738242659  0.906844615708922  0.2867489484935009  1.0000
  H   H468      1.0  0.12616896248685805  0.9125062192457841  0.21511213196433474  1.0000
  N   N24       1.0  0.6915298765300728  0.1522772010538298  0.017801808681679132  1.0000
  C   C381      1.0  0.7324598063252781  0.13362243282331643  0.009547659258018593  1.0000
  C   C382      1.0  0.6989504235502574  0.19016623663083965  0.01960596192488584  1.0000
  C   C383      1.0  0.6724403100274472  0.14142094454961773  0.07273278512503456  1.0000
  C   C384      1.0  0.6623486063157413  0.14389039424752736  0.9693646077756407  1.0000
  H   H469      1.0  0.7282087181662552  0.10500163912039695  0.0068462914171099065  1.0000
  H   H470      1.0  0.7547930363091947  0.13847721556337556  0.04605144946166395  1.0000
  H   H471      1.0  0.7482844439251991  0.1413971640573619  0.9689504687538893  1.0000
  H   H472      1.0  0.7135139957488786  0.19924765456958138  0.9789321364099657  1.0000
  H   H473      1.0  0.668824027462685  0.20516269145749222  0.025933614014926  1.0000
  H   H474      1.0  0.7207868373557351  0.19737465402031673  0.05581171081324787  1.0000
  H   H475      1.0  0.6410946207950506  0.1544469793250236  0.07984956320302583  1.0000
  H   H476      1.0  0.6930891662864763  0.14795658811687407  0.1103935116140673  1.0000
  H   H477      1.0  0.6673750172401143  0.11280382215439144  0.07348649421818032  1.0000
  H   H478      1.0  0.6311543971431555  0.1576319156253596  0.9740047067453398  1.0000
  H   H479      1.0  0.6557269848988266  0.11554592532617036  0.9673694919304135  1.0000
  H   H480      1.0  0.676030564786148  0.15109437942531745  0.9270636139305138  1.0000
  N   N25       1.0  0.045161847650285525  0.8067830930604897  0.5366025658913031  1.0000
  C   C385      1.0  0.08356022772352656  0.824991912114575  0.5176700182239109  1.0000
  C   C386      1.0  0.007046990594787861  0.8239161189724963  0.5111816519967866  1.0000
  C   C387      1.0  0.04276929882548086  0.8082813309562898  0.600274449997483  1.0000
  C   C388      1.0  0.04731191538552748  0.7700482462515142  0.5172503906045253  1.0000
  H   H481      1.0  0.0864936555875373  0.8241596260897437  0.46979118273733916  1.0000
  H   H482      1.0  0.11296375652856971  0.8132031136890799  0.536749414020035  1.0000
  H   H483      1.0  0.08244054686219737  0.8529876542071955  0.5305968858537528  1.0000
  H   H484      1.0  0.9771936568234636  0.811812736182636  0.5259396717366496  1.0000
  H   H485      1.0  0.005382374086364772  0.8520879433875264  0.5224208845641904  1.0000
  H   H486      1.0  0.007121551015981442  0.8221285323812344  0.4633359077717424  1.0000
  H   H487      1.0  0.07096206197763766  0.7954974500267847  0.6210927641886015  1.0000
  H   H488      1.0  0.013786075809258058  0.7954522904809354  0.6161671653370591  1.0000
  H   H489      1.0  0.04143046812629647  0.8356477011779467  0.6159376729904074  1.0000
  H   H490      1.0  0.01828550513651872  0.7558196599545053  0.5295732595709749  1.0000
  H   H491      1.0  0.0753553189029148  0.7561335925015173  0.5361967862924849  1.0000
  H   H492      1.0  0.049488143385923555  0.7679789871572333  0.4693228784533674  1.0000
  N   N26       1.0  0.4924525498895975  0.1187274847712489  0.8128867422668221  1.0000
  C   C389      1.0  0.46151422124415103  0.14804394845312382  0.8152059922509762  1.0000
  C   C390      1.0  0.5353495238715147  0.13160867341462948  0.8269674450802822  1.0000
  C   C391      1.0  0.49246926118078493  0.10318073584238129  0.7542306762626587  1.0000
  C   C392      1.0  0.4806902325718497  0.09209664564504777  0.8552566965766998  1.0000
  H   H493      1.0  0.42864300172043723  0.139328051009068  0.8056016020874385  1.0000
  H   H494      1.0  0.46927466577041005  0.16855932743567287  0.783516584476475  1.0000
  H   H495      1.0  0.4614712405236083  0.16084749477551322  0.8586011334006685  1.0000
  H   H496      1.0  0.5596414526871032  0.11021744303461287  0.8255041534726435  1.0000
  H   H497      1.0  0.5451735861386271  0.15164340581389904  0.7958230690877667  1.0000
  H   H498      1.0  0.5366836754669311  0.14344141262227825  0.87099804936724  1.0000
  H   H499      1.0  0.5167921605080892  0.08196453968413628  0.7505525787856719  1.0000
  H   H500      1.0  0.5002613706688922  0.12274566745614311  0.7209875511316345  1.0000
  H   H501      1.0  0.46110172869588206  0.09202466912687876  0.7425540320089227  1.0000
  H   H502      1.0  0.4808548122455025  0.10291481058182644  0.9000893226358629  1.0000
  H   H503      1.0  0.503645149212239  0.06974966490991803  0.8548289256106265  1.0000
  H   H504      1.0  0.4484733982478533  0.08174105274937184  0.8462046476120516  1.0000
  N   N27       1.0  0.5866635288329989  0.4012953014657402  0.40337389869563767  1.0000
  C   C393      1.0  0.6029961704679201  0.4075566440198043  0.46257686721029656  1.0000
  C   C394      1.0  0.5421824133381762  0.3897220440880047  0.4057290164067635  1.0000
  C   C395      1.0  0.6129871622919302  0.374005923130671  0.3751824047506731  1.0000
  C   C396      1.0  0.5885975612591801  0.43382259362586406  0.3699475368560037  1.0000
  H   H505      1.0  0.6030393340191633  0.38335129983739696  0.4887091482518511  1.0000
  H   H506      1.0  0.583662701336166  0.4275776469356724  0.4857738554738895  1.0000
  H   H507      1.0  0.6363503988938343  0.4168187989551863  0.4619548383618324  1.0000
  H   H508      1.0  0.5288506291426586  0.3854491834108722  0.3615209849707699  1.0000
  H   H509      1.0  0.5397660452876911  0.36470416205481115  0.4293293661321118  1.0000
  H   H510      1.0  0.521381215250756  0.409250528831928  0.42773284047322013  1.0000
  H   H511      1.0  0.6021620284595055  0.3690085488208579  0.32989752895639435  1.0000
  H   H512      1.0  0.6114791161972749  0.3488659739510284  0.39853703870083024  1.0000
  H   H513      1.0  0.6469300956480629  0.38159298344652737  0.37357185145141214  1.0000
  H   H514      1.0  0.568250745124942  0.4547379492324003  0.3890932815063537  1.0000
  H   H515      1.0  0.5778977121127902  0.4296799333724642  0.3243878915729197  1.0000
  H   H516      1.0  0.6216803330999265  0.4436424141482104  0.3683085678465725  1.0000
  N   N28       1.0  0.5873905991789558  0.31201093536946756  0.9009627425647083  1.0000
  C   C397      1.0  0.5701928659172358  0.2791554048938019  0.9230085308860797  1.0000
  C   C398      1.0  0.587866992501108  0.33853780890340246  0.947644705197182  1.0000
  C   C399      1.0  0.5602578242477554  0.3245178179589551  0.8527061731307416  1.0000
  C   C400      1.0  0.6311565905984902  0.3057255725475082  0.8803323318010142  1.0000
  H   H517      1.0  0.5732800091838665  0.2576598634691879  0.8908110119223832  1.0000
  H   H518      1.0  0.5356932105524321  0.2818426581489601  0.9327395437894588  1.0000
  H   H519      1.0  0.5865997989401441  0.27081180905591395  0.963494356377655  1.0000
  H   H520      1.0  0.5551438735920685  0.34494269083087004  0.9625233483038172  1.0000
  H   H521      1.0  0.6061294037938898  0.32926061339063023  0.9861751890349404  1.0000
  H   H522      1.0  0.6025507834872542  0.36314374520115716  0.9334135906659434  1.0000
  H   H523      1.0  0.5580664661805164  0.30459191831341875  0.8177640246227466  1.0000
  H   H524      1.0  0.5727843131729426  0.34871889238255266  0.8336747256331715  1.0000
  H   H525      1.0  0.5271175212991505  0.3299983327025904  0.8671332402548309  1.0000
  H   H526      1.0  0.6453988428437542  0.3299743460410286  0.8637790683846429  1.0000
  H   H527      1.0  0.6319074815799044  0.28627749315088663  0.8443803686947204  1.0000
  H   H528      1.0  0.6521764568672909  0.29572799569685976  0.9155930913842334  1.0000
  N   N29       1.0  0.9873316997369812  0.10857718068619275  0.31538311701680277  1.0000
  C   C401      1.0  0.01793058538806136  0.09280578227660959  0.2743692456323332  1.0000
  C   C402      1.0  0.98436926110485  0.14650281006353155  0.3059461398464567  1.0000
  C   C403      1.0  0.0016932936980837976  0.10195493064618016  0.3753187152588679  1.0000
  C   C404      1.0  0.9451420300653097  0.09307510843523603  0.305953292274905  1.0000
  H   H529      1.0  0.05044335296601443  0.1033124207470206  0.2807581960406535  1.0000
  H   H530      1.0  0.008341320474858804  0.09751803438395963  0.22870390660163542  1.0000
  H   H531      1.0  0.020602815527300145  0.06411957086988497  0.2799536849435835  1.0000
  H   H532      1.0  0.015495647071167795  0.15915601886229203  0.31368242102601773  1.0000
  H   H533      1.0  0.9742106626472814  0.15238301539048174  0.2608924328741998  1.0000
  H   H534      1.0  0.960705177740787  0.15907005606747993  0.33534316544718684  1.0000
  H   H535      1.0  0.9796808500672011  0.11411071934137157  0.40725168890978697  1.0000
  H   H536      1.0  0.0339626892229723  0.11253129892285851  0.3835419682337438  1.0000
  H   H537      1.0  0.0036168885279601604  0.07358249797304837  0.3842756038207502  1.0000
  H   H538      1.0  0.9463019230812798  0.06440459463943221  0.31235987480507815  1.0000
  H   H539      1.0  0.933344876235098  0.09780646833715673  0.26134649781735986  1.0000
  H   H540      1.0  0.9211966865809121  0.1046312902111927  0.33584639369118763  1.0000
  N   N30       1.0  0.4267657874293041  0.9724603760663088  0.4282138200127771  1.0000
  C   C405      1.0  0.42247364605476784  0.008901473019611972  0.4088083924242062  1.0000
  C   C406      1.0  0.4468560960541283  0.9511936706017065  0.3822245850885107  1.0000
  C   C407      1.0  0.38426846293439587  0.9586165821975369  0.4406658455366053  1.0000
  C   C408      1.0  0.4536018297076491  0.9710872860096068  0.48100666320364044  1.0000
  H   H541      1.0  0.408819307240471  0.025983297052221133  0.4432490259243739  1.0000
  H   H542      1.0  0.4015621161880401  0.011077946478647904  0.36988793850520263  1.0000
  H   H543      1.0  0.45391751980322503  0.019786205139721735  0.39760200698166165  1.0000
  H   H544      1.0  0.47925534667964537  0.9605969333457546  0.3723409322107379  1.0000
  H   H545      1.0  0.4499462927233515  0.9233809805510627  0.39494836640043995  1.0000
  H   H546      1.0  0.42782041963852746  0.952107954961701  0.3414162356442629  1.0000
  H   H547      1.0  0.38640877727903866  0.9310391001310119  0.4550086819669197  1.0000
  H   H548      1.0  0.3630349885928385  0.9593252965081653  0.4018472948029571  1.0000
  H   H549      1.0  0.36808945276507177  0.9738966234270218  0.47533075088104637  1.0000
  H   H550      1.0  0.4578183305350078  0.943915610170729  0.4965801731763185  1.0000
  H   H551      1.0  0.4394855826522388  0.9868954780153366  0.5167581246847239  1.0000
  H   H552      1.0  0.48571871271131195  0.9817420420169991  0.4732282269345449  1.0000
  N   N31       1.0  0.3494693260866991  0.7332955487574762  0.5575178980539325  1.0000
  C   C409      1.0  0.3696176636734448  0.7005477610937041  0.5371849437383808  1.0000
  C   C410      1.0  0.3561126611941748  0.7608756327140688  0.5145385554772198  1.0000
  C   C411      1.0  0.3688214833535259  0.7436311776078581  0.6134032357608431  1.0000
  C   C412      1.0  0.30340635803710664  0.7279678645836468  0.564712755771544  1.0000
  H   H553      1.0  0.3646367055589471  0.6789062169460154  0.5679201375431905  1.0000
  H   H554      1.0  0.4044646589141935  0.7034625480039827  0.5319331996832252  1.0000
  H   H555      1.0  0.3561847103259335  0.6923405325527244  0.4947167512794647  1.0000
  H   H556      1.0  0.34201511485866815  0.7538129962261688  0.4717421242066832  1.0000
  H   H557      1.0  0.34162473265129306  0.7861329159367553  0.5285533652815135  1.0000
  H   H558      1.0  0.39052145270321625  0.7653229323260025  0.5076813196183138  1.0000
  H   H559      1.0  0.4034566777013257  0.7486083964694424  0.6091033039156244  1.0000
  H   H560      1.0  0.36543505367375967  0.7229659012862054  0.6464089859897352  1.0000
  H   H561      1.0  0.3537305001188485  0.7678287242016321  0.6307857861512041  1.0000
  H   H562      1.0  0.2871212307959713  0.7520087566633342  0.5808022805253261  1.0000
  H   H563      1.0  0.2972013522548038  0.7067302060325658  0.5958372978924372  1.0000
  H   H564      1.0  0.28796080621271686  0.7205408376602438  0.5229361702100367  1.0000
  N   N32       1.0  0.7534685802614847  0.6958356556336313  0.2780845541697771  1.0000
  C   C413      1.0  0.7347107183027871  0.6778114523044177  0.2274037185089577  1.0000
  C   C414      1.0  0.7378027881269287  0.6801817616809643  0.3318037730234209  1.0000
  C   C415      1.0  0.7411771196235892  0.7331109078302591  0.2768097200669907  1.0000
  C   C416      1.0  0.8002812351804646  0.6923226553996982  0.2763452413026813  1.0000
  H   H565      1.0  0.7458250115629486  0.6892124376312657  0.1861705541343286  1.0000
  H   H566      1.0  0.6994056743147561  0.6798246932123098  0.22726959368237765  1.0000
  H   H567      1.0  0.7435239014239675  0.6496352070656198  0.2266616843367315  1.0000
  H   H568      1.0  0.7457769619213385  0.6519000985360033  0.33388727724744566  1.0000
  H   H569      1.0  0.7520692675828572  0.6928466677385178  0.37077039494332126  1.0000
  H   H570      1.0  0.7026964779307069  0.6831295588533013  0.33536563357425986  1.0000
  H   H571      1.0  0.7060801609893932  0.7367886154881917  0.2777501772640283  1.0000
  H   H572      1.0  0.7528556017975447  0.7458941133868443  0.23717211403453595  1.0000
  H   H573      1.0  0.7545261692154729  0.7474502675951842  0.31466121816580217  1.0000
  H   H574      1.0  0.8129818510955806  0.7027436789183877  0.23535618094947108  1.0000
  H   H575      1.0  0.8107749433573266  0.6646132673667997  0.27912660535311384  1.0000
  H   H576      1.0  0.8155786088354042  0.706763246598814  0.31278751828330087  1.0000
  N   N33       1.0  0.7826308289809826  0.24035647971351162  0.6231997812842522  1.0000
  C   C417      1.0  0.7782027307231565  0.27005485274496904  0.5833768723453278  1.0000
  C   C418      1.0  0.7961009067775173  0.2530943988862094  0.6808902648911621  1.0000
  C   C419      1.0  0.8148274100039417  0.2154294715668589  0.6008811494903982  1.0000
  C   C420      1.0  0.7413835409810804  0.22278297598656574  0.6277127776335828  1.0000
  H   H577      1.0  0.8090512883635342  0.28320560524104  0.5776475552241156  1.0000
  H   H578      1.0  0.7548072001814434  0.2897992934791312  0.5995039552365168  1.0000
  H   H579      1.0  0.76725601405001  0.26154595482014253  0.5396950803410931  1.0000
  H   H580      1.0  0.7996397179384612  0.2313222927657253  0.712146545609061  1.0000
  H   H581      1.0  0.8272600132666348  0.26628332738380917  0.6791801344718226  1.0000
  H   H582      1.0  0.772546877546076  0.2719084728763151  0.6992449933099747  1.0000
  H   H583      1.0  0.8466770313071468  0.22749701745905904  0.5979180164782645  1.0000
  H   H584      1.0  0.8061179747161396  0.2055842485385215  0.5571582569249589  1.0000
  H   H585      1.0  0.8182632730107561  0.19247268685938737  0.629542379329061  1.0000
  H   H586      1.0  0.7160693494427726  0.24116900909518407  0.6424630568432353  1.0000
  H   H587      1.0  0.7430837076826052  0.20113476223525983  0.6593545980879858  1.0000
  H   H588      1.0  0.7308541475597283  0.21187000066158174  0.5853646559270782  1.0000
  N   N34       1.0  0.7838273018148489  0.6228319699980464  0.7545712330895664  1.0000
  C   C421      1.0  0.750225618051777  0.5971637048764075  0.7641185181929402  1.0000
  C   C422      1.0  0.8047880370488693  0.6151254289198073  0.6989594881289314  1.0000
  C   C423      1.0  0.815461735566744  0.6207688742675959  0.8021397744077212  1.0000
  C   C424      1.0  0.7646249703735206  0.6581434129390251  0.7529297490262233  1.0000
  H   H589      1.0  0.7334231037605924  0.6020742928506705  0.8055541258641437  1.0000
  H   H590      1.0  0.7635093312172032  0.5701844054554052  0.7655146889237759  1.0000
  H   H591      1.0  0.7256719341923288  0.5978969091866311  0.7291412321982137  1.0000
  H   H592      1.0  0.7815912230833622  0.6165070863528288  0.6622533859117278  1.0000
  H   H593      1.0  0.8303624634138635  0.6339495923235956  0.6902605413329529  1.0000
  H   H594      1.0  0.8193157499060425  0.588479093761532  0.6985048727090378  1.0000
  H   H595      1.0  0.8411538016176706  0.6400008397314694  0.7967820234410748  1.0000
  H   H596      1.0  0.8305198463165325  0.5943861124776766  0.8045290402542301  1.0000
  H   H597      1.0  0.8004827137238435  0.6262636360166028  0.8446940666586135  1.0000
  H   H598      1.0  0.7890029767311824  0.6784841186842214  0.7477173838481607  1.0000
  H   H599      1.0  0.7469154013570869  0.6642709814755385  0.7932168449321779  1.0000
  H   H600      1.0  0.7416135789256904  0.6606857321388194  0.7164298191441916  1.0000
  N   N35       1.0  0.6173978122968843  0.723918291100892  0.8335865104018091  1.0000
  C   C425      1.0  0.5736933040194524  0.7380091006956153  0.8398691005168203  1.0000
  C   C426      1.0  0.6414711225158569  0.7466048228804034  0.7949307040189624  1.0000
  C   C427      1.0  0.615784691591698  0.6883479720826738  0.8089034051083118  1.0000
  C   C428      1.0  0.6387786755500541  0.7226958817799558  0.890665320273898  1.0000
  H   H601      1.0  0.553894239178585  0.7205496604340577  0.8661193557045187  1.0000
  H   H602      1.0  0.5574768007498356  0.7409284301113686  0.7971687121495479  1.0000
  H   H603      1.0  0.5735179606136666  0.7639619328450101  0.8616218517013988  1.0000
  H   H604      1.0  0.626762584736612  0.7477081888303959  0.7510288593470363  1.0000
  H   H605      1.0  0.6428732161369354  0.7737097642060051  0.812093577571563  1.0000
  H   H606      1.0  0.6748034843994488  0.7370477639838647  0.7897803243639009  1.0000
  H   H607      1.0  0.6482912714150612  0.6770418242996008  0.8032459747764712  1.0000
  H   H608      1.0  0.5999035875326818  0.6882107275449239  0.7657057262504218  1.0000
  H   H609      1.0  0.5980665514267713  0.6705742504042405  0.8374462332451738  1.0000
  H   H610      1.0  0.671667703367927  0.7118932001691249  0.8871721289410076  1.0000
  H   H611      1.0  0.6215526678413115  0.7058438789589765  0.921117651645511  1.0000
  H   H612      1.0  0.6409472531813201  0.7491039948458132  0.9105906306779143  1.0000
  N   N36       1.0  0.6977601473442059  0.044478497373566794  0.6611182250245617  1.0000
  C   C429      1.0  0.676224373217467  0.05626418306725722  0.6075809282490983  1.0000
  C   C430      1.0  0.6659496710513453  0.031849046818025695  0.7019958152870157  1.0000
  C   C431      1.0  0.7209090545179332  0.07374952944510849  0.6878477061823566  1.0000
  C   C432      1.0  0.7278775051874595  0.015811488889668768  0.6473880396870876  1.0000
  H   H613      1.0  0.6995171841397247  0.06428531069181886  0.5746545372191322  1.0000
  H   H614      1.0  0.6545125824167736  0.0787685076918403  0.6160275991207966  1.0000
  H   H615      1.0  0.6568058939145555  0.035229420230366904  0.5878742378273321  1.0000
  H   H616      1.0  0.681454918271851  0.02138862663422425  0.7416967855621703  1.0000
  H   H617      1.0  0.643805612434652  0.05298684899665185  0.7158813566406426  1.0000
  H   H618      1.0  0.6466006840859125  0.010723030428221758  0.6824159446953384  1.0000
  H   H619      1.0  0.747107254592529  0.08251913081693596  0.6598060894596  1.0000
  H   H620      1.0  0.7352682273623286  0.06616421427143893  0.7300989604658876  1.0000
  H   H621      1.0  0.6992519696422067  0.09637532686797523  0.6964361618627543  1.0000
  H   H622      1.0  0.7513642188134448  0.023553861925770025  0.6144064306217146  1.0000
  H   H623      1.0  0.7110076713640126  0.992680413169716  0.6305218024320424  1.0000
  H   H624      1.0  0.7459512704018758  0.007349628469163427  0.6862700989435272  1.0000
  N   N37       1.0  0.3104510234684105  0.37040120610821897  0.6521970017354156  1.0000
  C   C433      1.0  0.3553420213850148  0.36937628755602714  0.633921977427697  1.0000
  C   C434      1.0  0.3020498555008283  0.4027877933963712  0.685350426310698  1.0000
  C   C435      1.0  0.30220273626215893  0.3399230533849927  0.6887686019002943  1.0000
  C   C436      1.0  0.28224325538691436  0.36953339996988066  0.6007368269151245  1.0000
  H   H625      1.0  0.3630052726093878  0.34505956837741947  0.6094329256200621  1.0000
  H   H626      1.0  0.37737121079102465  0.37024854858066897  0.6718913663416255  1.0000
  H   H627      1.0  0.3627613602047549  0.39170056044749074  0.6057058542741924  1.0000
  H   H628      1.0  0.32308049242023545  0.40454240624803606  0.7241734190060697  1.0000
  H   H629      1.0  0.3077324486953092  0.42625824113800603  0.6588850206129024  1.0000
  H   H630      1.0  0.268657967866878  0.40423404131060026  0.7006162357440967  1.0000
  H   H631      1.0  0.2688149827058788  0.3398689447202664  0.7040595683386369  1.0000
  H   H632      1.0  0.32321684114302807  0.33959340500318824  0.7277534508525615  1.0000
  H   H633      1.0  0.30826429725557764  0.31507447293429125  0.6648649192894573  1.0000
  H   H634      1.0  0.28757748090954416  0.34539469676835743  0.5748318155620586  1.0000
  H   H635      1.0  0.2877670568674993  0.3920168626449525  0.5718818703864356  1.0000
  H   H636      1.0  0.24815221740676777  0.3703676567462411  0.6129688053335123  1.0000
  N   N38       1.0  0.04102456640982499  0.9895908231440915  0.9676553509902172  1.0000
  C   C437      1.0  0.08529565194824595  0.0002608474495489066  0.9789473975298177  1.0000
  C   C438      1.0  0.014076911599981479  0.02087233904305741  0.9577554057860235  1.0000
  C   C439      1.0  0.025160355692628755  0.9704576071927352  0.017967031027423808  1.0000
  C   C440      1.0  0.03959159401928858  0.9667903423842237  0.9159083295174074  1.0000
  H   H637      1.0  0.1067304858339877  0.9773951508280374  0.9861548654770919  1.0000
  H   H638      1.0  0.08759199623185454  0.017418239291497217  0.017869931209887557  1.0000
  H   H639      1.0  0.09807783505202972  0.015034189712457069  0.9419902437117835  1.0000
  H   H640      1.0  0.015432379346879577  0.039164187717502186  0.9952472152850145  1.0000
  H   H641      1.0  0.024672870791968338  0.035485187380926986  0.9193405471612469  1.0000
  H   H642      1.0  0.9802287849510813  0.013996152869556688  0.9503425285728409  1.0000
  H   H643      1.0  0.9917154783272016  0.962231876710208  0.011058996736599713  1.0000
  H   H644      1.0  0.02609854804976175  0.9867475803205714  0.057934176825730654  1.0000
  H   H645      1.0  0.044582138013412376  0.9465441079613609  0.026302684332760062  1.0000
  H   H646      1.0  0.0518091271405452  0.9801811900725667  0.8772368528073351  1.0000
  H   H647      1.0  0.006579333913624863  0.9584760750819983  0.9057071571280819  1.0000
  H   H648      1.0  0.059137263917868665  0.9426778047873837  0.9220129810694259  1.0000
  N   N39       1.0  0.7533509049359428  0.8940025872502428  0.7537688327445113  1.0000
  C   C441      1.0  0.7673544268631176  0.8653616059684691  0.7920685465689095  1.0000
  C   C442      1.0  0.7088209312766939  0.8885723543682976  0.7354595621944178  1.0000
  C   C443      1.0  0.7807277337224647  0.8946397996378395  0.7023019129558598  1.0000
  C   C444      1.0  0.7562775333468896  0.9274484045344827  0.7853773549893059  1.0000
  H   H649      1.0  0.8018309401478679  0.866808986795066  0.8028445529766285  1.0000
  H   H650      1.0  0.7619690154016449  0.8394660355116799  0.7716593987937675  1.0000
  H   H651      1.0  0.7495902170395394  0.8657623596485265  0.8332925340239233  1.0000
  H   H652      1.0  0.6873019089174393  0.8873569709934137  0.7731302421552965  1.0000
  H   H653      1.0  0.6968043929268029  0.9099708582643491  0.7072832679505532  1.0000
  H   H654      1.0  0.705365714999415  0.8639189775311504  0.7107238892847344  1.0000
  H   H655      1.0  0.7794049229282257  0.8695583729521832  0.6779579113426073  1.0000
  H   H656      1.0  0.8146258336341891  0.8988098786289656  0.7144001987659431  1.0000
  H   H657      1.0  0.770805420842572  0.9157528651872117  0.6721999721326583  1.0000
  H   H658      1.0  0.7454942254004782  0.9496036229236762  0.7579630739387845  1.0000
  H   H659      1.0  0.7893992839584812  0.9324635333982932  0.8001454128339134  1.0000
  H   H660      1.0  0.7356178334490627  0.9276635083753997  0.8241313295862115  1.0000
  N   N40       1.0  0.2660953661231454  0.6105774941202886  0.8263017479610889  1.0000
  C   C445      1.0  0.26541457691026177  0.6445671772358615  0.8566092423275803  1.0000
  C   C446      1.0  0.2236606315524839  0.6040890374000705  0.8008941987441247  1.0000
  C   C447      1.0  0.2773622582278335  0.5828170145975944  0.8678681720802435  1.0000
  C   C448      1.0  0.29786173559095447  0.6110282741643464  0.7797336294497803  1.0000
  H   H661      1.0  0.29647775284507316  0.6497396503205006  0.878289176556103  1.0000
  H   H662      1.0  0.24036362452054244  0.6456177903810301  0.8901816692421877  1.0000
  H   H663      1.0  0.25925801758322303  0.666342356279724  0.8261148591247887  1.0000
  H   H664      1.0  0.2235315426539984  0.5796519442412686  0.7748741519440019  1.0000
  H   H665      1.0  0.1990755048857058  0.6019213063642641  0.8347696079825716  1.0000
  H   H666      1.0  0.21364540408068403  0.6253575754118834  0.7710958901091385  1.0000
  H   H667      1.0  0.2809023031107374  0.5570632094199537  0.8461984671511249  1.0000
  H   H668      1.0  0.252863074248179  0.5802438600615876  0.9018801224859325  1.0000
  H   H669      1.0  0.3080752182389046  0.5879855197669267  0.8902445809086921  1.0000
  H   H670      1.0  0.29900181291660916  0.5858282612623924  0.7556473072666479  1.0000
  H   H671      1.0  0.330262423692098  0.616083654004001  0.7971774499815761  1.0000
  H   H672      1.0  0.2902839819842761  0.6316992674287253  0.7476630331880847  1.0000
  N   N41       1.0  0.7918267195897642  0.07549816472879134  0.3763049804671848  1.0000
  C   C449      1.0  0.7546081323060356  0.056490086216844704  0.3537407376038513  1.0000
  C   C450      1.0  0.7851585961915577  0.08430607452174677  0.4378890168840618  1.0000
  C   C451      1.0  0.7970600405786522  0.10776931942464629  0.3430002974879589  1.0000
  C   C452      1.0  0.8304604775525795  0.05342553511902137  0.3707018615050235  1.0000
  H   H673      1.0  0.7579672550270244  0.049871202548557036  0.3070551564642499  1.0000
  H   H674      1.0  0.7248973052040597  0.07235318689726333  0.3580942461486587  1.0000
  H   H675      1.0  0.7498074104085967  0.031833974386922925  0.37766475872901323  1.0000
  H   H676      1.0  0.7809255131952132  0.060436441062542645  0.4641436265328969  1.0000
  H   H677      1.0  0.8127076208634253  0.0986125077346256  0.45647033101727535  1.0000
  H   H678      1.0  0.7562487123080441  0.10096670105454231  0.44366954561168775  1.0000
  H   H679      1.0  0.8256724969417566  0.12226477468813846  0.35760342587842603  1.0000
  H   H680      1.0  0.7689261910912469  0.12544126008600487  0.3473807577064572  1.0000
  H   H681      1.0  0.801120136776705  0.10213543371628875  0.296119147666578  1.0000
  H   H682      1.0  0.8275091205871459  0.028739776245424453  0.3951021976493482  1.0000
  H   H683      1.0  0.8589785485265714  0.06705801481268403  0.38796793726214235  1.0000
  H   H684      1.0  0.8366350473235494  0.04650896592934961  0.3247179182077706  1.0000
  N   N42       1.0  0.8635354850908606  0.3844851545523826  0.6316862153188391  1.0000
  C   C453      1.0  0.8531575297370786  0.39164342972813304  0.692851250344142  1.0000
  C   C454      1.0  0.8305132204441702  0.40043784718179026  0.5940314529723096  1.0000
  C   C455      1.0  0.8649920300999707  0.34649741058979006  0.6213066008563355  1.0000
  C   C456      1.0  0.9054407607400494  0.3993012602224748  0.618713575651489  1.0000
  H   H685      1.0  0.8218320739836437  0.38079000550358233  0.7044518095182184  1.0000
  H   H686      1.0  0.8517054211140361  0.4201203328393599  0.7020538238496689  1.0000
  H   H687      1.0  0.8775555939348526  0.3800995680282897  0.7225091768644354  1.0000
  H   H688      1.0  0.8371009536784477  0.39555431123092294  0.5476272905444375  1.0000
  H   H689      1.0  0.7985067965693341  0.38983704613786785  0.6026515857649414  1.0000
  H   H690      1.0  0.8285639957471888  0.4290839931518832  0.6005688866672129  1.0000
  H   H691      1.0  0.8903233172009271  0.33377013815301265  0.6479144224168494  1.0000
  H   H692      1.0  0.8718083208587027  0.34018034445563217  0.575199791842202  1.0000
  H   H693      1.0  0.8342879411829027  0.33444310023954843  0.6323582884915232  1.0000
  H   H694      1.0  0.9150854993751218  0.3936814423515311  0.5734734348032111  1.0000
  H   H695      1.0  0.9308647159651878  0.3882894890680886  0.6473619722272712  1.0000
  H   H696      1.0  0.9052605001311731  0.4280532134068666  0.6247856112871579  1.0000
  N   N43       1.0  0.9573013074255557  0.7761730880102956  0.07457729499314891  1.0000
  C   C457      1.0  0.9672498257996037  0.7460741264818816  0.11197059992008729  1.0000
  C   C458      1.0  0.9539271272227976  0.8080550763898736  0.11046797895584848  1.0000
  C   C459      1.0  0.9165053512236689  0.7704133377100097  0.04394975685366953  1.0000
  C   C460      1.0  0.9915546277921214  0.7802525360096295  0.03210409133811698  1.0000
  H   H697      1.0  0.9699664982638412  0.7215260913635542  0.08632922554991085  1.0000
  H   H698      1.0  0.9421642879094403  0.7424782710797146  0.1448848184068754  1.0000
  H   H699      1.0  0.9978944697462967  0.7495424298637052  0.13575616327170392  1.0000
  H   H700      1.0  0.946097627979221  0.8313457173595035  0.08393935481537085  1.0000
  H   H701      1.0  0.9285132833391888  0.8057825519924899  0.1430872679153592  1.0000
  H   H702      1.0  0.9842180377761995  0.8132426199392182  0.13414074203262571  1.0000
  H   H703      1.0  0.9183090981992936  0.7473101723443966  0.014606276961460996  1.0000
  H   H704      1.0  0.9072618136605519  0.7932041837560083  0.01706780575587219  1.0000
  H   H705      1.0  0.8902131933414345  0.7660703266122433  0.0747732498825886  1.0000
  H   H706      1.0  0.985454813368337  0.8032571357903712  0.004161710987242273  1.0000
  H   H707      1.0  0.9943918573678457  0.7570504874790661  0.0031776969406542843  1.0000
  H   H708      1.0  0.022917807902740554  0.7839345804310838  0.053985859067477104  1.0000
  N   N44       1.0  0.3646850200822136  0.4490930796717003  0.1782301278591456  1.0000
  C   C461      1.0  0.37678593214807843  0.4612904032432183  0.23677564763377634  1.0000
  C   C462      1.0  0.3977986932700627  0.4249092969779719  0.15619513158684084  1.0000
  C   C463      1.0  0.3603058306054866  0.47924412450073967  0.1393163287104351  1.0000
  C   C464      1.0  0.3237397796033434  0.43086472381505303  0.18068437406662796  1.0000
  H   H709      1.0  0.353613566978099  0.4809358319996576  0.25357833980906364  1.0000
  H   H710      1.0  0.40849127801880447  0.47357651071124596  0.23710720063701318  1.0000
  H   H711      1.0  0.37835735119282526  0.4393724094163963  0.2678791457416865  1.0000
  H   H712      1.0  0.389870321343403  0.41549611196391634  0.1118713859014675  1.0000
  H   H713      1.0  0.429414822479526  0.4374672962736816  0.15482067754199202  1.0000
  H   H714      1.0  0.4009810963634394  0.40153851949336716  0.1840721738337847  1.0000
  H   H715      1.0  0.35050217092339375  0.4710064219532579  0.09499345644337187  1.0000
  H   H716      1.0  0.39075841080388113  0.4933882346231182  0.13579703797165998  1.0000
  H   H717      1.0  0.335724734324235  0.49805436956681215  0.15529296153037953  1.0000
  H   H718      1.0  0.29809970127029844  0.4480840030857758  0.19780535084119655  1.0000
  H   H719      1.0  0.32603162618306375  0.4074877301354741  0.20875862954740998  1.0000
  H   H720      1.0  0.313170360664109  0.4219736382325965  0.13711329296831476  1.0000
  N   N45       1.0  0.10898812065603924  0.35331740829424435  0.3589332404881047  1.0000
  C   C465      1.0  0.07591704932225607  0.3338332104206776  0.3270145058822036  1.0000
  C   C466      1.0  0.12874530571158838  0.33067933256018067  0.40329443819068245  1.0000
  C   C467      1.0  0.0895253006196659  0.3841791012469288  0.3873311757285711  1.0000
  C   C468      1.0  0.14193089380042823  0.36453948021896865  0.3183269701854823  1.0000
  H   H721      1.0  0.060190296562129486  0.35011593717710743  0.2932014153373501  1.0000
  H   H722      1.0  0.05054375732515903  0.32487206732023166  0.35631087531705363  1.0000
  H   H723      1.0  0.08954163681264782  0.31031927370244683  0.3051540429626871  1.0000
  H   H724      1.0  0.14432647945116162  0.30730654177427047  0.3834289967104627  1.0000
  H   H725      1.0  0.15352884673858203  0.34484484834820744  0.42842778187841124  1.0000
  H   H726      1.0  0.10480931436681584  0.32153743729870987  0.4345503636422834  1.0000
  H   H727      1.0  0.11349359649186508  0.3990052464542569  0.41291843672259865  1.0000
  H   H728      1.0  0.06420500319603906  0.3766392778760522  0.4178007403461379  1.0000
  H   H729      1.0  0.07500590881543268  0.40230639895169695  0.3552510143304999  1.0000
  H   H730      1.0  0.12833090037410444  0.3816774714112937  0.2840902025472727  1.0000
  H   H731      1.0  0.15773962932419816  0.34181783492635  0.296795219798192  1.0000
  H   H732      1.0  0.16721918764202903  0.3794515353555261  0.34106985833762393  1.0000
  N   N46       1.0  0.5197006468760667  0.894245056782661  0.8507894084922395  1.0000
  C   C469      1.0  0.507039979163182  0.9312794686474324  0.8460521611038124  1.0000
  C   C470      1.0  0.5517053982144368  0.8902457959421433  0.8975157371239482  1.0000
  C   C471      1.0  0.5382493563266235  0.8820132293339056  0.7957111849192008  1.0000
  C   C472      1.0  0.481847686443724  0.8735873756427663  0.8639677124901392  1.0000
  H   H733      1.0  0.48512552204022835  0.935736954109559  0.8086114942109378  1.0000
  H   H734      1.0  0.5352186175600248  0.9477881356080966  0.8402673512933543  1.0000
  H   H735      1.0  0.4905259897707355  0.9407645268912993  0.8855809177423443  1.0000
  H   H736      1.0  0.5604836021244529  0.8623500741319035  0.9041406949359936  1.0000
  H   H737      1.0  0.5813484079483316  0.90442864632646  0.8877222231850164  1.0000
  H   H738      1.0  0.5393041330211397  0.9006008738447134  0.9391179131620234  1.0000
  H   H739      1.0  0.546617105951548  0.8537764393818207  0.7972066418972815  1.0000
  H   H740      1.0  0.5676319377612601  0.8963226697849608  0.7853500719420657  1.0000
  H   H741      1.0  0.5155246250165653  0.8856262040598657  0.7590378336182454  1.0000
  H   H742      1.0  0.49002314512228456  0.8454129766848919  0.8684549695674414  1.0000
  H   H743      1.0  0.45722514892078453  0.8759596529944974  0.8293683527728939  1.0000
  H   H744      1.0  0.4669140082413146  0.8822210659711472  0.9050245973638499  1.0000
  N   N47       1.0  0.5437953926928589  0.18072228911163365  0.36838835708591045  1.0000
  C   C473      1.0  0.5877153379782325  0.18798225354028653  0.3508194370749006  1.0000
  C   C474      1.0  0.5135653040246505  0.19769741819561434  0.32784226716699855  1.0000
  C   C475      1.0  0.5368245539906418  0.19472910116093609  0.4271800032749844  1.0000
  C   C476      1.0  0.53731835681479  0.14271230536653012  0.36756218429454696  1.0000
  H   H745      1.0  0.5941694948748161  0.17742577606055107  0.3067318528037425  1.0000
  H   H746      1.0  0.6113812688175181  0.17553299385498147  0.3804250210570188  1.0000
  H   H747      1.0  0.5936643094530666  0.21646843044507497  0.35065578940073006  1.0000
  H   H748      1.0  0.5180076439070723  0.22641444412721018  0.32708282520451465  1.0000
  H   H749      1.0  0.5178742402172615  0.18771404498962097  0.2829774217690864  1.0000
  H   H750      1.0  0.48007949170877895  0.1930159577187694  0.34002711427338006  1.0000
  H   H751      1.0  0.5040251233698404  0.18990638228707785  0.44232755028936016  1.0000
  H   H752      1.0  0.5415278009552886  0.22342893926181345  0.4286695372527999  1.0000
  H   H753      1.0  0.559244719556907  0.18292814356828518  0.45921441835068394  1.0000
  H   H754      1.0  0.5045048855954961  0.13607572338327675  0.38050046060371034  1.0000
  H   H755      1.0  0.5597571651859888  0.12920143338000376  0.39766269902266077  1.0000
  H   H756      1.0  0.5428796663026788  0.1315673560221085  0.3235324877883365  1.0000
  N   N48       1.0  0.08431550879868421  0.3797938932253326  0.7649450751945991  1.0000
  C   C477      1.0  0.05585876625300701  0.4106076356739095  0.7603166509765829  1.0000
  C   C478      1.0  0.12882484322017151  0.391172970146863  0.7709164737204011  1.0000
  C   C479      1.0  0.0796473341994115  0.35804118123574563  0.7123403925376585  1.0000
  C   C480      1.0  0.07285954083879131  0.35933356283678664  0.8161443629994819  1.0000
  H   H757      1.0  0.022251529598165343  0.40294338830617604  0.7532093795289415  1.0000
  H   H758      1.0  0.06464503407570987  0.4274220019319345  0.7235113232986711  1.0000
  H   H759      1.0  0.05733894179131194  0.4270633850948424  0.8001181918277877  1.0000
  H   H760      1.0  0.13756674038836847  0.409299331449004  0.7359156008053221  1.0000
  H   H761      1.0  0.1342781436680096  0.4048263177065866  0.8128504300913212  1.0000
  H   H762      1.0  0.15142338710895475  0.3686402423141448  0.7699098437611329  1.0000
  H   H763      1.0  0.1005074804881696  0.3344227900875169  0.714421239755294  1.0000
  H   H764      1.0  0.08792980280187912  0.37274320419552  0.6728946349417808  1.0000
  H   H765      1.0  0.046313731881550524  0.3490788533395077  0.706685083956336  1.0000
  H   H766      1.0  0.09452332505497818  0.3363814843652539  0.8217559337967617  1.0000
  H   H767      1.0  0.03972818904282782  0.34973359183411423  0.8126731810173959  1.0000
  H   H768      1.0  0.0753229619065865  0.3751731881073464  0.8565919625711095  1.0000
