data_image0
_chemical_formula_structural       SCHFeHS3HCNC2H7FeCH10CHSNHC3H5SCH2CH2NSHC2H2SHC4FeSC2HSFeHC3H4CHSFeS2CSH3FeHCFeCHCH6CNH3FeCSHFeCSCFeH2CHCH3SCH2CHSCH2CHFeS2FeS2FeSFeS3CH2CH2FeSFeH5FeCSH2CHC2HSCNH2CSHCH2C2HCHFeCH4NCH8C7H4C6H4CH2FeC2H3C6H6NC3H9CSCH4CH2CSHFeH3CNCHSNHC2H3NH5S2CH3SCS3H2C3H2CH3CHCHC3H2FeC2HCS2HC2SCH5NSFeH3CH2SH3CHFeH2CSCHCH2CHCHCH2CSCH3CH5NC2NCS2CFeS2FeS2FeSCHSHFeS2FeS2FeHFeS3HCH2SH5C2SCH2CFeC6HNH4C2H2C5HC6H4C6H4C6H5CNHS2H5C3HCH2CH2CH12SHNC2H4NC3H2SH2C2HCNH2FeH6SHFeHSFeHCFeCH2C2H4CSHFeCSCH7CH6CH7FeH2C2HSHCHSFeSHSCFeS2FeSCFeSFeS3FeCSCFeS2FeS2FeHFeHS2FeCHNH2C6H4C6H7Fe2SH3SHC4SHCHC7H4CH4C2HCH7SH2CHNC2H2NH6CH3NH2CH3S2H3CH4CHSH2SHSCHFeSH2FeS2HS3FeS2FeS2FeSFeS5FeS2HC6H4C6H4C6H5CFeHC6H4CFeHCH3CH6C3HC2H3FeH2C2HCSCH2CH2SH2CHC2HC3H7SHS2HFe2HCH7CHC4H3C2H3SHCHCNHC3HFeCNC4H11Fe2SNSFeC3HCFeNFeH4S2HCH3SHSHNCHCFeH4C4HCH2CHNH3NCH5SC2HSFeS2FeS2HFeS3CH2FeHSHC2HC2H11CFeS2FeS2FeSFeS3HC3HFeH2CH3CNC2SC2H3SHC6H5NSHCFeH3CHCH2SH7SHC6H4C6H4C4H3C6H4NC4H12CHCNCH3C3HCNH3CHSH2CH2CSC4H2FeHSH3CHSHCFeSH2S2H8CHCH2CH2CH2SH3C3SH3C3H3CHCH5C2SCH2NH4CHNHCSCHC2FeS2FeS2Fe2S3FeS2FeS2FeHFeS5CFeS2FeSFeS3FeSFeS2FeSFeHS2HCHSFeSH2S2HCSHCH2NCH2CHFeHC6H4C7H4C6H2CH2C6H4C6H4C6H6CNC2HSFeH3CH3NHCH6NHCSHCNC4HCSH11C2H4N2C4H12CHSNC3H10C4HSCH2C2NHCHCH2SFeC3H5CHC2SHCH2CHFeHCHCHCH2SHCHCH2FeHNCHSCH5CH2FeH2SHCH6CH6CH2CHFeHCH3CH2C2HFeSCFe2S3FeH3SFeSC3HNSHCHCSHC3H2SCSNS2H2SH2CH2FeH2FeC2S2H4SH3SHSCHNH2CHC5H6NC4HCH4C3HFeCH3C3H3CHC5H3SC2H3C6H3C3H2SHCSFeCNS2HCS2HFeHCSH4CHFeSNCSCSCH2SHCH5CNHCH2FeCH3CH2SCHCHNC4FeH10FeC2HFeCHCFeCFeHSH2CSH2CH2Fe2HNFeH2C2S2H2CHC2H2SCSHCH4CHSHC2HCH2CNCHC2SCSC2FeCHS2FeH3C2HSH2CH2CH2CHCHC2H3CSH5SHCH2CH4CH3SH2CH3CNH3CHFeCHNH2CFeS2FeSFeS2FeS2FeNFeS3H2C4H2C6H4C4SFeH5CHSH2FeHSHC3H5SH2CH2C2NHCH4SCFeCHC2H2SHFeH2C3H4SHCH2C3H2NH2SH3CH2NCH4CSHCH2C2H2C3H2CHCSH3C2H3C2H2C3HCH4CH2CHCH2C2HCH5CHCH2CHCHSCH3FeCSH4CH5CNCH7SCHCH2NCFeS2FeS2FeHFeS3FeS2FeS2FeSFeS3CH2S2HSCH2C2H2SCH3NH3CH3SH3SC7H4C3SC2HCH2C3HCH2NCHFeCHCHC6H4C2HCH3CHFeH4SHCHC2SH3NSHSHC2H5C2SH3SHC2HCH2C2H3NC4H7NCH3NC4H12CHC2NC4H9FeHFeHSC2SHCHNHC2HCH6CHCHFeCHSH3CNHCHSFeH4C2HSCHCFe3C2H2SHFeSHFeS2FeS2FeSFeS3FeS4FeS2FeSFeS2HCSFeS2FeSHFeSFeS3FeHC4H4SC7H4C4H2C6H4C6H4C2HC6H4CHC6H3CH3CSH3CH4C5HCH2CHN2C4H12NC2HCH4C2H2CH2CNC3H3C2SH4CHCH3CFeHSHFeHNCSC2FeCHCFeSH5C2HSFeC2HFeSHCHC2H3C2HCFeH2SHNCHC2H4CH3S3HNC2HC2HCFeSHC2HC2HNH2NH2NH3NHCNCHC3FeH2C3H2CFeH5C2HC2HCSH2FeHFeHC2SH3CH2SH2CH2CHFeCH6C2H2SCHCSHNH4CH3SHSCHCH4SHSHS2HCH3FeHSCHC3H2CH10CSHSCH3CSH16CHC2H2NHCHCH3CHCH5CH2NH2C2HSCH2SHSNHCFeCSFeS2FeCFeCS2H4C7H7C3HSHC3HSHFeH2CH3FeS2FeS2FeSFeS3FeS2FeS2FeSFeS3C3FeHSCFeHCSFeS2FeS2FeCFeS3H2SH4FeHCH2CH2N2SH5C6SH3CH4C6H4C6H4C6H4C6H4C6H2FeHC6H6NC4H8NC3H9CHC4H2NH3CH2CH7SHNCH2CSN2C4H18FeCH3CH5SCH2S2HCHCFeSHSFeS2FeS2FeS2FeS2FeSFeS2FeS2FeS2FeSFeS3CHNH4CH2C6H4C6H5C6H3C6H4C2SH2CH3C3HC2HC2HCNHCH6CH2CH5NC4H5CHNH4C2HC2H6CH2CH3SCH4CHCHCHFeH2SHC2HC2NC4H10CHSH6SCFe2HNH3SCHCHC2HSHCHCHCHCH4C2H2CNHCH3CNHCH2CH4CH9C2HCHNH7S2FeS2FeS2FeSFeS3CHCFeHSCH4FeSFeS2FeSFeS3CHC2H3C2HC3H3SHNHFeC2SC6H4C6H5C6H4CH4NC4H12SH2SH3SH4C3H2NC4H13CHCH4SHFeHCH2CHNC4H14SH3CH2NC4SCHCH3CNSCH2NHCH2CH2CHCH2C2HC3NH3CH7CH2S2CHFeS2FeSFeS3FeS2FeS2FeSFeHS2FeS2FeS2FeSFeS3FeCFeCSC8H2SHC2HC2H4C7H4C5HC6H3CHC3H2C6H6C6H4CSHSH3SHNC4H12C2FeHCH7CHS2HCNC4H12CH4CFeC2H7SH2CNH3FeNHCFeHCSH2SHFeCH4SHSH4C2H3CNH2CHC2H2CH3NH4CHC2NCH3NH3SFeSCFeS2FeSFeS3FeS2H2S2HC6H4C3HCH3C3FeHC2H3CNHC4S2HCH3C3H4CHCH2NH2NC4H12C3HFe2HCHCSH3C2HCH4CH2C2HC3H3CH2C2H9CH2CH3NHSHSH2NCH2CHC2H8CH6NHCH
_chemical_formula_sum              "S512 C1280 H2048 Fe256 N128"
_cell_length_a       69.512
_cell_length_b       88.9924
_cell_length_c       52.7954
_cell_angle_alpha    74.7703
_cell_angle_beta     75.6627
_cell_angle_gamma    75.995

_space_group_name_H-M_alt    "P 1"
_space_group_IT_number       1

loop_
  _space_group_symop_operation_xyz
  'x, y, z'

loop_
  _atom_site_type_symbol
  _atom_site_label
  _atom_site_symmetry_multiplicity
  _atom_site_fract_x
  _atom_site_fract_y
  _atom_site_fract_z
  _atom_site_occupancy
  S   S1        1.0  0.27991  0.99865  0.14342  1.0000
  C   C1        1.0  0.32670  0.01033  0.22910  1.0000
  H   H1        1.0  0.28612  0.98911  0.02905  1.0000
  Fe  Fe1       1.0  0.30260  0.00816  0.15617  1.0000
  H   H2        1.0  0.30194  0.05789  0.18768  1.0000
  S   S2        1.0  0.29760  0.03130  0.16945  1.0000
  S   S3        1.0  0.32773  0.00290  0.12197  1.0000
  S   S4        1.0  0.30262  0.99516  0.06907  1.0000
  H   H3        1.0  0.30151  0.22360  0.37175  1.0000
  C   C2        1.0  0.31922  0.03794  0.17089  1.0000
  N   N1        1.0  0.33149  0.22144  0.37825  1.0000
  C   C3        1.0  0.31695  0.05138  0.18137  1.0000
  C   C4        1.0  0.31434  0.23008  0.36504  1.0000
  H   H4        1.0  0.32016  0.23157  0.41315  1.0000
  H   H5        1.0  0.31992  0.00768  0.21410  1.0000
  H   H6        1.0  0.32633  0.19823  0.38002  1.0000
  H   H7        1.0  0.31233  0.21326  0.41577  1.0000
  H   H8        1.0  0.31852  0.09739  0.12535  1.0000
  H   H9        1.0  0.31887  0.23154  0.34284  1.0000
  H   H10       1.0  0.31441  0.01220  0.24665  1.0000
  Fe  Fe2       1.0  0.30620  0.99142  0.11154  1.0000
  C   C5        1.0  0.32508  0.21981  0.40757  1.0000
  H   H11       1.0  0.32215  0.07496  0.10424  1.0000
  H   H12       1.0  0.33203  0.06610  0.19374  1.0000
  H   H13       1.0  0.33115  0.10065  0.07609  1.0000
  H   H14       1.0  0.33188  0.02181  0.22012  1.0000
  H   H15       1.0  0.25175  0.17082  0.72829  1.0000
  H   H16       1.0  0.28483  0.17528  0.78844  1.0000
  H   H17       1.0  0.29561  0.15776  0.77554  1.0000
  H   H18       1.0  0.30620  0.22801  0.63821  1.0000
  H   H19       1.0  0.26496  0.13161  0.82794  1.0000
  H   H20       1.0  0.23924  0.11616  0.74567  1.0000
  C   C6        1.0  0.26998  0.13960  0.80854  1.0000
  H   H21       1.0  0.27001  0.16775  0.77312  1.0000
  S   S5        1.0  0.33086  0.22338  0.55229  1.0000
  N   N2        1.0  0.26615  0.14906  0.64930  1.0000
  H   H22       1.0  0.25743  0.17426  0.82973  1.0000
  C   C7        1.0  0.26368  0.14594  0.74057  1.0000
  C   C8        1.0  0.24899  0.15897  0.73191  1.0000
  C   C9        1.0  0.24217  0.12807  0.74139  1.0000
  H   H23       1.0  0.28361  0.14366  0.84991  1.0000
  H   H24       1.0  0.27761  0.14780  0.74378  1.0000
  H   H25       1.0  0.27653  0.16507  0.61276  1.0000
  H   H26       1.0  0.21382  0.13912  0.72886  1.0000
  H   H27       1.0  0.29324  0.16133  0.83169  1.0000
  S   S6        1.0  0.21231  0.17262  0.71647  1.0000
  C   C10       1.0  0.22774  0.14107  0.73204  1.0000
  H   H28       1.0  0.23533  0.15380  0.67043  1.0000
  H   H29       1.0  0.24330  0.16717  0.81273  1.0000
  C   C11       1.0  0.30209  0.22509  0.77278  1.0000
  H   H30       1.0  0.32845  0.21535  0.64831  1.0000
  H   H31       1.0  0.25060  0.13125  0.64779  1.0000
  N   N3        1.0  0.27386  0.15437  0.81246  1.0000
  S   S7        1.0  0.19586  0.21925  0.70516  1.0000
  H   H32       1.0  0.24826  0.15610  0.84500  1.0000
  C   C12       1.0  0.28913  0.15045  0.82952  1.0000
  C   C13       1.0  0.28142  0.16418  0.78619  1.0000
  H   H33       1.0  0.25798  0.14210  0.79660  1.0000
  H   H34       1.0  0.30338  0.14312  0.82086  1.0000
  S   S8        1.0  0.28948  0.19577  0.59074  1.0000
  H   H35       1.0  0.25491  0.19342  0.63303  1.0000
  C   C14       1.0  0.25879  0.20485  0.63037  1.0000
  C   C15       1.0  0.24734  0.16020  0.65721  1.0000
  C   C16       1.0  0.30024  0.21136  0.79271  1.0000
  C   C17       1.0  0.28257  0.20514  0.79924  1.0000
  Fe  Fe3       1.0  0.21178  0.19589  0.72633  1.0000
  S   S9        1.0  0.27696  0.11440  0.76055  1.0000
  C   C18       1.0  0.25488  0.16332  0.82561  1.0000
  C   C19       1.0  0.23089  0.15658  0.72781  1.0000
  H   H36       1.0  0.28377  0.13281  0.79768  1.0000
  S   S10       1.0  0.30082  0.08863  0.70394  1.0000
  Fe  Fe4       1.0  0.32210  0.10318  0.67408  1.0000
  H   H37       1.0  0.25610  0.14517  0.61656  1.0000
  C   C20       1.0  0.26015  0.13048  0.74569  1.0000
  C   C21       1.0  0.27992  0.22416  0.60683  1.0000
  C   C22       1.0  0.26701  0.21218  0.78501  1.0000
  H   H38       1.0  0.28117  0.19466  0.81501  1.0000
  H   H39       1.0  0.26256  0.13258  0.68729  1.0000
  H   H40       1.0  0.31233  0.20553  0.80333  1.0000
  H   H41       1.0  0.28682  0.20623  0.70657  1.0000
  C   C23       1.0  0.27516  0.20923  0.61049  1.0000
  H   H42       1.0  0.29240  0.22769  0.59131  1.0000
  S   S11       1.0  0.32172  0.11908  0.70082  1.0000
  Fe  Fe5       1.0  0.32097  0.20013  0.57199  1.0000
  S   S12       1.0  0.19928  0.20132  0.76716  1.0000
  S   S13       1.0  0.24099  0.20386  0.72058  1.0000
  C   C24       1.0  0.28155  0.15805  0.63160  1.0000
  S   S14       1.0  0.24598  0.20315  0.79205  1.0000
  H   H43       1.0  0.28478  0.16655  0.64142  1.0000
  H   H44       1.0  0.23504  0.21156  0.66252  1.0000
  H   H45       1.0  0.29608  0.15000  0.62579  1.0000
  Fe  Fe6       1.0  0.30260  0.10339  0.73160  1.0000
  H   H46       1.0  0.27591  0.12989  0.62856  1.0000
  C   C25       1.0  0.27379  0.13953  0.67350  1.0000
  Fe  Fe7       1.0  0.22765  0.21084  0.75988  1.0000
  C   C26       1.0  0.24751  0.21516  0.64702  1.0000
  H   H47       1.0  0.31876  0.22988  0.85797  1.0000
  C   C27       1.0  0.26196  0.13839  0.63492  1.0000
  H   H48       1.0  0.24125  0.16776  0.63946  1.0000
  H   H49       1.0  0.28784  0.13089  0.66834  1.0000
  H   H50       1.0  0.32006  0.13873  0.58418  1.0000
  H   H51       1.0  0.31191  0.21606  0.72034  1.0000
  H   H52       1.0  0.24987  0.16824  0.66857  1.0000
  H   H53       1.0  0.27730  0.14714  0.68474  1.0000
  C   C28       1.0  0.26870  0.22602  0.76514  1.0000
  N   N4        1.0  0.30529  0.22256  0.68068  1.0000
  H   H54       1.0  0.30631  0.19810  0.68158  1.0000
  H   H55       1.0  0.28407  0.21143  0.67224  1.0000
  H   H56       1.0  0.32209  0.13471  0.78250  1.0000
  Fe  Fe8       1.0  0.32939  0.07306  0.71585  1.0000
  C   C29       1.0  0.29520  0.20895  0.68551  1.0000
  S   S15       1.0  0.31713  0.11481  0.63260  1.0000
  H   H57       1.0  0.03355  0.23200  0.68255  1.0000
  Fe  Fe9       1.0  0.22431  0.22756  0.70278  1.0000
  C   C30       1.0  0.31963  0.21893  0.69899  1.0000
  S   S16       1.0  0.32886  0.08637  0.74675  1.0000
  C   C31       1.0  0.03738  0.23136  0.70212  1.0000
  Fe  Fe10      1.0  0.18638  0.22566  0.74548  1.0000
  H   H58       1.0  0.32521  0.22484  0.82568  1.0000
  H   H59       1.0  0.14453  0.22919  0.72379  1.0000
  C   C32       1.0  0.31636  0.22563  0.65265  1.0000
  H   H60       1.0  0.03732  0.21904  0.71409  1.0000
  C   C33       1.0  0.25223  0.23009  0.64335  1.0000
  H   H61       1.0  0.25654  0.23164  0.75441  1.0000
  H   H62       1.0  0.02887  0.22986  0.75500  1.0000
  H   H63       1.0  0.32700  0.22916  0.69660  1.0000
  S   S17       1.0  0.32488  0.23209  0.76346  1.0000
  C   C34       1.0  0.28610  0.23267  0.75944  1.0000
  H   H64       1.0  0.05315  0.23349  0.69799  1.0000
  H   H65       1.0  0.32366  0.23614  0.64795  1.0000
  C   C35       1.0  0.26825  0.23469  0.62299  1.0000
  H   H66       1.0  0.28040  0.23458  0.70591  1.0000
  S   S18       1.0  0.21409  0.23557  0.74153  1.0000
  C   C36       1.0  0.28991  0.23676  0.68550  1.0000
  H   H67       1.0  0.00120  0.22785  0.73389  1.0000
  H   H68       1.0  0.11351  0.23795  0.70412  1.0000
  C   C37       1.0  0.33163  0.22640  0.84200  1.0000
  H   H69       1.0  0.33190  0.20865  0.69523  1.0000
  Fe  Fe11      1.0  0.10661  0.40784  0.27110  1.0000
  S   S19       1.0  0.11361  0.38382  0.29783  1.0000
  S   S20       1.0  0.09198  0.41505  0.23503  1.0000
  Fe  Fe12      1.0  0.12370  0.42414  0.30159  1.0000
  S   S21       1.0  0.13285  0.40177  0.33060  1.0000
  S   S22       1.0  0.12724  0.44693  0.30862  1.0000
  Fe  Fe13      1.0  0.14317  0.39071  0.29494  1.0000
  S   S23       1.0  0.17311  0.37421  0.29106  1.0000
  Fe  Fe14      1.0  0.10264  0.39677  0.33168  1.0000
  S   S24       1.0  0.08411  0.38659  0.37131  1.0000
  S   S25       1.0  0.13725  0.41367  0.26543  1.0000
  S   S26       1.0  0.09252  0.42013  0.30528  1.0000
  C   C38       1.0  0.04668  0.42654  0.45566  1.0000
  H   H70       1.0  0.18168  0.42306  0.13686  1.0000
  H   H71       1.0  0.16913  0.40424  0.20843  1.0000
  C   C39       1.0  0.06946  0.45572  0.24844  1.0000
  H   H72       1.0  0.16817  0.43971  0.15146  1.0000
  H   H73       1.0  0.16766  0.36490  0.15371  1.0000
  Fe  Fe15      1.0  0.12345  0.38380  0.10542  1.0000
  S   S27       1.0  0.12284  0.37202  0.14904  1.0000
  Fe  Fe16      1.0  0.27883  0.36846  0.13881  1.0000
  H   H74       1.0  0.07059  0.43485  0.40811  1.0000
  H   H75       1.0  0.13290  0.37983  0.38522  1.0000
  H   H76       1.0  0.14509  0.47010  0.10900  1.0000
  H   H77       1.0  0.33004  0.36405  0.11079  1.0000
  H   H78       1.0  0.23184  0.41521  0.05422  1.0000
  Fe  Fe17      1.0  0.23289  0.37790  0.14826  1.0000
  C   C40       1.0  0.16226  0.33695  0.14927  1.0000
  S   S28       1.0  0.20223  0.37224  0.16879  1.0000
  H   H79       1.0  0.15289  0.32998  0.00873  1.0000
  H   H80       1.0  0.13436  0.34908  0.34850  1.0000
  C   C41       1.0  0.14997  0.46983  0.28618  1.0000
  H   H81       1.0  0.01486  0.44289  0.41195  1.0000
  C   C42       1.0  0.23073  0.44237  0.19968  1.0000
  C   C43       1.0  0.20775  0.45514  0.11009  1.0000
  H   H82       1.0  0.20929  0.42630  0.00710  1.0000
  S   S29       1.0  0.23327  0.39958  0.11509  1.0000
  C   C44       1.0  0.21403  0.46956  0.09708  1.0000
  N   N5        1.0  0.08691  0.46367  0.23569  1.0000
  H   H83       1.0  0.10067  0.44688  0.21072  1.0000
  H   H84       1.0  0.15422  0.34028  0.16865  1.0000
  C   C45       1.0  0.14163  0.45571  0.08430  1.0000
  S   S30       1.0  0.28329  0.38958  0.10508  1.0000
  H   H85       1.0  0.03560  0.42881  0.47409  1.0000
  C   C46       1.0  0.09236  0.47017  0.25546  1.0000
  H   H86       1.0  0.24995  0.37671  0.00483  1.0000
  H   H87       1.0  0.18492  0.42326  0.02710  1.0000
  C   C47       1.0  0.20120  0.42187  0.02774  1.0000
  C   C48       1.0  0.08164  0.47664  0.21303  1.0000
  H   H88       1.0  0.01525  0.40538  0.47912  1.0000
  C   C49       1.0  0.10428  0.45202  0.22570  1.0000
  H   H89       1.0  0.16434  0.36616  0.12069  1.0000
  Fe  Fe18      1.0  0.25781  0.38414  0.09206  1.0000
  C   C50       1.0  0.24793  0.45766  0.10494  1.0000
  H   H90       1.0  0.11399  0.35475  0.37500  1.0000
  H   H91       1.0  0.14774  0.47163  0.30628  1.0000
  H   H92       1.0  0.26341  0.45877  0.10311  1.0000
  H   H93       1.0  0.24810  0.47624  0.16643  1.0000
  N   N6        1.0  0.22934  0.45973  0.19087  1.0000
  C   C51       1.0  0.24173  0.44330  0.11819  1.0000
  H   H94       1.0  0.17783  0.42264  0.19445  1.0000
  H   H95       1.0  0.10083  0.44039  0.14397  1.0000
  H   H96       1.0  0.16577  0.32379  0.15274  1.0000
  H   H97       1.0  0.06537  0.45039  0.23406  1.0000
  H   H98       1.0  0.13684  0.37329  0.00539  1.0000
  H   H99       1.0  0.18892  0.40583  0.17927  1.0000
  H   H100      1.0  0.02805  0.45689  0.45074  1.0000
  H   H101      1.0  0.22030  0.38099  0.08499  1.0000
  C   C52       1.0  0.16665  0.42847  0.14726  1.0000
  C   C53       1.0  0.08713  0.39197  0.39970  1.0000
  C   C54       1.0  0.09876  0.40327  0.39730  1.0000
  C   C55       1.0  0.10164  0.40686  0.42033  1.0000
  C   C56       1.0  0.09251  0.39946  0.44586  1.0000
  C   C57       1.0  0.08079  0.38823  0.44824  1.0000
  C   C58       1.0  0.07809  0.38452  0.42523  1.0000
  H   H102      1.0  0.10549  0.40934  0.37776  1.0000
  H   H103      1.0  0.11073  0.41557  0.41833  1.0000
  H   H104      1.0  0.23628  0.46231  0.22689  1.0000
  H   H105      1.0  0.06913  0.37571  0.42725  1.0000
  C   C59       1.0  0.10054  0.40292  0.21140  1.0000
  C   C60       1.0  0.09622  0.40882  0.18564  1.0000
  C   C61       1.0  0.10324  0.39954  0.16620  1.0000
  C   C62       1.0  0.11411  0.38410  0.17273  1.0000
  C   C63       1.0  0.11830  0.37814  0.19857  1.0000
  C   C64       1.0  0.11182  0.38761  0.21775  1.0000
  H   H106      1.0  0.08740  0.42061  0.18071  1.0000
  H   H107      1.0  0.09987  0.40422  0.14636  1.0000
  H   H108      1.0  0.12669  0.36620  0.20375  1.0000
  H   H109      1.0  0.11520  0.38295  0.23757  1.0000
  C   C65       1.0  0.14181  0.45808  0.28169  1.0000
  H   H110      1.0  0.21671  0.46171  0.15661  1.0000
  H   H111      1.0  0.21975  0.36887  0.99868  1.0000
  Fe  Fe19      1.0  0.10838  0.38934  0.05309  1.0000
  C   C66       1.0  0.15508  0.46564  0.23408  1.0000
  C   C67       1.0  0.14470  0.45579  0.25570  1.0000
  H   H112      1.0  0.21634  0.43931  0.21271  1.0000
  H   H113      1.0  0.06161  0.42809  0.45770  1.0000
  H   H114      1.0  0.13855  0.44669  0.25222  1.0000
  C   C68       1.0  0.18162  0.37264  0.25757  1.0000
  C   C69       1.0  0.16804  0.37167  0.24270  1.0000
  C   C70       1.0  0.17483  0.37069  0.21578  1.0000
  C   C71       1.0  0.19495  0.37148  0.20330  1.0000
  C   C72       1.0  0.20854  0.37237  0.21818  1.0000
  C   C73       1.0  0.20194  0.37271  0.24543  1.0000
  H   H115      1.0  0.15236  0.37146  0.25207  1.0000
  H   H116      1.0  0.16437  0.36959  0.20454  1.0000
  H   H117      1.0  0.22414  0.37272  0.20883  1.0000
  H   H118      1.0  0.21247  0.37341  0.25693  1.0000
  H   H119      1.0  0.07414  0.38214  0.46781  1.0000
  H   H120      1.0  0.05104  0.44139  0.38870  1.0000
  N   N7        1.0  0.14360  0.35603  0.37914  1.0000
  C   C74       1.0  0.16283  0.35968  0.36162  1.0000
  C   C75       1.0  0.13557  0.36741  0.39695  1.0000
  C   C76       1.0  0.14716  0.33974  0.39547  1.0000
  H   H121      1.0  0.16904  0.35168  0.34725  1.0000
  H   H122      1.0  0.17453  0.35858  0.37337  1.0000
  H   H123      1.0  0.12084  0.36524  0.41010  1.0000
  H   H124      1.0  0.14621  0.36673  0.41005  1.0000
  H   H125      1.0  0.13290  0.33664  0.40886  1.0000
  H   H126      1.0  0.15825  0.33835  0.40834  1.0000
  H   H127      1.0  0.15322  0.33088  0.38259  1.0000
  H   H128      1.0  0.20731  0.40894  0.03335  1.0000
  H   H129      1.0  0.12562  0.36947  0.35015  1.0000
  C   C77       1.0  0.12878  0.35731  0.36251  1.0000
  S   S31       1.0  0.09570  0.40474  0.47428  1.0000
  C   C78       1.0  0.02022  0.43500  0.42999  1.0000
  H   H130      1.0  0.19659  0.45438  0.05288  1.0000
  H   H131      1.0  0.07761  0.47208  0.19767  1.0000
  H   H132      1.0  0.14374  0.35450  0.02695  1.0000
  H   H133      1.0  0.19926  0.32452  0.16081  1.0000
  C   C79       1.0  0.14013  0.42546  0.18660  1.0000
  H   H134      1.0  0.05403  0.45586  0.43389  1.0000
  H   H135      1.0  0.15132  0.34145  0.13547  1.0000
  C   C80       1.0  0.19573  0.44757  0.03834  1.0000
  S   S32       1.0  0.25512  0.36194  0.12359  1.0000
  H   H136      1.0  0.14394  0.40698  0.15220  1.0000
  Fe  Fe20      1.0  0.25826  0.40337  0.13093  1.0000
  H   H137      1.0  0.16075  0.37200  0.34934  1.0000
  H   H138      1.0  0.18979  0.37403  0.07816  1.0000
  H   H139      1.0  0.18863  0.36693  0.12598  1.0000
  C   C81       1.0  0.17446  0.41234  0.18928  1.0000
  N   N8        1.0  0.20371  0.43044  0.04687  1.0000
  C   C82       1.0  0.23422  0.47066  0.09411  1.0000
  H   H140      1.0  0.16952  0.39710  0.15412  1.0000
  S   S33       1.0  0.15120  0.39380  0.08413  1.0000
  N   N9        1.0  0.15919  0.41745  0.17206  1.0000
  H   H141      1.0  0.20893  0.34265  0.14935  1.0000
  C   C83       1.0  0.17515  0.36124  0.13445  1.0000
  C   C84       1.0  0.15549  0.40352  0.16508  1.0000
  H   H142      1.0  0.15611  0.43167  0.13309  1.0000
  H   H143      1.0  0.21132  0.47960  0.16865  1.0000
  H   H144      1.0  0.13448  0.41759  0.20583  1.0000
  N   N10       1.0  0.18075  0.34382  0.13828  1.0000
  H   H145      1.0  0.14978  0.39501  0.18331  1.0000
  H   H146      1.0  0.11012  0.42918  0.10333  1.0000
  H   H147      1.0  0.14206  0.43645  0.19116  1.0000
  H   H148      1.0  0.00865  0.43764  0.44790  1.0000
  H   H149      1.0  0.13036  0.33546  0.99494  1.0000
  S   S34       1.0  0.25823  0.38536  0.04903  1.0000
  S   S35       1.0  0.10202  0.40375  0.08479  1.0000
  C   C85       1.0  0.11240  0.44454  0.12749  1.0000
  H   H150      1.0  0.24305  0.43682  0.21112  1.0000
  H   H151      1.0  0.02059  0.42255  0.42914  1.0000
  H   H152      1.0  0.32579  0.31722  0.15786  1.0000
  S   S36       1.0  0.18118  0.36603  0.03330  1.0000
  C   C86       1.0  0.19482  0.33766  0.15714  1.0000
  S   S37       1.0  0.25609  0.38285  0.16624  1.0000
  S   S38       1.0  0.25875  0.42796  0.13434  1.0000
  S   S39       1.0  0.12711  0.36851  0.07620  1.0000
  H   H153      1.0  0.12797  0.42887  0.17473  1.0000
  H   H154      1.0  0.20978  0.46433  0.22766  1.0000
  C   C87       1.0  0.22014  0.37852  0.06608  1.0000
  C   C88       1.0  0.11764  0.43821  0.10445  1.0000
  C   C89       1.0  0.22164  0.44195  0.12047  1.0000
  H   H155      1.0  0.21668  0.43099  0.13118  1.0000
  H   H156      1.0  0.19797  0.41138  0.08072  1.0000
  C   C90       1.0  0.19244  0.42431  0.07381  1.0000
  H   H157      1.0  0.18794  0.34099  0.17682  1.0000
  H   H158      1.0  0.07297  0.44584  0.26555  1.0000
  H   H159      1.0  0.26129  0.45867  0.18563  1.0000
  C   C91       1.0  0.22538  0.42800  0.04765  1.0000
  H   H160      1.0  0.22784  0.43441  0.06178  1.0000
  C   C92       1.0  0.24886  0.46324  0.17418  1.0000
  H   H161      1.0  0.11773  0.45758  0.21582  1.0000
  C   C93       1.0  0.13698  0.46155  0.10768  1.0000
  C   C94       1.0  0.13200  0.44402  0.08263  1.0000
  C   C95       1.0  0.12200  0.45629  0.12907  1.0000
  H   H162      1.0  0.15685  0.46411  0.21395  1.0000
  H   H163      1.0  0.20435  0.45273  0.01849  1.0000
  Fe  Fe21      1.0  0.13042  0.41263  0.06138  1.0000
  C   C96       1.0  0.20285  0.37461  0.06224  1.0000
  C   C97       1.0  0.19068  0.33960  0.11221  1.0000
  H   H164      1.0  0.20479  0.34451  0.10357  1.0000
  C   C98       1.0  0.22439  0.46688  0.21456  1.0000
  S   S40       1.0  0.11593  0.46389  0.15815  1.0000
  S   S41       1.0  0.13854  0.43653  0.05343  1.0000
  H   H165      1.0  0.09666  0.46064  0.27269  1.0000
  C   C99       1.0  0.05521  0.43350  0.40747  1.0000
  C   C100      1.0  0.20270  0.37107  0.03802  1.0000
  S   S42       1.0  0.16673  0.47448  0.15404  1.0000
  C   C101      1.0  0.03910  0.45383  0.43270  1.0000
  H   H166      1.0  0.05593  0.46413  0.25604  1.0000
  H   H167      1.0  0.23398  0.43667  0.18226  1.0000
  H   H168      1.0  0.18063  0.34442  0.09726  1.0000
  H   H169      1.0  0.23447  0.43227  0.02759  1.0000
  H   H170      1.0  0.06745  0.37129  0.00303  1.0000
  N   N11       1.0  0.04030  0.43723  0.43140  1.0000
  S   S43       1.0  0.08559  0.38328  0.03498  1.0000
  Fe  Fe22      1.0  0.15310  0.38017  0.05337  1.0000
  H   H171      1.0  0.22265  0.48005  0.20862  1.0000
  H   H172      1.0  0.03428  0.46230  0.41476  1.0000
  H   H173      1.0  0.15268  0.46032  0.06757  1.0000
  C   C102      1.0  0.23706  0.37943  0.04525  1.0000
  H   H174      1.0  0.25326  0.45760  0.15656  1.0000
  H   H175      1.0  0.04815  0.41389  0.45518  1.0000
  S   S44       1.0  0.13496  0.39998  0.02822  1.0000
  H   H176      1.0  0.19215  0.45428  0.11222  1.0000
  H   H177      1.0  0.17960  0.44972  0.03652  1.0000
  H   H178      1.0  0.19486  0.32652  0.11419  1.0000
  C   C103      1.0  0.16324  0.47738  0.23865  1.0000
  H   H179      1.0  0.10848  0.44197  0.24219  1.0000
  Fe  Fe23      1.0  0.13403  0.48262  0.15238  1.0000
  H   H180      1.0  0.05641  0.42104  0.40595  1.0000
  H   H181      1.0  0.17599  0.42607  0.07396  1.0000
  C   C104      1.0  0.23684  0.37604  0.02092  1.0000
  S   S45       1.0  0.30235  0.34842  0.15595  1.0000
  C   C105      1.0  0.14639  0.33691  0.99091  1.0000
  H   H182      1.0  0.19411  0.43051  0.08865  1.0000
  C   C106      1.0  0.21979  0.37161  0.01745  1.0000
  H   H183      1.0  0.23916  0.48174  0.08394  1.0000
  H   H184      1.0  0.30870  0.24214  0.36933  1.0000
  C   C107      1.0  0.13676  0.36042  0.00914  1.0000
  H   H185      1.0  0.12062  0.35910  0.01453  1.0000
  C   C108      1.0  0.08849  0.38624  0.99990  1.0000
  H   H186      1.0  0.10552  0.47623  0.24636  1.0000
  C   C109      1.0  0.21328  0.46644  0.17502  1.0000
  H   H187      1.0  0.07962  0.47898  0.26359  1.0000
  H   H188      1.0  0.19845  0.46366  0.18685  1.0000
  C   C110      1.0  0.32556  0.34135  0.13602  1.0000
  S   S46       1.0  0.19690  0.48637  0.08474  1.0000
  C   C111      1.0  0.16100  0.47929  0.26472  1.0000
  H   H189      1.0  0.00737  0.36261  0.00424  1.0000
  H   H190      1.0  0.09462  0.48268  0.20266  1.0000
  H   H191      1.0  0.10972  0.40192  0.98998  1.0000
  C   C112      1.0  0.07769  0.37861  0.98948  1.0000
  H   H192      1.0  0.06869  0.48578  0.21973  1.0000
  H   H193      1.0  0.17675  0.34832  0.99694  1.0000
  H   H194      1.0  0.32843  0.34646  0.21031  1.0000
  H   H195      1.0  0.99972  0.39150  0.45690  1.0000
  H   H196      1.0  0.00161  0.38353  0.99024  1.0000
  N   N12       1.0  0.14778  0.35381  0.98551  1.0000
  C   C113      1.0  0.99978  0.37168  0.98901  1.0000
  C   C114      1.0  0.99906  0.40741  0.48178  1.0000
  N   N13       1.0  0.10207  0.26910  0.82987  1.0000
  C   C115      1.0  0.00069  0.36832  0.53163  1.0000
  S   S47       1.0  0.10020  0.45185  0.72600  1.0000
  S   S48       1.0  0.03824  0.35647  0.57202  1.0000
  C   C116      1.0  0.00627  0.42086  0.65962  1.0000
  Fe  Fe24      1.0  0.03277  0.31674  0.71896  1.0000
  S   S49       1.0  0.03037  0.29552  0.70511  1.0000
  S   S50       1.0  0.03097  0.34232  0.69754  1.0000
  Fe  Fe25      1.0  0.03713  0.29834  0.77461  1.0000
  S   S51       1.0  0.03539  0.27545  0.76602  1.0000
  S   S52       1.0  0.03596  0.30059  0.81644  1.0000
  Fe  Fe26      1.0  0.05581  0.28286  0.72684  1.0000
  S   S53       1.0  0.07934  0.26359  0.71020  1.0000
  C   C117      1.0  0.00786  0.46169  0.72637  1.0000
  H   H197      1.0  0.17073  0.36786  0.97725  1.0000
  S   S54       1.0  0.06001  0.30466  0.73731  1.0000
  H   H198      1.0  0.09372  0.24616  0.84387  1.0000
  Fe  Fe27      1.0  0.07981  0.38023  0.89161  1.0000
  S   S55       1.0  0.07283  0.35556  0.90278  1.0000
  S   S56       1.0  0.09849  0.39097  0.90919  1.0000
  Fe  Fe28      1.0  0.05678  0.39116  0.84593  1.0000
  S   S57       1.0  0.04795  0.36771  0.85304  1.0000
  S   S58       1.0  0.04301  0.41143  0.81622  1.0000
  Fe  Fe29      1.0  0.04160  0.36825  0.89644  1.0000
  H   H199      1.0  0.32630  0.25290  0.80411  1.0000
  Fe  Fe30      1.0  0.07959  0.35712  0.85825  1.0000
  S   S59       1.0  0.09573  0.33821  0.83512  1.0000
  S   S60       1.0  0.04797  0.39266  0.88909  1.0000
  S   S61       1.0  0.08927  0.38068  0.84741  1.0000
  H   H200      1.0  0.05445  0.44056  0.83083  1.0000
  C   C118      1.0  0.06668  0.43262  0.87769  1.0000
  H   H201      1.0  0.05215  0.35777  0.80188  1.0000
  H   H202      1.0  0.19937  0.25669  0.69163  1.0000
  S   S62       1.0  0.04402  0.39235  0.51082  1.0000
  H   H203      1.0  0.13225  0.25862  0.83654  1.0000
  H   H204      1.0  0.10543  0.43623  0.86564  1.0000
  H   H205      1.0  0.05980  0.45428  0.65206  1.0000
  H   H206      1.0  0.05422  0.42676  0.87771  1.0000
  H   H207      1.0  0.17998  0.27245  0.70218  1.0000
  C   C119      1.0  0.06131  0.46217  0.58522  1.0000
  C   C120      1.0  0.00228  0.23995  0.72155  1.0000
  S   S63       1.0  0.02487  0.40102  0.56957  1.0000
  C   C121      1.0  0.11626  0.24473  0.71670  1.0000
  H   H208      1.0  0.00323  0.39154  0.63122  1.0000
  H   H209      1.0  0.00887  0.43717  0.72688  1.0000
  C   C122      1.0  0.11128  0.45240  0.62733  1.0000
  Fe  Fe31      1.0  0.01014  0.28942  0.74517  1.0000
  C   C123      1.0  0.09103  0.27368  0.80756  1.0000
  C   C124      1.0  0.99980  0.44901  0.72468  1.0000
  C   C125      1.0  0.10191  0.25808  0.72268  1.0000
  C   C126      1.0  0.10561  0.26683  0.73880  1.0000
  C   C127      1.0  0.12323  0.26200  0.74953  1.0000
  C   C128      1.0  0.04514  0.35713  0.78547  1.0000
  H   H210      1.0  0.10869  0.28020  0.85759  1.0000
  N   N14       1.0  0.02302  0.24308  0.71635  1.0000
  H   H211      1.0  0.09485  0.27730  0.74305  1.0000
  H   H212      1.0  0.12611  0.26890  0.76171  1.0000
  H   H213      1.0  0.02294  0.45951  0.73026  1.0000
  H   H214      1.0  0.18840  0.28868  0.65592  1.0000
  C   C129      1.0  0.01854  0.37964  0.79254  1.0000
  C   C130      1.0  0.15614  0.27432  0.66834  1.0000
  H   H215      1.0  0.05969  0.44371  0.88505  1.0000
  H   H216      1.0  0.14395  0.45061  0.64772  1.0000
  C   C131      1.0  0.08869  0.42076  0.84220  1.0000
  C   C132      1.0  0.05773  0.43761  0.63052  1.0000
  C   C133      1.0  0.13084  0.42627  0.64046  1.0000
  C   C134      1.0  0.12355  0.26254  0.82012  1.0000
  C   C135      1.0  0.05766  0.43491  0.60558  1.0000
  H   H217      1.0  0.09726  0.28304  0.79119  1.0000
  C   C136      1.0  0.05230  0.31163  0.82061  1.0000
  C   C137      1.0  0.06975  0.31429  0.80143  1.0000
  C   C138      1.0  0.08313  0.32242  0.80601  1.0000
  C   C139      1.0  0.07881  0.32826  0.82942  1.0000
  C   C140      1.0  0.06111  0.32592  0.84825  1.0000
  C   C141      1.0  0.04806  0.31742  0.84403  1.0000
  H   H218      1.0  0.07311  0.30992  0.78327  1.0000
  H   H219      1.0  0.09675  0.32431  0.79133  1.0000
  H   H220      1.0  0.05775  0.33032  0.86644  1.0000
  H   H221      1.0  0.03461  0.31535  0.85898  1.0000
  C   C142      1.0  0.03674  0.35227  0.60681  1.0000
  C   C143      1.0  0.04095  0.36307  0.61879  1.0000
  C   C144      1.0  0.03925  0.35985  0.64665  1.0000
  C   C145      1.0  0.03346  0.34580  0.66263  1.0000
  C   C146      1.0  0.02937  0.33493  0.65065  1.0000
  C   C147      1.0  0.03097  0.33819  0.62276  1.0000
  H   H222      1.0  0.04579  0.37382  0.60660  1.0000
  H   H223      1.0  0.04280  0.36814  0.65577  1.0000
  H   H224      1.0  0.02473  0.32414  0.66285  1.0000
  H   H225      1.0  0.02002  0.35432  0.83368  1.0000
  C   C148      1.0  0.08444  0.44041  0.75088  1.0000
  C   C149      1.0  0.06368  0.44628  0.75717  1.0000
  C   C150      1.0  0.05108  0.43709  0.77680  1.0000
  C   C151      1.0  0.05919  0.42209  0.79059  1.0000
  C   C152      1.0  0.07995  0.41615  0.78434  1.0000
  C   C153      1.0  0.09258  0.42533  0.76451  1.0000
  H   H226      1.0  0.05729  0.45799  0.74713  1.0000
  H   H227      1.0  0.03502  0.44175  0.78157  1.0000
  H   H228      1.0  0.08627  0.40449  0.79467  1.0000
  H   H229      1.0  0.10864  0.42074  0.75966  1.0000
  H   H230      1.0  0.09073  0.44617  0.67783  1.0000
  C   C154      1.0  0.05925  0.44725  0.58290  1.0000
  N   N15       1.0  0.07950  0.43587  0.85071  1.0000
  H   H231      1.0  0.05926  0.44524  0.56356  1.0000
  S   S64       1.0  0.23887  0.24258  0.66523  1.0000
  S   S65       1.0  0.07404  0.38839  0.55263  1.0000
  H   H232      1.0  0.10560  0.44642  0.83132  1.0000
  H   H233      1.0  0.29703  0.24708  0.68340  1.0000
  H   H234      1.0  0.08930  0.45525  0.85789  1.0000
  H   H235      1.0  0.12136  0.45783  0.66957  1.0000
  H   H236      1.0  0.27955  0.24033  0.67104  1.0000
  C   C155      1.0  0.10410  0.39746  0.95444  1.0000
  C   C156      1.0  0.09364  0.38956  0.94407  1.0000
  C   C157      1.0  0.08028  0.38022  0.96165  1.0000
  H   H237      1.0  0.17777  0.25543  0.63451  1.0000
  C   C158      1.0  0.13387  0.23980  0.72769  1.0000
  H   H238      1.0  0.11435  0.40479  0.94095  1.0000
  H   H239      1.0  0.07214  0.37409  0.95385  1.0000
  C   C159      1.0  0.13713  0.24828  0.74462  1.0000
  H   H240      1.0  0.00195  0.38429  0.79656  1.0000
  H   H241      1.0  0.09124  0.43045  0.66206  1.0000
  C   C160      1.0  0.06698  0.44616  0.83149  1.0000
  H   H242      1.0  0.12232  0.36220  0.96588  1.0000
  H   H243      1.0  0.12210  0.42091  0.63123  1.0000
  H   H244      1.0  0.10117  0.46301  0.63398  1.0000
  H   H245      1.0  0.12414  0.45660  0.61202  1.0000
  H   H246      1.0  0.09797  0.41251  0.85645  1.0000
  H   H247      1.0  0.08469  0.28858  0.84777  1.0000
  H   H248      1.0  0.10077  0.25324  0.86854  1.0000
  H   H249      1.0  0.01748  0.34836  0.76750  1.0000
  H   H250      1.0  0.00704  0.41368  0.68020  1.0000
  H   H251      1.0  0.02191  0.42231  0.64914  1.0000
  H   H252      1.0  0.13547  0.43850  0.67996  1.0000
  H   H253      1.0  0.02530  0.39836  0.63177  1.0000
  S   S66       1.0  0.05269  0.42426  0.52450  1.0000
  H   H254      1.0  0.14619  0.26619  0.68201  1.0000
  N   N16       1.0  0.17773  0.26668  0.66597  1.0000
  C   C161      1.0  0.18131  0.25239  0.65489  1.0000
  C   C162      1.0  0.19048  0.27784  0.64803  1.0000
  H   H255      1.0  0.20686  0.27226  0.64583  1.0000
  H   H256      1.0  0.01319  0.26823  0.71013  1.0000
  H   H257      1.0  0.17175  0.24377  0.66777  1.0000
  H   H258      1.0  0.27190  0.24626  0.62001  1.0000
  N   N17       1.0  0.02301  0.36276  0.79100  1.0000
  C   C163      1.0  0.00443  0.47786  0.65224  1.0000
  C   C164      1.0  0.10071  0.28320  0.84054  1.0000
  C   C165      1.0  0.16923  0.35530  0.98000  1.0000
  H   H259      1.0  0.01408  0.47034  0.63826  1.0000
  H   H260      1.0  0.10760  0.29258  0.82496  1.0000
  S   S67       1.0  0.06534  0.48327  0.61247  1.0000
  H   H261      1.0  0.04899  0.34459  0.78336  1.0000
  H   H262      1.0  0.01097  0.35652  0.53272  1.0000
  C   C166      1.0  0.18307  0.26209  0.69272  1.0000
  C   C167      1.0  0.09567  0.44381  0.85142  1.0000
  H   H263      1.0  0.01799  0.25046  0.75346  1.0000
  C   C168      1.0  0.13036  0.44709  0.66227  1.0000
  N   N18       1.0  0.11828  0.44038  0.65010  1.0000
  H   H264      1.0  0.14427  0.42935  0.62504  1.0000
  H   H265      1.0  0.00900  0.37646  0.53547  1.0000
  Fe  Fe32      1.0  0.04540  0.38073  0.55356  1.0000
  H   H266      1.0  0.07560  0.42453  0.89255  1.0000
  H   H267      1.0  0.09191  0.26338  0.79880  1.0000
  H   H268      1.0  0.05653  0.42810  0.64813  1.0000
  H   H269      1.0  0.01044  0.38955  0.66253  1.0000
  H   H270      1.0  0.10261  0.44761  0.61714  1.0000
  H   H271      1.0  0.07682  0.41465  0.84111  1.0000
  S   S68       1.0  0.05561  0.47043  0.69067  1.0000
  H   H272      1.0  0.17426  0.25326  0.70650  1.0000
  Fe  Fe33      1.0  0.05332  0.40971  0.56618  1.0000
  H   H273      1.0  0.19741  0.24617  0.65329  1.0000
  S   S69       1.0  0.05583  0.41582  0.60404  1.0000
  Fe  Fe34      1.0  0.02611  0.41353  0.52678  1.0000
  H   H274      1.0  0.00821  0.36959  0.96900  1.0000
  C   C169      1.0  0.10061  0.43575  0.67036  1.0000
  Fe  Fe35      1.0  0.08160  0.47384  0.70505  1.0000
  C   C170      1.0  0.06164  0.46479  0.61019  1.0000
  H   H275      1.0  0.07608  0.44845  0.81073  1.0000
  H   H276      1.0  0.15471  0.33149  0.97359  1.0000
  C   C171      1.0  0.02368  0.25918  0.69969  1.0000
  C   C172      1.0  0.00955  0.39750  0.64253  1.0000
  H   H277      1.0  0.13638  0.41698  0.65715  1.0000
  H   H278      1.0  0.32022  0.25800  0.83633  1.0000
  H   H279      1.0  0.07472  0.27845  0.81433  1.0000
  H   H280      1.0  0.10528  0.42702  0.68819  1.0000
  C   C173      1.0  0.05957  0.45250  0.63282  1.0000
  S   S70       1.0  0.01019  0.31179  0.75709  1.0000
  H   H281      1.0  0.02774  0.32979  0.61357  1.0000
  Fe  Fe36      1.0  0.07080  0.40208  0.51098  1.0000
  C   C174      1.0  0.09291  0.25697  0.85128  1.0000
  S   S71       1.0  0.01167  0.36223  0.91968  1.0000
  C   C175      1.0  0.01394  0.35324  0.81673  1.0000
  H   H282      1.0  0.06006  0.45783  0.83689  1.0000
  H   H283      1.0  0.17791  0.35106  0.96166  1.0000
  H   H284      1.0  0.09869  0.42266  0.82206  1.0000
  H   H285      1.0  0.01710  0.34042  0.81632  1.0000
  H   H286      1.0  0.13107  0.27147  0.80431  1.0000
  H   H287      1.0  0.06294  0.47162  0.56755  1.0000
  H   H288      1.0  0.15147  0.27783  0.64858  1.0000
  C   C176      1.0  0.13869  0.36264  0.96207  1.0000
  H   H289      1.0  0.02529  0.38719  0.77360  1.0000
  H   H290      1.0  0.02099  0.36788  0.74945  1.0000
  H   H291      1.0  0.28742  0.24342  0.74424  1.0000
  H   H292      1.0  0.01128  0.38804  0.87376  1.0000
  H   H293      1.0  0.02470  0.38143  0.80888  1.0000
  H   H294      1.0  0.01912  0.26066  0.68027  1.0000
  C   C177      1.0  0.01439  0.36098  0.76923  1.0000
  H   H295      1.0  0.03915  0.26194  0.69521  1.0000
  H   H296      1.0  0.18687  0.28162  0.62763  1.0000
  H   H297      1.0  0.01153  0.42514  0.60626  1.0000
  H   H298      1.0  0.15289  0.28517  0.67660  1.0000
  H   H299      1.0  0.13995  0.37537  0.95708  1.0000
  H   H300      1.0  0.05256  0.36431  0.76659  1.0000
  H   H301      1.0  0.14621  0.35777  0.94394  1.0000
  Fe  Fe37      1.0  0.06644  0.48697  0.65289  1.0000
  H   H302      1.0  0.01400  0.47866  0.66577  1.0000
  H   H303      1.0  0.12518  0.25208  0.81130  1.0000
  C   C178      1.0  0.02878  0.24194  0.74203  1.0000
  C   C179      1.0  0.10162  0.39575  0.98225  1.0000
  H   H304      1.0  0.07666  0.26154  0.85897  1.0000
  S   S72       1.0  0.15777  0.24191  0.76108  1.0000
  H   H305      1.0  0.04416  0.24470  0.73876  1.0000
  C   C180      1.0  0.99919  0.38199  0.87530  1.0000
  H   H306      1.0  0.11459  0.57979  0.12221  1.0000
  S   S73       1.0  0.16949  0.51252  0.13971  1.0000
  Fe  Fe38      1.0  0.13600  0.51747  0.14071  1.0000
  S   S74       1.0  0.11454  0.54098  0.13382  1.0000
  H   H307      1.0  0.15006  0.67159  0.45317  1.0000
  S   S75       1.0  0.09386  0.73016  0.31620  1.0000
  C   C181      1.0  0.04758  0.72009  0.12974  1.0000
  Fe  Fe39      1.0  0.05196  0.63430  0.15867  1.0000
  S   S76       1.0  0.07724  0.63395  0.17820  1.0000
  S   S77       1.0  0.05219  0.64138  0.11467  1.0000
  Fe  Fe40      1.0  0.02508  0.62199  0.21098  1.0000
  S   S78       1.0  0.04832  0.62032  0.23515  1.0000
  C   C182      1.0  0.10198  0.61519  0.08023  1.0000
  Fe  Fe41      1.0  0.05283  0.64412  0.20922  1.0000
  S   S79       1.0  0.05270  0.66655  0.22192  1.0000
  Fe  Fe42      1.0  0.07052  0.61017  0.20202  1.0000
  S   S80       1.0  0.09657  0.58967  0.20860  1.0000
  S   S81       1.0  0.02796  0.64646  0.18745  1.0000
  S   S82       1.0  0.04688  0.60991  0.18010  1.0000
  Fe  Fe43      1.0  0.08036  0.71347  0.02861  1.0000
  C   C183      1.0  0.12935  0.69713  0.47269  1.0000
  S   S83       1.0  0.10166  0.69507  0.05171  1.0000
  C   C184      1.0  0.10002  0.60954  0.12797  1.0000
  Fe  Fe44      1.0  0.05733  0.68610  0.35423  1.0000
  S   S84       1.0  0.04891  0.71002  0.32843  1.0000
  S   S85       1.0  0.06278  0.66336  0.33955  1.0000
  Fe  Fe45      1.0  0.05593  0.70038  0.40216  1.0000
  S   S86       1.0  0.04673  0.72540  0.37981  1.0000
  S   S87       1.0  0.05869  0.69332  0.44582  1.0000
  Fe  Fe46      1.0  0.02615  0.71511  0.36491  1.0000
  H   H308      1.0  0.02157  0.64506  0.30852  1.0000
  Fe  Fe47      1.0  0.07037  0.71758  0.34565  1.0000
  H   H309      1.0  0.02326  0.64790  0.26031  1.0000
  S   S88       1.0  0.03335  0.69072  0.38996  1.0000
  S   S89       1.0  0.08089  0.69315  0.36890  1.0000
  Fe  Fe48      1.0  0.04058  0.71768  0.01182  1.0000
  C   C185      1.0  0.00504  0.64520  0.31213  1.0000
  H   H310      1.0  0.09841  0.69901  0.30880  1.0000
  N   N19       1.0  0.06139  0.70450  0.13285  1.0000
  H   H311      1.0  0.04933  0.69715  0.17491  1.0000
  H   H312      1.0  0.09815  0.60067  0.14724  1.0000
  C   C186      1.0  0.05446  0.66517  0.25522  1.0000
  C   C187      1.0  0.06262  0.65088  0.27093  1.0000
  C   C188      1.0  0.06480  0.65039  0.29696  1.0000
  C   C189      1.0  0.05867  0.66412  0.30749  1.0000
  C   C190      1.0  0.04990  0.67825  0.29203  1.0000
  C   C191      1.0  0.04796  0.67880  0.26593  1.0000
  H   H313      1.0  0.06777  0.64031  0.26280  1.0000
  H   H314      1.0  0.07159  0.63940  0.30880  1.0000
  H   H315      1.0  0.04448  0.68874  0.30019  1.0000
  H   H316      1.0  0.04127  0.68983  0.25407  1.0000
  C   C192      1.0  0.06701  0.65552  0.09661  1.0000
  C   C193      1.0  0.08430  0.65654  0.10470  1.0000
  C   C194      1.0  0.09560  0.66825  0.09011  1.0000
  C   C195      1.0  0.08937  0.67910  0.06780  1.0000
  C   C196      1.0  0.07242  0.67776  0.05940  1.0000
  C   C197      1.0  0.06138  0.66591  0.07362  1.0000
  H   H317      1.0  0.08895  0.64840  0.12217  1.0000
  H   H318      1.0  0.10884  0.66917  0.09649  1.0000
  H   H319      1.0  0.06772  0.68587  0.04190  1.0000
  H   H320      1.0  0.04818  0.66504  0.06708  1.0000
  H   H321      1.0  0.09021  0.68123  0.25702  1.0000
  H   H322      1.0  0.10445  0.69315  0.22924  1.0000
  H   H323      1.0  0.07021  0.70730  0.16739  1.0000
  Fe  Fe49      1.0  0.17140  0.49365  0.11745  1.0000
  Fe  Fe50      1.0  0.16214  0.49366  0.17619  1.0000
  S   S90       1.0  0.13872  0.50073  0.11414  1.0000
  H   H324      1.0  0.99934  0.66118  0.26315  1.0000
  H   H325      1.0  0.11537  0.58328  0.08709  1.0000
  H   H326      1.0  0.07975  0.71088  0.09384  1.0000
  S   S91       1.0  0.07264  0.71071  0.99157  1.0000
  H   H327      1.0  0.00292  0.64413  0.24900  1.0000
  C   C198      1.0  0.07406  0.71952  0.44458  1.0000
  C   C199      1.0  0.06809  0.70538  0.45979  1.0000
  C   C200      1.0  0.08164  0.72874  0.45639  1.0000
  C   C201      1.0  0.07960  0.59826  0.10973  1.0000
  S   S92       1.0  0.12859  0.49975  0.17896  1.0000
  H   H328      1.0  0.07286  0.72333  0.42372  1.0000
  C   C202      1.0  0.06396  0.69882  0.16099  1.0000
  H   H329      1.0  0.09191  0.69456  0.11607  1.0000
  C   C203      1.0  0.05283  0.69294  0.12546  1.0000
  C   C204      1.0  0.10061  0.57438  0.19118  1.0000
  C   C205      1.0  0.11967  0.56445  0.18737  1.0000
  C   C206      1.0  0.12378  0.55330  0.17119  1.0000
  C   C207      1.0  0.10884  0.55212  0.15866  1.0000
  C   C208      1.0  0.08955  0.56151  0.16348  1.0000
  C   C209      1.0  0.08540  0.57250  0.17984  1.0000
  H   H330      1.0  0.13147  0.56572  0.19628  1.0000
  H   H331      1.0  0.13875  0.54613  0.16748  1.0000
  H   H332      1.0  0.07787  0.56048  0.15411  1.0000
  H   H333      1.0  0.07048  0.57959  0.18347  1.0000
  C   C210      1.0  0.11922  0.70657  0.25898  1.0000
  H   H334      1.0  0.08585  0.68526  0.30303  1.0000
  H   H335      1.0  0.12102  0.71296  0.23761  1.0000
  H   H336      1.0  0.13332  0.69769  0.26154  1.0000
  H   H337      1.0  0.11796  0.71540  0.27116  1.0000
  C   C211      1.0  0.11579  0.58899  0.10329  1.0000
  C   C212      1.0  0.09953  0.69072  0.29578  1.0000
  H   H338      1.0  0.08962  0.62581  0.08106  1.0000
  C   C213      1.0  0.08124  0.70616  0.11515  1.0000
  H   H339      1.0  0.08768  0.61996  0.13019  1.0000
  H   H340      1.0  0.06234  0.68089  0.12899  1.0000
  H   H341      1.0  0.08076  0.72008  0.27631  1.0000
  H   H342      1.0  0.02707  0.62105  0.29057  1.0000
  H   H343      1.0  0.08843  0.71446  0.12055  1.0000
  H   H344      1.0  0.11462  0.61336  0.12532  1.0000
  H   H345      1.0  0.10175  0.61059  0.06266  1.0000
  S   S93       1.0  0.04824  0.71834  0.05022  1.0000
  H   H346      1.0  0.03249  0.71939  0.14291  1.0000
  H   H347      1.0  0.16704  0.68208  0.47926  1.0000
  C   C214      1.0  0.08296  0.71125  0.26381  1.0000
  H   H348      1.0  0.06913  0.70595  0.26972  1.0000
  N   N20       1.0  0.09936  0.60298  0.10530  1.0000
  C   C215      1.0  0.01041  0.62220  0.29342  1.0000
  C   C216      1.0  0.10339  0.68734  0.25082  1.0000
  H   H349      1.0  0.05186  0.69625  0.10390  1.0000
  H   H350      1.0  0.11280  0.68107  0.29915  1.0000
  N   N21       1.0  0.10128  0.69897  0.26733  1.0000
  H   H351      1.0  0.07444  0.68712  0.16395  1.0000
  H   H352      1.0  0.07685  0.58940  0.12880  1.0000
  H   H353      1.0  0.11653  0.61930  0.07647  1.0000
  H   H354      1.0  0.03742  0.69193  0.13748  1.0000
  H   H355      1.0  0.13094  0.59218  0.09933  1.0000
  H   H356      1.0  0.00476  0.61792  0.17372  1.0000
  C   C217      1.0  0.00327  0.70909  0.98957  1.0000
  H   H357      1.0  0.01473  0.69710  0.34151  1.0000
  H   H358      1.0  0.08390  0.71789  0.24264  1.0000
  H   H359      1.0  0.07870  0.59292  0.09333  1.0000
  N   N22       1.0  0.99999  0.63891  0.29179  1.0000
  H   H360      1.0  0.06689  0.60860  0.11092  1.0000
  H   H361      1.0  0.11715  0.67797  0.25283  1.0000
  C   C218      1.0  0.13818  0.66934  0.47146  1.0000
  H   H362      1.0  0.12393  0.66994  0.46481  1.0000
  H   H363      1.0  0.14126  0.70034  0.45489  1.0000
  H   H364      1.0  0.00628  0.68255  0.31352  1.0000
  S   S94       1.0  0.17601  0.48985  0.21183  1.0000
  S   S95       1.0  0.01803  0.70284  0.01431  1.0000
  H   H365      1.0  0.05375  0.72914  0.13484  1.0000
  H   H366      1.0  0.04530  0.72466  0.10870  1.0000
  H   H367      1.0  0.00053  0.63819  0.33269  1.0000
  C   C219      1.0  0.00665  0.64844  0.26487  1.0000
  H   H368      1.0  0.11526  0.69832  0.46529  1.0000
  H   H369      1.0  0.00747  0.61719  0.27781  1.0000
  H   H370      1.0  0.00525  0.61460  0.31319  1.0000
  H   H371      1.0  0.16724  0.48841  0.26825  1.0000
  C   C220      1.0  0.00006  0.70056  0.33622  1.0000
  H   H372      1.0  0.14271  0.65698  0.48264  1.0000
  S   S96       1.0  0.24786  0.72746  0.66098  1.0000
  H   H373      1.0  0.23206  0.67062  0.63726  1.0000
  H   H374      1.0  0.28261  0.65707  0.59836  1.0000
  S   S97       1.0  0.05022  0.72473  0.85375  1.0000
  H   H375      1.0  0.14407  0.72433  0.79303  1.0000
  S   S98       1.0  0.04802  0.50874  0.66679  1.0000
  C   C221      1.0  0.16314  0.65653  0.77908  1.0000
  H   H376      1.0  0.07857  0.70589  0.51938  1.0000
  Fe  Fe51      1.0  0.07496  0.50929  0.68292  1.0000
  S   S99       1.0  0.08406  0.53342  0.67338  1.0000
  H   H377      1.0  0.14389  0.68943  0.90827  1.0000
  H   H378      1.0  0.21193  0.63823  0.76201  1.0000
  Fe  Fe52      1.0  0.12766  0.69637  0.56806  1.0000
  S   S100      1.0  0.09500  0.70392  0.56538  1.0000
  S   S101      1.0  0.14404  0.67161  0.56727  1.0000
  H   H379      1.0  0.12409  0.68870  0.69635  1.0000
  S   S102      1.0  0.13808  0.71666  0.53654  1.0000
  S   S103      1.0  0.12466  0.70744  0.60268  1.0000
  S   S104      1.0  0.06923  0.67103  0.78146  1.0000
  Fe  Fe53      1.0  0.15132  0.57943  0.71098  1.0000
  S   S105      1.0  0.12355  0.59449  0.73012  1.0000
  S   S106      1.0  0.14985  0.55344  0.71657  1.0000
  Fe  Fe54      1.0  0.17444  0.60722  0.69107  1.0000
  S   S107      1.0  0.14812  0.62401  0.70827  1.0000
  S   S108      1.0  0.20131  0.61886  0.66887  1.0000
  Fe  Fe55      1.0  0.14498  0.60414  0.74408  1.0000
  S   S109      1.0  0.13922  0.61086  0.78367  1.0000
  Fe  Fe56      1.0  0.12950  0.61277  0.69241  1.0000
  S   S110      1.0  0.10437  0.62807  0.67247  1.0000
  S   S111      1.0  0.17268  0.58775  0.72827  1.0000
  S   S112      1.0  0.15595  0.59723  0.67198  1.0000
  S   S113      1.0  0.26888  0.69014  0.66044  1.0000
  S   S114      1.0  0.25197  0.70042  0.71752  1.0000
  Fe  Fe57      1.0  0.24581  0.68326  0.69724  1.0000
  S   S115      1.0  0.24336  0.65772  0.71703  1.0000
  S   S116      1.0  0.21949  0.69981  0.68192  1.0000
  H   H380      1.0  0.06624  0.72065  0.72354  1.0000
  C   C222      1.0  0.21001  0.62967  0.68599  1.0000
  C   C223      1.0  0.22447  0.62190  0.70174  1.0000
  C   C224      1.0  0.23426  0.63066  0.71147  1.0000
  C   C225      1.0  0.22994  0.64728  0.70524  1.0000
  C   C226      1.0  0.21499  0.65510  0.69020  1.0000
  C   C227      1.0  0.20513  0.64631  0.68049  1.0000
  H   H381      1.0  0.22864  0.60909  0.70565  1.0000
  H   H382      1.0  0.24570  0.62450  0.72321  1.0000
  H   H383      1.0  0.21127  0.66790  0.68564  1.0000
  H   H384      1.0  0.19415  0.65242  0.66800  1.0000
  C   C228      1.0  0.08786  0.65377  0.78353  1.0000
  C   C229      1.0  0.08965  0.64326  0.76713  1.0000
  C   C230      1.0  0.10546  0.63007  0.76713  1.0000
  C   C231      1.0  0.11891  0.62693  0.78450  1.0000
  C   C232      1.0  0.11659  0.63707  0.80175  1.0000
  C   C233      1.0  0.10140  0.65073  0.80074  1.0000
  H   H385      1.0  0.07902  0.64541  0.75411  1.0000
  H   H386      1.0  0.10705  0.62223  0.75394  1.0000
  H   H387      1.0  0.12672  0.63454  0.81555  1.0000
  H   H388      1.0  0.09992  0.65873  0.81366  1.0000
  C   C234      1.0  0.13291  0.65908  0.59574  1.0000
  C   C235      1.0  0.11184  0.66084  0.60317  1.0000
  C   C236      1.0  0.10304  0.65099  0.62640  1.0000
  C   C237      1.0  0.11530  0.63972  0.64257  1.0000
  C   C238      1.0  0.13634  0.63816  0.63524  1.0000
  C   C239      1.0  0.14514  0.64765  0.61165  1.0000
  H   H389      1.0  0.10233  0.66961  0.59086  1.0000
  H   H390      1.0  0.08676  0.65224  0.63200  1.0000
  H   H391      1.0  0.14594  0.62971  0.64776  1.0000
  H   H392      1.0  0.16143  0.64636  0.60610  1.0000
  H   H393      1.0  0.13848  0.72783  0.66604  1.0000
  C   C240      1.0  0.05894  0.73201  0.87583  1.0000
  Fe  Fe58      1.0  0.07150  0.73692  0.97794  1.0000
  H   H394      1.0  0.02327  0.50258  0.63279  1.0000
  C   C241      1.0  0.10425  0.53764  0.68365  1.0000
  C   C242      1.0  0.11090  0.55201  0.67113  1.0000
  C   C243      1.0  0.12527  0.55676  0.68055  1.0000
  C   C244      1.0  0.13297  0.54727  0.70283  1.0000
  C   C245      1.0  0.12687  0.53262  0.71478  1.0000
  C   C246      1.0  0.11253  0.52783  0.70529  1.0000
  H   H395      1.0  0.10475  0.55960  0.65419  1.0000
  H   H396      1.0  0.13032  0.56782  0.67066  1.0000
  H   H397      1.0  0.13296  0.52510  0.73180  1.0000
  H   H398      1.0  0.10754  0.51675  0.71513  1.0000
  C   C247      1.0  0.00529  0.72281  0.96953  1.0000
  Fe  Fe59      1.0  0.07298  0.71668  0.81908  1.0000
  H   H399      1.0  0.06321  0.57866  0.76352  1.0000
  C   C248      1.0  0.16362  0.70220  0.78712  1.0000
  H   H400      1.0  0.20047  0.65833  0.74959  1.0000
  H   H401      1.0  0.17735  0.64886  0.73092  1.0000
  H   H402      1.0  0.27579  0.64096  0.59000  1.0000
  C   C249      1.0  0.06550  0.72039  0.68301  1.0000
  H   H403      1.0  0.14323  0.70997  0.89224  1.0000
  H   H404      1.0  0.27773  0.63978  0.62382  1.0000
  H   H405      1.0  0.27070  0.71224  0.75224  1.0000
  H   H406      1.0  0.18862  0.62865  0.74321  1.0000
  H   H407      1.0  0.12605  0.68133  0.86649  1.0000
  H   H408      1.0  0.19036  0.61896  0.79062  1.0000
  C   C250      1.0  0.07262  0.72444  0.70259  1.0000
  C   C251      1.0  0.17868  0.62941  0.79530  1.0000
  C   C252      1.0  0.17671  0.63880  0.74862  1.0000
  H   H409      1.0  0.18114  0.63213  0.81352  1.0000
  C   C253      1.0  0.10529  0.70474  0.91169  1.0000
  C   C254      1.0  0.00399  0.71432  0.84161  1.0000
  H   H410      1.0  0.09986  0.71339  0.86017  1.0000
  H   H411      1.0  0.24254  0.63471  0.64008  1.0000
  H   H412      1.0  0.05369  0.71343  0.68897  1.0000
  Fe  Fe60      1.0  0.27245  0.70933  0.67884  1.0000
  H   H413      1.0  0.22898  0.67184  0.59118  1.0000
  H   H414      1.0  0.01839  0.70863  0.88690  1.0000
  C   C255      1.0  0.15817  0.71874  0.78229  1.0000
  C   C256      1.0  0.11948  0.67748  0.51218  1.0000
  H   H415      1.0  0.15124  0.69511  0.87241  1.0000
  C   C257      1.0  0.08761  0.58685  0.69864  1.0000
  S   S117      1.0  0.20371  0.73284  0.72321  1.0000
  C   C258      1.0  0.07416  0.72483  0.65588  1.0000
  H   H416      1.0  0.08639  0.58482  0.67921  1.0000
  H   H417      1.0  0.10742  0.71614  0.91464  1.0000
  C   C259      1.0  0.18905  0.72101  0.74899  1.0000
  H   H418      1.0  0.08651  0.59982  0.69625  1.0000
  H   H419      1.0  0.00356  0.69415  0.88951  1.0000
  S   S118      1.0  0.06715  0.71807  0.63170  1.0000
  H   H420      1.0  0.20858  0.69884  0.74304  1.0000
  H   H421      1.0  0.18651  0.68231  0.77737  1.0000
  C   C260      1.0  0.05011  0.73326  0.56035  1.0000
  H   H422      1.0  0.12374  0.66547  0.52477  1.0000
  C   C261      1.0  0.05062  0.72852  0.90326  1.0000
  C   C262      1.0  0.26010  0.72143  0.76243  1.0000
  H   H423      1.0  0.01724  0.72908  0.96770  1.0000
  C   C263      1.0  0.19466  0.70446  0.75411  1.0000
  C   C264      1.0  0.05177  0.58938  0.71610  1.0000
  C   C265      1.0  0.07348  0.56358  0.72243  1.0000
  H   H424      1.0  0.07480  0.59547  0.74556  1.0000
  H   H425      1.0  0.04911  0.58801  0.69694  1.0000
  H   H426      1.0  0.05016  0.60230  0.71486  1.0000
  H   H427      1.0  0.03955  0.58498  0.73243  1.0000
  H   H428      1.0  0.08861  0.55667  0.72590  1.0000
  H   H429      1.0  0.07129  0.56144  0.70354  1.0000
  H   H430      1.0  0.03863  0.72173  0.91057  1.0000
  S   S119      1.0  0.09359  0.73551  0.49727  1.0000
  H   H431      1.0  0.29477  0.73017  0.73427  1.0000
  S   S120      1.0  0.10930  0.69737  0.76298  1.0000
  S   S121      1.0  0.06262  0.71544  0.78271  1.0000
  H   H432      1.0  0.25745  0.67386  0.62597  1.0000
  Fe  Fe61      1.0  0.09212  0.72230  0.75984  1.0000
  Fe  Fe62      1.0  0.10496  0.72517  0.53607  1.0000
  H   H433      1.0  0.10304  0.58100  0.70216  1.0000
  C   C266      1.0  0.08926  0.73394  0.64826  1.0000
  H   H434      1.0  0.14794  0.65358  0.78231  1.0000
  H   H435      1.0  0.24095  0.63568  0.60627  1.0000
  H   H436      1.0  0.10483  0.67807  0.50663  1.0000
  H   H437      1.0  0.25223  0.65674  0.65149  1.0000
  H   H438      1.0  0.00486  0.70184  0.84055  1.0000
  H   H439      1.0  0.20172  0.65157  0.78435  1.0000
  H   H440      1.0  0.10761  0.69563  0.93022  1.0000
  C   C267      1.0  0.11526  0.71252  0.86367  1.0000
  H   H441      1.0  0.11922  0.67523  0.90234  1.0000
  C   C268      1.0  0.14036  0.69858  0.89028  1.0000
  C   C269      1.0  0.08353  0.72382  0.48333  1.0000
  C   C270      1.0  0.17106  0.72813  0.76363  1.0000
  C   C271      1.0  0.08779  0.73353  0.69494  1.0000
  H   H442      1.0  0.00735  0.51354  0.60941  1.0000
  H   H443      1.0  0.20546  0.69620  0.59046  1.0000
  H   H444      1.0  0.09591  0.73755  0.62735  1.0000
  C   C272      1.0  0.15456  0.67973  0.49672  1.0000
  C   C273      1.0  0.07744  0.70974  0.49857  1.0000
  H   H445      1.0  0.26307  0.71902  0.78303  1.0000
  H   H446      1.0  0.08921  0.70635  0.91011  1.0000
  H   H447      1.0  0.14150  0.72775  0.71055  1.0000
  S   S122      1.0  0.00603  0.49335  0.72441  1.0000
  H   H448      1.0  0.11650  0.72439  0.86563  1.0000
  C   C274      1.0  0.18157  0.71662  0.58558  1.0000
  H   H449      1.0  0.16419  0.65966  0.79770  1.0000
  C   C275      1.0  0.24809  0.66450  0.63259  1.0000
  N   N23       1.0  0.17944  0.64320  0.77246  1.0000
  H   H450      1.0  0.11692  0.68608  0.52512  1.0000
  C   C276      1.0  0.20557  0.73195  0.60218  1.0000
  C   C277      1.0  0.18212  0.69507  0.77351  1.0000
  C   C278      1.0  0.19923  0.64803  0.76689  1.0000
  H   H451      1.0  0.16188  0.63513  0.75220  1.0000
  Fe  Fe63      1.0  0.09294  0.71738  0.59663  1.0000
  C   C279      1.0  0.27281  0.64797  0.60566  1.0000
  N   N24       1.0  0.10370  0.67631  0.68905  1.0000
  C   C280      1.0  0.09265  0.67732  0.66791  1.0000
  C   C281      1.0  0.11696  0.66056  0.69391  1.0000
  C   C282      1.0  0.08910  0.67850  0.71401  1.0000
  C   C283      1.0  0.11606  0.68880  0.68047  1.0000
  H   H452      1.0  0.08150  0.68862  0.66497  1.0000
  H   H453      1.0  0.08422  0.66741  0.67295  1.0000
  H   H454      1.0  0.10315  0.67677  0.64834  1.0000
  H   H455      1.0  0.10800  0.65090  0.70097  1.0000
  H   H456      1.0  0.12785  0.65826  0.67532  1.0000
  H   H457      1.0  0.12573  0.65941  0.70953  1.0000
  H   H458      1.0  0.07903  0.66963  0.72060  1.0000
  H   H459      1.0  0.07918  0.69039  0.71157  1.0000
  H   H460      1.0  0.09692  0.67728  0.73065  1.0000
  H   H461      1.0  0.10651  0.70079  0.67596  1.0000
  H   H462      1.0  0.12758  0.68725  0.66202  1.0000
  Fe  Fe64      1.0  0.24255  0.70760  0.64588  1.0000
  Fe  Fe65      1.0  0.22743  0.71756  0.69879  1.0000
  S   S123      1.0  0.30345  0.71328  0.68083  1.0000
  N   N25       1.0  0.07196  0.58065  0.72089  1.0000
  S   S124      1.0  0.23623  0.70587  0.60700  1.0000
  Fe  Fe66      1.0  0.13230  0.72859  0.57103  1.0000
  C   C284      1.0  0.11605  0.68492  0.88481  1.0000
  C   C285      1.0  0.07506  0.58279  0.74634  1.0000
  C   C286      1.0  0.23877  0.64295  0.62132  1.0000
  H   H463      1.0  0.22235  0.64813  0.62573  1.0000
  C   C287      1.0  0.21231  0.71605  0.60044  1.0000
  Fe  Fe67      1.0  0.08057  0.69069  0.78874  1.0000
  N   N26       1.0  0.25123  0.65541  0.61170  1.0000
  Fe  Fe68      1.0  0.11576  0.70032  0.80063  1.0000
  H   H464      1.0  0.06197  0.55844  0.73902  1.0000
  H   H465      1.0  0.16811  0.71944  0.70326  1.0000
  H   H466      1.0  0.08997  0.57591  0.75084  1.0000
  H   H467      1.0  0.25388  0.67617  0.58003  1.0000
  S   S125      1.0  0.08859  0.69117  0.82698  1.0000
  S   S126      1.0  0.10095  0.72601  0.79572  1.0000
  H   H468      1.0  0.06398  0.72928  0.54614  1.0000
  C   C288      1.0  0.24528  0.66628  0.58727  1.0000
  H   H469      1.0  0.24785  0.65998  0.57077  1.0000
  H   H470      1.0  0.16377  0.62568  0.80050  1.0000
  H   H471      1.0  0.16379  0.66738  0.76281  1.0000
  S   S127      1.0  0.14699  0.69040  0.80922  1.0000
  H   H472      1.0  0.26801  0.73144  0.70928  1.0000
  S   S128      1.0  0.06416  0.49445  0.72350  1.0000
  H   H473      1.0  0.12617  0.70993  0.84533  1.0000
  N   N27       1.0  0.11924  0.70018  0.88765  1.0000
  C   C289      1.0  0.01293  0.50144  0.62060  1.0000
  H   H474      1.0  0.17235  0.71065  0.57923  1.0000
  C   C290      1.0  0.17506  0.73262  0.58671  1.0000
  Fe  Fe69      1.0  0.03904  0.49210  0.70570  1.0000
  H   H475      1.0  0.28795  0.73742  0.76454  1.0000
  H   H476      1.0  0.06500  0.68970  0.49873  1.0000
  H   H477      1.0  0.01980  0.71623  0.83762  1.0000
  H   H478      1.0  0.00762  0.73658  0.86535  1.0000
  C   C291      1.0  0.31228  0.73061  0.68029  1.0000
  C   C292      1.0  0.05822  0.73334  0.92149  1.0000
  C   C293      1.0  0.00268  0.70681  0.88936  1.0000
  C   C294      1.0  0.20031  0.70843  0.59203  1.0000
  H   H479      1.0  0.10015  0.68572  0.88314  1.0000
  C   C295      1.0  0.15334  0.73154  0.65744  1.0000
  H   H480      1.0  0.24444  0.71967  0.76415  1.0000
  H   H481      1.0  0.15296  0.68840  0.50932  1.0000
  C   C296      1.0  0.06972  0.70058  0.48684  1.0000
  H   H482      1.0  0.16496  0.72068  0.65498  1.0000
  N   N28       1.0  0.26278  0.73757  0.74743  1.0000
  H   H483      1.0  0.05219  0.73018  0.94269  1.0000
  H   H484      1.0  0.12646  0.70617  0.48501  1.0000
  H   H485      1.0  0.15933  0.66775  0.50907  1.0000
  N   N29       1.0  0.13540  0.68092  0.48825  1.0000
  C   C297      1.0  0.15681  0.73073  0.70217  1.0000
  H   H486      1.0  0.05459  0.73250  0.57958  1.0000
  H   H487      1.0  0.02229  0.49441  0.60570  1.0000
  H   H488      1.0  0.04001  0.72458  0.56431  1.0000
  H   H489      1.0  0.19032  0.73221  0.66320  1.0000
  H   H490      1.0  0.15959  0.73735  0.71563  1.0000
  S   S129      1.0  0.09424  0.48870  0.66563  1.0000
  C   C298      1.0  0.33110  0.72888  0.68727  1.0000
  C   C299      1.0  0.01260  0.82462  0.21626  1.0000
  H   H491      1.0  0.24268  0.92550  0.13917  1.0000
  S   S130      1.0  0.03520  0.76152  0.05856  1.0000
  Fe  Fe70      1.0  0.08129  0.78674  0.15339  1.0000
  S   S131      1.0  0.08061  0.81109  0.12684  1.0000
  S   S132      1.0  0.08924  0.76426  0.13763  1.0000
  Fe  Fe71      1.0  0.06840  0.79975  0.20434  1.0000
  S   S133      1.0  0.06631  0.82498  0.18174  1.0000
  S   S134      1.0  0.05779  0.79631  0.24888  1.0000
  H   H492      1.0  0.18726  0.85114  0.13101  1.0000
  Fe  Fe72      1.0  0.09577  0.81611  0.15630  1.0000
  S   S135      1.0  0.12486  0.82585  0.14693  1.0000
  S   S136      1.0  0.05129  0.79281  0.17996  1.0000
  S   S137      1.0  0.09866  0.79107  0.18065  1.0000
  C   C300      1.0  0.30804  0.87829  0.16446  1.0000
  H   H493      1.0  0.02470  0.81798  0.20303  1.0000
  H   H494      1.0  0.21534  0.96614  0.15633  1.0000
  Fe  Fe73      1.0  0.29857  0.89704  0.29445  1.0000
  H   H495      1.0  0.30293  0.86677  0.16892  1.0000
  S   S138      1.0  0.26557  0.90284  0.29236  1.0000
  H   H496      1.0  0.32996  0.97833  0.23619  1.0000
  C   C301      1.0  0.24282  0.96129  0.17161  1.0000
  C   C302      1.0  0.30505  0.97772  0.05801  1.0000
  H   H497      1.0  0.28616  0.96604  0.26494  1.0000
  C   C303      1.0  0.00088  0.79860  0.04650  1.0000
  C   C304      1.0  0.00946  0.80403  0.14570  1.0000
  H   H498      1.0  0.01368  0.80384  0.26348  1.0000
  H   H499      1.0  0.20429  0.88023  0.06987  1.0000
  H   H500      1.0  0.08629  0.73965  0.44446  1.0000
  H   H501      1.0  0.15245  0.87189  0.08371  1.0000
  H   H502      1.0  0.30034  0.90862  0.19613  1.0000
  H   H503      1.0  0.15429  0.85844  0.11513  1.0000
  H   H504      1.0  0.32499  0.96326  0.08401  1.0000
  H   H505      1.0  0.32134  0.87317  0.20970  1.0000
  H   H506      1.0  0.24597  0.97312  0.16321  1.0000
  H   H507      1.0  0.29827  0.86579  0.21764  1.0000
  H   H508      1.0  0.25469  0.96759  0.30038  1.0000
  C   C305      1.0  0.30467  0.87681  0.21162  1.0000
  Fe  Fe74      1.0  0.21597  0.87750  0.20266  1.0000
  S   S139      1.0  0.18662  0.89350  0.21539  1.0000
  S   S140      1.0  0.23770  0.86301  0.22920  1.0000
  Fe  Fe75      1.0  0.21314  0.88774  0.14418  1.0000
  S   S141      1.0  0.18393  0.90451  0.15214  1.0000
  S   S142      1.0  0.22855  0.88734  0.10182  1.0000
  Fe  Fe76      1.0  0.19844  0.91153  0.17968  1.0000
  S   S143      1.0  0.19914  0.93749  0.17399  1.0000
  Fe  Fe77      1.0  0.17520  0.88461  0.18639  1.0000
  S   S144      1.0  0.14377  0.87888  0.19311  1.0000
  S   S145      1.0  0.22830  0.89602  0.16914  1.0000
  S   S146      1.0  0.20384  0.86728  0.17631  1.0000
  H   H509      1.0  0.20084  0.84653  0.09954  1.0000
  C   C306      1.0  0.29514  0.97810  0.03773  1.0000
  C   C307      1.0  0.23414  0.93080  0.19392  1.0000
  C   C308      1.0  0.22101  0.94212  0.17908  1.0000
  H   H510      1.0  0.23075  0.91909  0.20284  1.0000
  Fe  Fe78      1.0  0.29150  0.97506  0.16854  1.0000
  H   H511      1.0  0.16564  0.87748  0.13263  1.0000
  H   H512      1.0  0.28322  0.94436  0.30486  1.0000
  C   C309      1.0  0.09415  0.75434  0.27191  1.0000
  H   H513      1.0  0.18562  0.88735  0.11225  1.0000
  H   H514      1.0  0.26092  0.92617  0.21045  1.0000
  H   H515      1.0  0.24703  0.95101  0.24651  1.0000
  C   C310      1.0  0.23987  0.92964  0.11840  1.0000
  N   N30       1.0  0.26452  0.95063  0.27521  1.0000
  C   C311      1.0  0.16313  0.86270  0.09491  1.0000
  C   C312      1.0  0.26195  0.94858  0.10766  1.0000
  S   S147      1.0  0.02136  0.83156  0.14448  1.0000
  C   C313      1.0  0.30694  0.90176  0.18010  1.0000
  C   C314      1.0  0.25558  0.95010  0.18715  1.0000
  H   H516      1.0  0.02002  0.82814  0.22964  1.0000
  H   H517      1.0  0.26556  0.94491  0.12808  1.0000
  H   H518      1.0  0.27902  0.91780  0.12027  1.0000
  S   S148      1.0  0.32057  0.86091  0.10626  1.0000
  H   H519      1.0  0.19668  0.86615  0.05728  1.0000
  C   C315      1.0  0.29499  0.86765  0.10449  1.0000
  C   C316      1.0  0.28940  0.87801  0.08139  1.0000
  C   C317      1.0  0.26892  0.88365  0.08022  1.0000
  C   C318      1.0  0.25405  0.87936  0.10252  1.0000
  C   C319      1.0  0.25961  0.86918  0.12576  1.0000
  C   C320      1.0  0.28007  0.86311  0.12659  1.0000
  H   H520      1.0  0.30083  0.88145  0.06423  1.0000
  H   H521      1.0  0.26465  0.89155  0.06226  1.0000
  H   H522      1.0  0.24815  0.86579  0.14306  1.0000
  H   H523      1.0  0.28432  0.85506  0.14446  1.0000
  H   H524      1.0  0.27060  0.96923  0.24058  1.0000
  N   N31       1.0  0.18043  0.86909  0.09655  1.0000
  S   S149      1.0  0.31627  0.96733  0.13589  1.0000
  H   H525      1.0  0.28786  0.93048  0.28386  1.0000
  C   C321      1.0  0.27858  0.96003  0.25528  1.0000
  Fe  Fe79      1.0  0.05126  0.81744  0.15509  1.0000
  H   H526      1.0  0.28887  0.92595  0.08588  1.0000
  H   H527      1.0  0.27252  0.91184  0.09398  1.0000
  H   H528      1.0  0.26573  0.93138  0.30973  1.0000
  C   C322      1.0  0.31684  0.96350  0.06900  1.0000
  H   H529      1.0  0.24985  0.93073  0.06565  1.0000
  C   C323      1.0  0.27528  0.92212  0.09998  1.0000
  H   H530      1.0  0.26632  0.94475  0.05749  1.0000
  H   H531      1.0  0.00548  0.78856  0.03602  1.0000
  S   S150      1.0  0.30953  0.93271  0.02941  1.0000
  H   H532      1.0  0.24877  0.95860  0.10808  1.0000
  H   H533      1.0  0.16818  0.85251  0.08478  1.0000
  H   H534      1.0  0.10872  0.74778  0.26409  1.0000
  H   H535      1.0  0.27056  0.87962  0.19372  1.0000
  H   H536      1.0  0.16172  0.89156  0.10221  1.0000
  H   H537      1.0  0.01941  0.79337  0.23707  1.0000
  H   H538      1.0  0.31815  0.91364  0.98990  1.0000
  S   S151      1.0  0.31851  0.87307  0.30092  1.0000
  H   H539      1.0  0.18084  0.88535  0.05832  1.0000
  C   C324      1.0  0.25805  0.89169  0.27473  1.0000
  C   C325      1.0  0.26818  0.87620  0.27346  1.0000
  C   C326      1.0  0.26158  0.86735  0.25991  1.0000
  C   C327      1.0  0.24509  0.87405  0.24714  1.0000
  C   C328      1.0  0.23513  0.88961  0.24811  1.0000
  C   C329      1.0  0.24148  0.89836  0.26209  1.0000
  H   H540      1.0  0.28080  0.87089  0.28345  1.0000
  H   H541      1.0  0.26927  0.85529  0.25931  1.0000
  H   H542      1.0  0.22236  0.89486  0.23839  1.0000
  H   H543      1.0  0.23353  0.91032  0.26303  1.0000
  C   C330      1.0  0.12939  0.83992  0.16199  1.0000
  C   C331      1.0  0.14922  0.83931  0.16463  1.0000
  C   C332      1.0  0.15377  0.85103  0.17452  1.0000
  C   C333      1.0  0.13855  0.86354  0.18167  1.0000
  C   C334      1.0  0.11862  0.86388  0.17979  1.0000
  C   C335      1.0  0.11405  0.85216  0.16991  1.0000
  H   H544      1.0  0.16116  0.82982  0.15872  1.0000
  H   H545      1.0  0.16904  0.85038  0.17668  1.0000
  H   H546      1.0  0.10673  0.87350  0.18537  1.0000
  H   H547      1.0  0.09878  0.85290  0.16760  1.0000
  C   C336      1.0  0.08604  0.76885  0.25654  1.0000
  C   C337      1.0  0.06750  0.77759  0.26692  1.0000
  C   C338      1.0  0.05682  0.77158  0.29236  1.0000
  C   C339      1.0  0.25123  0.93484  0.19819  1.0000
  H   H548      1.0  0.09436  0.77336  0.23693  1.0000
  H   H549      1.0  0.04248  0.77830  0.30049  1.0000
  H   H550      1.0  0.20777  0.86086  0.11235  1.0000
  C   C340      1.0  0.05073  0.76251  0.07976  1.0000
  C   C341      1.0  0.04536  0.77472  0.09389  1.0000
  C   C342      1.0  0.05740  0.77550  0.11115  1.0000
  C   C343      1.0  0.07464  0.76390  0.11488  1.0000
  C   C344      1.0  0.08006  0.75169  0.10075  1.0000
  C   C345      1.0  0.06823  0.75106  0.08308  1.0000
  H   H551      1.0  0.03208  0.78376  0.09129  1.0000
  H   H552      1.0  0.05343  0.78510  0.12154  1.0000
  H   H553      1.0  0.24466  0.93527  0.27585  1.0000
  H   H554      1.0  0.32364  0.89934  0.17814  1.0000
  N   N32       1.0  0.10723  0.81835  0.24485  1.0000
  C   C346      1.0  0.11358  0.80736  0.22638  1.0000
  C   C347      1.0  0.08906  0.82997  0.23817  1.0000
  C   C348      1.0  0.12376  0.82680  0.24214  1.0000
  C   C349      1.0  0.10244  0.80923  0.27265  1.0000
  H   H555      1.0  0.12739  0.79849  0.23053  1.0000
  H   H556      1.0  0.11702  0.81380  0.20513  1.0000
  H   H557      1.0  0.10148  0.80071  0.22823  1.0000
  H   H558      1.0  0.08400  0.83865  0.25140  1.0000
  H   H559      1.0  0.09202  0.83681  0.21714  1.0000
  H   H560      1.0  0.07623  0.82399  0.24030  1.0000
  H   H561      1.0  0.11948  0.83532  0.25563  1.0000
  H   H562      1.0  0.12771  0.83375  0.22135  1.0000
  H   H563      1.0  0.13776  0.81842  0.24692  1.0000
  H   H564      1.0  0.09755  0.81712  0.28721  1.0000
  H   H565      1.0  0.11577  0.80025  0.27830  1.0000
  H   H566      1.0  0.08999  0.80271  0.27524  1.0000
  C   C350      1.0  0.06461  0.75680  0.30735  1.0000
  H   H567      1.0  0.29901  0.88317  0.22836  1.0000
  C   C351      1.0  0.31848  0.94965  0.06005  1.0000
  N   N33       1.0  0.25757  0.93524  0.09958  1.0000
  C   C352      1.0  0.29663  0.96425  0.02888  1.0000
  H   H568      1.0  0.27506  0.95328  0.09363  1.0000
  H   H569      1.0  0.02503  0.79838  0.14537  1.0000
  H   H570      1.0  0.23996  0.95050  0.07124  1.0000
  C   C353      1.0  0.22546  0.95734  0.16782  1.0000
  C   C354      1.0  0.30827  0.95003  0.04008  1.0000
  C   C355      1.0  0.25321  0.94056  0.07228  1.0000
  H   H571      1.0  0.22618  0.93924  0.11892  1.0000
  C   C356      1.0  0.25540  0.94246  0.26146  1.0000
  N   N34       1.0  0.29915  0.88688  0.18638  1.0000
  H   H572      1.0  0.05629  0.75218  0.32696  1.0000
  H   H573      1.0  0.32551  0.93941  0.23228  1.0000
  H   H574      1.0  0.00591  0.83558  0.20295  1.0000
  C   C357      1.0  0.08343  0.74830  0.29730  1.0000
  H   H575      1.0  0.30341  0.90956  0.16094  1.0000
  S   S152      1.0  0.31086  0.90602  0.32222  1.0000
  H   H576      1.0  0.23954  0.97028  0.27579  1.0000
  H   H577      1.0  0.23607  0.91958  0.11292  1.0000
  C   C358      1.0  0.19469  0.85633  0.11045  1.0000
  H   H578      1.0  0.28876  0.96460  0.01339  1.0000
  H   H579      1.0  0.26717  0.93418  0.25055  1.0000
  C   C359      1.0  0.17300  0.88192  0.11155  1.0000
  S   S153      1.0  0.27631  0.95498  0.19477  1.0000
  C   C360      1.0  0.19099  0.87548  0.06926  1.0000
  C   C361      1.0  0.27580  0.93875  0.29433  1.0000
  C   C362      1.0  0.27690  0.89059  0.18949  1.0000
  C   C363      1.0  0.24836  0.96123  0.28975  1.0000
  H   H580      1.0  0.29066  0.95234  0.24359  1.0000
  H   H581      1.0  0.23755  0.95442  0.30493  1.0000
  Fe  Fe80      1.0  0.33191  0.91286  0.04797  1.0000
  H   H582      1.0  0.07267  0.74169  0.07207  1.0000
  S   S154      1.0  0.31899  0.90715  0.25706  1.0000
  H   H583      1.0  0.26966  0.89665  0.20639  1.0000
  H   H584      1.0  0.27208  0.89844  0.17110  1.0000
  H   H585      1.0  0.01374  0.79835  0.05576  1.0000
  C   C364      1.0  0.00377  0.82038  0.14371  1.0000
  H   H586      1.0  0.09363  0.74288  0.10317  1.0000
  S   S155      1.0  0.32787  0.90278  0.09191  1.0000
  H   H587      1.0  0.32755  0.93869  0.06873  1.0000
  C   C365      1.0  0.00691  0.80065  0.24902  1.0000
  Fe  Fe81      1.0  0.04961  0.74382  0.03224  1.0000
  S   S156      1.0  0.03855  0.74385  0.99556  1.0000
  H   H588      1.0  0.32486  0.87562  0.16103  1.0000
  H   H589      1.0  0.30372  0.88526  0.14522  1.0000
  S   S157      1.0  0.08254  0.73914  0.01324  1.0000
  S   S158      1.0  0.31140  0.98530  0.18463  1.0000
  H   H590      1.0  0.32350  0.98438  0.26770  1.0000
  H   H591      1.0  0.00040  0.80277  0.20029  1.0000
  H   H592      1.0  0.99958  0.78212  0.15088  1.0000
  H   H593      1.0  0.99913  0.80981  0.03107  1.0000
  H   H594      1.0  0.02496  0.74153  0.52587  1.0000
  H   H595      1.0  0.18342  0.74956  0.67705  1.0000
  H   H596      1.0  0.31976  0.93272  0.54865  1.0000
  H   H597      1.0  0.01377  0.76652  0.56092  1.0000
  C   C366      1.0  0.32789  0.93862  0.95130  1.0000
  H   H598      1.0  0.29879  0.77088  0.67122  1.0000
  C   C367      1.0  0.24893  0.74939  0.76191  1.0000
  H   H599      1.0  0.32042  0.94594  0.51632  1.0000
  H   H600      1.0  0.10695  0.74601  0.66147  1.0000
  C   C368      1.0  0.30788  0.75915  0.67578  1.0000
  H   H601      1.0  0.02501  0.75381  0.58819  1.0000
  H   H602      1.0  0.14741  0.76257  0.68677  1.0000
  C   C369      1.0  0.07422  0.74100  0.86653  1.0000
  H   H603      1.0  0.26019  0.75230  0.70851  1.0000
  H   H604      1.0  0.02751  0.76202  0.51458  1.0000
  S   S159      1.0  0.15169  0.74320  0.57873  1.0000
  H   H605      1.0  0.05834  0.76052  0.56402  1.0000
  H   H606      1.0  0.06842  0.75728  0.53071  1.0000
  H   H607      1.0  0.18052  0.75101  0.64356  1.0000
  C   C370      1.0  0.32655  0.75739  0.68320  1.0000
  C   C371      1.0  0.32264  0.93321  0.52676  1.0000
  C   C372      1.0  0.05412  0.76057  0.54496  1.0000
  S   S160      1.0  0.08491  0.74668  0.93505  1.0000
  H   H608      1.0  0.31089  0.92793  0.52301  1.0000
  H   H609      1.0  0.09361  0.75283  0.87760  1.0000
  H   H610      1.0  0.31880  0.94198  0.97027  1.0000
  C   C373      1.0  0.07387  0.74197  0.91230  1.0000
  C   C374      1.0  0.08164  0.74601  0.88477  1.0000
  C   C375      1.0  0.03513  0.74995  0.52349  1.0000
  H   H611      1.0  0.31712  0.93933  0.93837  1.0000
  H   H612      1.0  0.14408  0.76291  0.65386  1.0000
  H   H613      1.0  0.04723  0.77296  0.53647  1.0000
  C   C376      1.0  0.14385  0.75554  0.67451  1.0000
  H   H614      1.0  0.31635  0.91082  0.95816  1.0000
  C   C377      1.0  0.17903  0.74341  0.66409  1.0000
  H   H615      1.0  0.18229  0.75273  0.59527  1.0000
  H   H616      1.0  0.28673  0.75104  0.73285  1.0000
  H   H617      1.0  0.12810  0.75366  0.68310  1.0000
  H   H618      1.0  0.15242  0.73899  0.63707  1.0000
  H   H619      1.0  0.08037  0.74404  0.84531  1.0000
  C   C378      1.0  0.32717  0.91093  0.97048  1.0000
  C   C379      1.0  0.30089  0.74589  0.67400  1.0000
  S   S161      1.0  0.10013  0.73942  0.56729  1.0000
  C   C380      1.0  0.18715  0.74028  0.59485  1.0000
  H   H620      1.0  0.28670  0.74751  0.66778  1.0000
  H   H621      1.0  0.25192  0.74766  0.78235  1.0000
  N   N35       1.0  0.04021  0.74952  0.54930  1.0000
  H   H622      1.0  0.25062  0.76170  0.75107  1.0000
  H   H623      1.0  0.04898  0.74658  0.50859  1.0000
  H   H624      1.0  0.23283  0.74853  0.76409  1.0000
  H   H625      1.0  0.16673  0.74093  0.75989  1.0000
  C   C381      1.0  0.02158  0.75424  0.56843  1.0000
  H   H626      1.0  0.01072  0.74617  0.57209  1.0000
  N   N36       1.0  0.15826  0.74029  0.67452  1.0000
  H   H627      1.0  0.24219  0.73939  0.72187  1.0000
  C   C382      1.0  0.25809  0.74032  0.72060  1.0000
  S   S162      1.0  0.09758  0.73826  0.71896  1.0000
  C   C383      1.0  0.09568  0.73861  0.66769  1.0000
  H   H628      1.0  0.21496  0.73798  0.60809  1.0000
  C   C384      1.0  0.28394  0.73914  0.74470  1.0000
  C   C385      1.0  0.48401  0.23395  0.36470  1.0000
  Fe  Fe82      1.0  0.51679  0.13712  0.19252  1.0000
  S   S163      1.0  0.52238  0.12084  0.23108  1.0000
  S   S164      1.0  0.48652  0.14353  0.18071  1.0000
  Fe  Fe83      1.0  0.55804  0.14535  0.17802  1.0000
  S   S165      1.0  0.56780  0.12988  0.21540  1.0000
  S   S166      1.0  0.57740  0.16110  0.14768  1.0000
  Fe  Fe84      1.0  0.55292  0.11220  0.20790  1.0000
  Fe  Fe85      1.0  0.53682  0.13947  0.23618  1.0000
  S   S167      1.0  0.52885  0.14380  0.27789  1.0000
  S   S168      1.0  0.54594  0.12670  0.16826  1.0000
  S   S169      1.0  0.52837  0.15675  0.19967  1.0000
  Fe  Fe86      1.0  0.41571  0.09271  0.17436  1.0000
  S   S170      1.0  0.40268  0.08521  0.14585  1.0000
  S   S171      1.0  0.44910  0.08675  0.17532  1.0000
  Fe  Fe87      1.0  0.37466  0.10571  0.20458  1.0000
  S   S172      1.0  0.42945  0.20845  0.00731  1.0000
  S   S173      1.0  0.35953  0.11718  0.23986  1.0000
  Fe  Fe88      1.0  0.38007  0.07619  0.18177  1.0000
  H   H629      1.0  0.35620  0.17088  0.45432  1.0000
  Fe  Fe89      1.0  0.38120  0.10852  0.14486  1.0000
  S   S174      1.0  0.37116  0.12305  0.10696  1.0000
  S   S175      1.0  0.39496  0.08176  0.21066  1.0000
  S   S176      1.0  0.39624  0.11704  0.16992  1.0000
  S   S177      1.0  0.62480  0.00870  0.18755  1.0000
  S   S178      1.0  0.57456  0.21092  0.35982  1.0000
  C   C386      1.0  0.59355  0.21317  0.24292  1.0000
  Fe  Fe90      1.0  0.52346  0.19607  0.38461  1.0000
  S   S179      1.0  0.55327  0.17934  0.38466  1.0000
  S   S180      1.0  0.49322  0.18845  0.39910  1.0000
  Fe  Fe91      1.0  0.56179  0.19746  0.40067  1.0000
  S   S181      1.0  0.57739  0.18840  0.43617  1.0000
  Fe  Fe92      1.0  0.56315  0.19430  0.34408  1.0000
  S   S182      1.0  0.57863  0.18623  0.30568  1.0000
  S   S183      1.0  0.53100  0.21310  0.40364  1.0000
  S   S184      1.0  0.53273  0.20962  0.34288  1.0000
  Fe  Fe93      1.0  0.37658  0.20369  0.30803  1.0000
  S   S185      1.0  0.37111  0.17900  0.32756  1.0000
  Fe  Fe94      1.0  0.42053  0.19524  0.31247  1.0000
  S   S186      1.0  0.41885  0.17004  0.33286  1.0000
  S   S187      1.0  0.45019  0.20328  0.30149  1.0000
  Fe  Fe95      1.0  0.40112  0.17106  0.30198  1.0000
  S   S188      1.0  0.41261  0.15285  0.27617  1.0000
  Fe  Fe96      1.0  0.38930  0.18034  0.35654  1.0000
  H   H630      1.0  0.57646  0.05300  0.22145  1.0000
  S   S189      1.0  0.40484  0.19575  0.28002  1.0000
  S   S190      1.0  0.39265  0.20556  0.33865  1.0000
  H   H631      1.0  0.37060  0.02750  0.16056  1.0000
  C   C387      1.0  0.35893  0.99495  0.21254  1.0000
  H   H632      1.0  0.40480  0.08899  0.28454  1.0000
  S   S191      1.0  0.60900  0.00963  0.13282  1.0000
  Fe  Fe97      1.0  0.39739  0.22083  0.00864  1.0000
  S   S192      1.0  0.56767  0.23273  0.01722  1.0000
  H   H633      1.0  0.36145  0.22419  0.37785  1.0000
  H   H634      1.0  0.49765  0.23121  0.08557  1.0000
  S   S193      1.0  0.35766  0.09913  0.17909  1.0000
  S   S194      1.0  0.43330  0.16523  0.03242  1.0000
  H   H635      1.0  0.39162  0.20166  0.39443  1.0000
  C   C388      1.0  0.36587  0.13404  0.27286  1.0000
  S   S195      1.0  0.52682  0.23175  0.99751  1.0000
  H   H636      1.0  0.35173  0.19888  0.38072  1.0000
  C   C389      1.0  0.33867  0.02952  0.16303  1.0000
  H   H637      1.0  0.33825  0.06258  0.12638  1.0000
  H   H638      1.0  0.41068  0.16261  0.11262  1.0000
  N   N37       1.0  0.58211  0.22947  0.24325  1.0000
  C   C390      1.0  0.48142  0.18302  0.01342  1.0000
  H   H639      1.0  0.38375  0.22046  0.42458  1.0000
  H   H640      1.0  0.42528  0.18755  0.46875  1.0000
  C   C391      1.0  0.34675  0.09617  0.08006  1.0000
  H   H641      1.0  0.55829  0.22620  0.22702  1.0000
  Fe  Fe98      1.0  0.62730  0.02300  0.14542  1.0000
  H   H642      1.0  0.58759  0.08253  0.26815  1.0000
  C   C392      1.0  0.48154  0.18997  0.37242  1.0000
  C   C393      1.0  0.46052  0.19143  0.37683  1.0000
  C   C394      1.0  0.45084  0.19475  0.35505  1.0000
  C   C395      1.0  0.46219  0.19691  0.32891  1.0000
  C   C396      1.0  0.48323  0.19480  0.32460  1.0000
  C   C397      1.0  0.49289  0.19106  0.34638  1.0000
  H   H643      1.0  0.45169  0.19047  0.39698  1.0000
  H   H644      1.0  0.43455  0.19626  0.35846  1.0000
  H   H645      1.0  0.49211  0.19609  0.30444  1.0000
  H   H646      1.0  0.50914  0.18902  0.34299  1.0000
  C   C398      1.0  0.35563  0.03426  0.16627  1.0000
  C   C399      1.0  0.38894  0.13408  0.08552  1.0000
  C   C400      1.0  0.40798  0.13239  0.09144  1.0000
  C   C401      1.0  0.42179  0.14164  0.07450  1.0000
  C   C402      1.0  0.41652  0.15273  0.05183  1.0000
  C   C403      1.0  0.39760  0.15424  0.04568  1.0000
  C   C404      1.0  0.38384  0.14490  0.06250  1.0000
  H   H647      1.0  0.41211  0.12393  0.10900  1.0000
  H   H648      1.0  0.43647  0.14036  0.07922  1.0000
  H   H649      1.0  0.39353  0.16263  0.02802  1.0000
  H   H650      1.0  0.36916  0.14618  0.05779  1.0000
  C   C405      1.0  0.37224  0.12972  0.24792  1.0000
  C   C406      1.0  0.38957  0.13445  0.23071  1.0000
  C   C407      1.0  0.40102  0.14263  0.23889  1.0000
  C   C408      1.0  0.39530  0.14615  0.26438  1.0000
  C   C409      1.0  0.37737  0.14225  0.28111  1.0000
  C   C410      1.0  0.37426  0.18508  0.42218  1.0000
  H   H651      1.0  0.39453  0.13141  0.21139  1.0000
  H   H652      1.0  0.41475  0.14578  0.22573  1.0000
  C   C411      1.0  0.59024  0.08456  0.17360  1.0000
  H   H653      1.0  0.58782  0.09737  0.16960  1.0000
  H   H654      1.0  0.61054  0.08286  0.13576  1.0000
  C   C412      1.0  0.54252  0.15603  0.28475  1.0000
  C   C413      1.0  0.53688  0.16042  0.30955  1.0000
  C   C414      1.0  0.54790  0.16973  0.31594  1.0000
  C   C415      1.0  0.56471  0.17463  0.29764  1.0000
  C   C416      1.0  0.57037  0.17024  0.27278  1.0000
  C   C417      1.0  0.55921  0.16103  0.26625  1.0000
  H   H655      1.0  0.52397  0.15661  0.32395  1.0000
  H   H656      1.0  0.54351  0.17296  0.33521  1.0000
  H   H657      1.0  0.58341  0.17393  0.25857  1.0000
  H   H658      1.0  0.56365  0.15772  0.24702  1.0000
  C   C418      1.0  0.56318  0.17374  0.12448  1.0000
  C   C419      1.0  0.54387  0.17144  0.12506  1.0000
  C   C420      1.0  0.53238  0.18150  0.10673  1.0000
  C   C421      1.0  0.54012  0.19394  0.08775  1.0000
  C   C422      1.0  0.55937  0.19639  0.08716  1.0000
  C   C423      1.0  0.57095  0.18622  0.10550  1.0000
  H   H659      1.0  0.53781  0.16180  0.13950  1.0000
  H   H660      1.0  0.51747  0.17960  0.10730  1.0000
  H   H661      1.0  0.56537  0.20603  0.07258  1.0000
  H   H662      1.0  0.58588  0.18803  0.10504  1.0000
  C   C424      1.0  0.47661  0.12763  0.17880  1.0000
  C   C425      1.0  0.45833  0.13076  0.17007  1.0000
  C   C426      1.0  0.44997  0.11827  0.16854  1.0000
  C   C427      1.0  0.45975  0.10259  0.17600  1.0000
  C   C428      1.0  0.47811  0.09942  0.18469  1.0000
  C   C429      1.0  0.48657  0.11195  0.18610  1.0000
  H   H663      1.0  0.45066  0.14289  0.16431  1.0000
  H   H664      1.0  0.43613  0.12084  0.16120  1.0000
  H   H665      1.0  0.48559  0.08727  0.19066  1.0000
  H   H666      1.0  0.50063  0.10953  0.19301  1.0000
  H   H667      1.0  0.34687  0.06488  0.09095  1.0000
  H   H668      1.0  0.56614  0.09591  0.33240  1.0000
  C   C430      1.0  0.33813  0.07129  0.10694  1.0000
  N   N38       1.0  0.34358  0.99752  0.23675  1.0000
  C   C431      1.0  0.57440  0.21797  0.44607  1.0000
  C   C432      1.0  0.57703  0.20157  0.45608  1.0000
  H   H669      1.0  0.52026  0.17809  0.01684  1.0000
  S   S196      1.0  0.56363  0.08601  0.22160  1.0000
  Fe  Fe99      1.0  0.54299  0.22519  0.36164  1.0000
  H   H670      1.0  0.42080  0.17581  0.08297  1.0000
  H   H671      1.0  0.47417  0.20637  0.03984  1.0000
  H   H672      1.0  0.34066  0.01912  0.15507  1.0000
  C   C433      1.0  0.38047  0.18027  0.08846  1.0000
  H   H673      1.0  0.37863  0.16773  0.09697  1.0000
  H   H674      1.0  0.36529  0.00579  0.20214  1.0000
  H   H675      1.0  0.35243  0.13049  0.28626  1.0000
  N   N39       1.0  0.34679  0.08503  0.10634  1.0000
  H   H676      1.0  0.58809  0.10196  0.24793  1.0000
  C   C434      1.0  0.36234  0.18166  0.44783  1.0000
  H   H677      1.0  0.49064  0.17210  0.00688  1.0000
  H   H678      1.0  0.33461  0.08531  0.14786  1.0000
  H   H679      1.0  0.50520  0.18608  0.04498  1.0000
  H   H680      1.0  0.50922  0.21877  0.15402  1.0000
  H   H681      1.0  0.38674  0.22727  0.25422  1.0000
  H   H682      1.0  0.57507  0.07889  0.31740  1.0000
  N   N40       1.0  0.49368  0.19534  0.00850  1.0000
  H   H683      1.0  0.40469  0.18396  0.45782  1.0000
  C   C435      1.0  0.36587  0.20617  0.45684  1.0000
  S   S197      1.0  0.62125  0.04981  0.13434  1.0000
  H   H684      1.0  0.47411  0.22767  0.10699  1.0000
  C   C436      1.0  0.65104  0.17912  0.46309  1.0000
  N   N41       1.0  0.53902  0.08067  0.14427  1.0000
  C   C437      1.0  0.52934  0.09628  0.13021  1.0000
  C   C438      1.0  0.56908  0.23435  0.22308  1.0000
  C   C439      1.0  0.53855  0.08129  0.17210  1.0000
  C   C440      1.0  0.56025  0.07672  0.13040  1.0000
  H   H685      1.0  0.53717  0.10587  0.13005  1.0000
  C   C441      1.0  0.58071  0.19532  0.48210  1.0000
  S   S198      1.0  0.38643  0.19874  0.01021  1.0000
  H   H686      1.0  0.52960  0.09631  0.10903  1.0000
  H   H687      1.0  0.59296  0.11731  0.29128  1.0000
  H   H688      1.0  0.52809  0.06751  0.12375  1.0000
  H   H689      1.0  0.54613  0.06982  0.18319  1.0000
  H   H690      1.0  0.52284  0.08394  0.18344  1.0000
  H   H691      1.0  0.54645  0.09064  0.17271  1.0000
  H   H692      1.0  0.56131  0.07589  0.10942  1.0000
  H   H693      1.0  0.56818  0.06514  0.14076  1.0000
  H   H694      1.0  0.56898  0.08585  0.12965  1.0000
  H   H695      1.0  0.35891  0.01325  0.24560  1.0000
  H   H696      1.0  0.36504  0.19217  0.13264  1.0000
  C   C442      1.0  0.52795  0.06838  0.14445  1.0000
  C   C443      1.0  0.48094  0.20941  0.01815  1.0000
  H   H697      1.0  0.62080  0.20391  0.46414  1.0000
  H   H698      1.0  0.60338  0.21236  0.22299  1.0000
  H   H699      1.0  0.60332  0.20904  0.25819  1.0000
  H   H700      1.0  0.57890  0.22644  0.28583  1.0000
  N   N42       1.0  0.49345  0.23554  0.12491  1.0000
  N   N43       1.0  0.47181  0.16947  0.25651  1.0000
  C   C444      1.0  0.46670  0.16209  0.28527  1.0000
  C   C445      1.0  0.45375  0.18022  0.24769  1.0000
  C   C446      1.0  0.47881  0.15692  0.24097  1.0000
  C   C447      1.0  0.48795  0.17860  0.25205  1.0000
  H   H701      1.0  0.48005  0.15383  0.29241  1.0000
  H   H702      1.0  0.45432  0.15532  0.28940  1.0000
  H   H703      1.0  0.46158  0.17117  0.29771  1.0000
  H   H704      1.0  0.45698  0.18561  0.22592  1.0000
  H   H705      1.0  0.44106  0.17383  0.25138  1.0000
  H   H706      1.0  0.44835  0.19008  0.25852  1.0000
  H   H707      1.0  0.48292  0.16203  0.21917  1.0000
  H   H708      1.0  0.46684  0.14997  0.24359  1.0000
  H   H709      1.0  0.49234  0.14852  0.24724  1.0000
  H   H710      1.0  0.49241  0.18412  0.23051  1.0000
  H   H711      1.0  0.50174  0.17093  0.25877  1.0000
  H   H712      1.0  0.48300  0.18823  0.26344  1.0000
  C   C448      1.0  0.60307  0.07634  0.15446  1.0000
  H   H713      1.0  0.46845  0.21482  0.00702  1.0000
  S   S199      1.0  0.36136  0.21937  0.47828  1.0000
  N   N44       1.0  0.43219  0.09653  0.26075  1.0000
  C   C449      1.0  0.43833  0.11092  0.24212  1.0000
  C   C450      1.0  0.44202  0.09265  0.28408  1.0000
  C   C451      1.0  0.43841  0.08320  0.24687  1.0000
  H   H714      1.0  0.45491  0.10907  0.23425  1.0000
  H   H715      1.0  0.43438  0.12113  0.25213  1.0000
  H   H716      1.0  0.43078  0.11446  0.22457  1.0000
  H   H717      1.0  0.45879  0.09051  0.27783  1.0000
  H   H718      1.0  0.43779  0.08182  0.29857  1.0000
  H   H719      1.0  0.43747  0.10253  0.29495  1.0000
  H   H720      1.0  0.43084  0.08574  0.22954  1.0000
  H   H721      1.0  0.43433  0.07205  0.26035  1.0000
  H   H722      1.0  0.45499  0.08096  0.23882  1.0000
  H   H723      1.0  0.60540  0.09365  0.27038  1.0000
  C   C452      1.0  0.58070  0.07614  0.19784  1.0000
  C   C453      1.0  0.51066  0.18901  0.02289  1.0000
  C   C454      1.0  0.58962  0.09458  0.26816  1.0000
  C   C455      1.0  0.41186  0.17526  0.10375  1.0000
  H   H724      1.0  0.36513  0.18774  0.08812  1.0000
  S   S200      1.0  0.35167  0.22411  0.29750  1.0000
  C   C456      1.0  0.35817  0.19215  0.46512  1.0000
  H   H725      1.0  0.51182  0.07103  0.15467  1.0000
  H   H726      1.0  0.59841  0.03866  0.18727  1.0000
  C   C457      1.0  0.38197  0.19910  0.41386  1.0000
  C   C458      1.0  0.40999  0.09941  0.26986  1.0000
  N   N45       1.0  0.39166  0.18555  0.10392  1.0000
  H   H727      1.0  0.51323  0.09958  0.14001  1.0000
  C   C459      1.0  0.35337  0.04742  0.17740  1.0000
  H   H728      1.0  0.42073  0.17883  0.11532  1.0000
  C   C460      1.0  0.37762  0.20969  0.43105  1.0000
  H   H729      1.0  0.40459  0.10982  0.27949  1.0000
  H   H730      1.0  0.55127  0.09039  0.28596  1.0000
  S   S201      1.0  0.52490  0.20640  0.06572  1.0000
  Fe  Fe100     1.0  0.53679  0.22699  0.03640  1.0000
  C   C461      1.0  0.42767  0.23541  0.07521  1.0000
  C   C462      1.0  0.38036  0.18453  0.13181  1.0000
  C   C463      1.0  0.39395  0.20212  0.09153  1.0000
  H   H731      1.0  0.64384  0.21115  0.45736  1.0000
  H   H732      1.0  0.34051  0.10380  0.12756  1.0000
  H   H733      1.0  0.37739  0.07287  0.09539  1.0000
  H   H734      1.0  0.53485  0.05647  0.15507  1.0000
  H   H735      1.0  0.35600  0.09045  0.06345  1.0000
  C   C464      1.0  0.42582  0.15611  0.47858  1.0000
  H   H736      1.0  0.35318  0.10669  0.07909  1.0000
  C   C465      1.0  0.41041  0.18371  0.47587  1.0000
  C   C466      1.0  0.58394  0.05956  0.20282  1.0000
  S   S202      1.0  0.37496  0.05155  0.18413  1.0000
  H   H737      1.0  0.40211  0.10185  0.25281  1.0000
  C   C467      1.0  0.57624  0.22797  0.46170  1.0000
  H   H738      1.0  0.56634  0.12299  0.30403  1.0000
  H   H739      1.0  0.38857  0.18104  0.06729  1.0000
  C   C468      1.0  0.57759  0.11746  0.28840  1.0000
  H   H740      1.0  0.57566  0.12556  0.26882  1.0000
  Fe  Fe101     1.0  0.63859  0.99370  0.12161  1.0000
  H   H741      1.0  0.35359  0.23168  0.34625  1.0000
  C   C469      1.0  0.59645  0.05140  0.18351  1.0000
  H   H742      1.0  0.38839  0.18843  0.14405  1.0000
  C   C470      1.0  0.57725  0.09111  0.31588  1.0000
  H   H743      1.0  0.51597  0.21450  0.12123  1.0000
  C   C471      1.0  0.33454  0.09323  0.12770  1.0000
  H   H744      1.0  0.37288  0.14486  0.30087  1.0000
  H   H745      1.0  0.60466  0.99405  0.09308  1.0000
  S   S203      1.0  0.38236  0.23671  0.03808  1.0000
  H   H746      1.0  0.49226  0.21096  0.14224  1.0000
  C   C472      1.0  0.48545  0.23552  0.10146  1.0000
  H   H747      1.0  0.57823  0.23443  0.20244  1.0000
  C   C473      1.0  0.63341  0.20439  0.47327  1.0000
  H   H748      1.0  0.55158  0.10994  0.26598  1.0000
  H   H749      1.0  0.59266  0.09017  0.31948  1.0000
  Fe  Fe102     1.0  0.60880  0.99416  0.17379  1.0000
  H   H750      1.0  0.49862  0.23635  0.36621  1.0000
  N   N46       1.0  0.57464  0.10136  0.28949  1.0000
  C   C474      1.0  0.55402  0.10226  0.28563  1.0000
  H   H751      1.0  0.40231  0.20662  0.10257  1.0000
  S   S204      1.0  0.37909  0.17163  0.40110  1.0000
  C   C475      1.0  0.60614  0.05974  0.15932  1.0000
  H   H752      1.0  0.34266  0.20625  0.35007  1.0000
  H   H753      1.0  0.37834  0.17214  0.14168  1.0000
  H   H754      1.0  0.47460  0.17953  0.03502  1.0000
  H   H755      1.0  0.42528  0.22843  0.04033  1.0000
  H   H756      1.0  0.40236  0.20329  0.07041  1.0000
  C   C476      1.0  0.34825  0.23034  0.36830  1.0000
  H   H757      1.0  0.57153  0.22289  0.42601  1.0000
  H   H758      1.0  0.37492  0.08962  0.10956  1.0000
  Fe  Fe103     1.0  0.41913  0.18697  0.00555  1.0000
  H   H759      1.0  0.49533  0.22489  0.31772  1.0000
  H   H760      1.0  0.54225  0.10744  0.30121  1.0000
  S   S205      1.0  0.65726  0.00830  0.13043  1.0000
  H   H761      1.0  0.48981  0.21879  0.01534  1.0000
  C   C477      1.0  0.36778  0.07948  0.11069  1.0000
  H   H762      1.0  0.65895  0.16689  0.47075  1.0000
  H   H763      1.0  0.58321  0.20457  0.24768  1.0000
  H   H764      1.0  0.46879  0.18721  0.00226  1.0000
  H   H765      1.0  0.45928  0.22653  0.34018  1.0000
  H   H766      1.0  0.37901  0.21025  0.09106  1.0000
  H   H767      1.0  0.66171  0.18491  0.44600  1.0000
  C   C478      1.0  0.35289  0.00212  0.25521  1.0000
  H   H768      1.0  0.48600  0.22094  0.36681  1.0000
  H   H769      1.0  0.36573  0.99273  0.26135  1.0000
  H   H770      1.0  0.52065  0.19779  0.01877  1.0000
  H   H771      1.0  0.63817  0.17804  0.45497  1.0000
  H   H772      1.0  0.34174  0.00418  0.27371  1.0000
  H   H773      1.0  0.44375  0.23077  0.07304  1.0000
  C   C479      1.0  0.50312  0.21923  0.13618  1.0000
  H   H774      1.0  0.36840  0.07145  0.13072  1.0000
  H   H775      1.0  0.55879  0.22150  0.27596  1.0000
  C   C480      1.0  0.41717  0.23395  0.05671  1.0000
  H   H776      1.0  0.35248  0.99161  0.19790  1.0000
  Fe  Fe104     1.0  0.65305  0.99270  0.17163  1.0000
  H   H777      1.0  0.60616  0.23750  0.25185  1.0000
  C   C481      1.0  0.56947  0.22991  0.27019  1.0000
  H   H778      1.0  0.42000  0.15582  0.46087  1.0000
  H   H779      1.0  0.33766  0.21310  0.41804  1.0000
  H   H780      1.0  0.46488  0.23391  0.15197  1.0000
  C   C482      1.0  0.33832  0.20552  0.37202  1.0000
  H   H781      1.0  0.44119  0.15909  0.47103  1.0000
  H   H782      1.0  0.47255  0.23714  0.38224  1.0000
  C   C483      1.0  0.33397  0.05611  0.18467  1.0000
  C   C484      1.0  0.49338  0.23783  0.31653  1.0000
  H   H783      1.0  0.63006  0.17823  0.86889  1.0000
  Fe  Fe105     1.0  0.62559  0.19610  0.57085  1.0000
  S   S206      1.0  0.59309  0.19972  0.56808  1.0000
  C   C485      1.0  0.46850  0.19315  0.86451  1.0000
  Fe  Fe106     1.0  0.59792  0.22348  0.54273  1.0000
  Fe  Fe107     1.0  0.58660  0.21155  0.60262  1.0000
  S   S207      1.0  0.56023  0.20784  0.63645  1.0000
  S   S208      1.0  0.54214  0.20566  0.79318  1.0000
  S   S209      1.0  0.53453  0.20981  0.86698  1.0000
  Fe  Fe108     1.0  0.56893  0.21605  0.76850  1.0000
  H   H784      1.0  0.35579  0.19337  0.90400  1.0000
  H   H785      1.0  0.39510  0.07619  0.75382  1.0000
  H   H786      1.0  0.63263  0.06654  0.65059  1.0000
  S   S210      1.0  0.60561  0.12278  0.65619  1.0000
  Fe  Fe109     1.0  0.39315  0.20563  0.96500  1.0000
  S   S211      1.0  0.38268  0.15717  0.57507  1.0000
  C   C486      1.0  0.63759  0.20780  0.85558  1.0000
  C   C487      1.0  0.40798  0.20385  0.86721  1.0000
  C   C488      1.0  0.38562  0.15419  0.68630  1.0000
  H   H787      1.0  0.51735  0.22985  0.52921  1.0000
  N   N47       1.0  0.62031  0.20201  0.87524  1.0000
  S   S212      1.0  0.37480  0.10738  0.72126  1.0000
  H   H788      1.0  0.60856  0.21983  0.71399  1.0000
  C   C489      1.0  0.60287  0.20522  0.86208  1.0000
  H   H789      1.0  0.49964  0.19127  0.88801  1.0000
  C   C490      1.0  0.65206  0.22339  0.76157  1.0000
  S   S213      1.0  0.35046  0.08653  0.68355  1.0000
  H   H790      1.0  0.51009  0.20984  0.97490  1.0000
  C   C491      1.0  0.39195  0.16336  0.50306  1.0000
  C   C492      1.0  0.59243  0.07810  0.61947  1.0000
  C   C493      1.0  0.37902  0.16006  0.64159  1.0000
  H   H791      1.0  0.40566  0.03324  0.75244  1.0000
  H   H792      1.0  0.35178  0.14208  0.69949  1.0000
  S   S214      1.0  0.63080  0.18388  0.80477  1.0000
  C   C494      1.0  0.40421  0.04435  0.75931  1.0000
  S   S215      1.0  0.42518  0.19208  0.96064  1.0000
  N   N48       1.0  0.47566  0.20642  0.86898  1.0000
  S   S216      1.0  0.64836  0.04990  0.70076  1.0000
  S   S217      1.0  0.56991  0.02794  0.69258  1.0000
  H   H793      1.0  0.65639  0.19629  0.51075  1.0000
  H   H794      1.0  0.42057  0.01488  0.65599  1.0000
  S   S218      1.0  0.54826  0.00469  0.65628  1.0000
  H   H795      1.0  0.40888  0.18595  0.64267  1.0000
  H   H796      1.0  0.58419  0.06842  0.63158  1.0000
  C   C495      1.0  0.57485  0.14595  0.78262  1.0000
  H   H797      1.0  0.39052  0.20132  0.60623  1.0000
  H   H798      1.0  0.36819  0.03572  0.76604  1.0000
  Fe  Fe110     1.0  0.56319  0.18230  0.79206  1.0000
  H   H799      1.0  0.45757  0.18829  0.88234  1.0000
  H   H800      1.0  0.62388  0.21798  0.78634  1.0000
  Fe  Fe111     1.0  0.35004  0.21096  0.76852  1.0000
  C   C496      1.0  0.34540  0.12233  0.75621  1.0000
  C   C497      1.0  0.62590  0.18474  0.88547  1.0000
  S   S219      1.0  0.34070  0.15550  0.79803  1.0000
  S   S220      1.0  0.39207  0.17346  0.77511  1.0000
  H   H801      1.0  0.61271  0.14732  0.68973  1.0000
  H   H802      1.0  0.42696  0.00486  0.60363  1.0000
  H   H803      1.0  0.33521  0.11614  0.75241  1.0000
  H   H804      1.0  0.63840  0.19929  0.70398  1.0000
  S   S221      1.0  0.65491  0.09293  0.66617  1.0000
  H   H805      1.0  0.44263  0.03426  0.62917  1.0000
  H   H806      1.0  0.48130  0.18327  0.86032  1.0000
  H   H807      1.0  0.41693  0.05028  0.74710  1.0000
  S   S222      1.0  0.38575  0.00848  0.63898  1.0000
  H   H808      1.0  0.37343  0.21724  0.69377  1.0000
  S   S223      1.0  0.35279  0.19444  0.80812  1.0000
  C   C498      1.0  0.36776  0.22301  0.65356  1.0000
  H   H809      1.0  0.38110  0.17216  0.51377  1.0000
  N   N49       1.0  0.63697  0.22438  0.68910  1.0000
  H   H810      1.0  0.36754  0.06664  0.72603  1.0000
  H   H811      1.0  0.39541  0.16326  0.67932  1.0000
  C   C499      1.0  0.38177  0.20133  0.90741  1.0000
  H   H812      1.0  0.62354  0.18705  0.52251  1.0000
  C   C500      1.0  0.35609  0.01925  0.71059  1.0000
  C   C501      1.0  0.36685  0.01066  0.69089  1.0000
  C   C502      1.0  0.37205  0.01866  0.66430  1.0000
  C   C503      1.0  0.36658  0.03523  0.65756  1.0000
  C   C504      1.0  0.35570  0.04378  0.67717  1.0000
  H   H813      1.0  0.46446  0.02095  0.64004  1.0000
  H   H814      1.0  0.37096  0.99787  0.69624  1.0000
  H   H815      1.0  0.62329  0.23670  0.65505  1.0000
  H   H816      1.0  0.38352  0.04841  0.72049  1.0000
  H   H817      1.0  0.62623  0.09037  0.59763  1.0000
  H   H818      1.0  0.61997  0.21654  0.66765  1.0000
  N   N50       1.0  0.60697  0.08038  0.63371  1.0000
  C   C505      1.0  0.36572  0.14410  0.58924  1.0000
  C   C506      1.0  0.36890  0.13214  0.61186  1.0000
  C   C507      1.0  0.35399  0.12308  0.62527  1.0000
  C   C508      1.0  0.36797  0.04655  0.77303  1.0000
  H   H819      1.0  0.35284  0.05420  0.77156  1.0000
  C   C509      1.0  0.34817  0.14634  0.57921  1.0000
  H   H820      1.0  0.44252  0.01888  0.58371  1.0000
  H   H821      1.0  0.35626  0.11420  0.64314  1.0000
  H   H822      1.0  0.54337  0.21616  0.95239  1.0000
  H   H823      1.0  0.35193  0.01302  0.73109  1.0000
  C   C510      1.0  0.64803  0.20837  0.69931  1.0000
  C   C511      1.0  0.35040  0.03583  0.70375  1.0000
  C   C512      1.0  0.62842  0.02878  0.69273  1.0000
  H   H824      1.0  0.59871  0.21807  0.85318  1.0000
  Fe  Fe112     1.0  0.35453  0.21435  0.57780  1.0000
  C   C513      1.0  0.45482  0.02405  0.62468  1.0000
  H   H825      1.0  0.61062  0.22334  0.89069  1.0000
  H   H826      1.0  0.49627  0.23586  0.93112  1.0000
  H   H827      1.0  0.39559  0.14244  0.68509  1.0000
  C   C514      1.0  0.36587  0.11985  0.74411  1.0000
  C   C515      1.0  0.37888  0.12796  0.74930  1.0000
  C   C516      1.0  0.37123  0.13897  0.76585  1.0000
  H   H828      1.0  0.42245  0.20692  0.85689  1.0000
  H   H829      1.0  0.36935  0.13313  0.67404  1.0000
  H   H830      1.0  0.39476  0.12603  0.74008  1.0000
  C   C517      1.0  0.40067  0.20501  0.89411  1.0000
  H   H831      1.0  0.49166  0.21050  0.89582  1.0000
  C   C518      1.0  0.46564  0.23690  0.95340  1.0000
  C   C519      1.0  0.61124  0.02367  0.69077  1.0000
  C   C520      1.0  0.59191  0.03261  0.69749  1.0000
  C   C521      1.0  0.58993  0.04638  0.70690  1.0000
  C   C522      1.0  0.60705  0.05147  0.70889  1.0000
  H   H832      1.0  0.61298  0.01303  0.68349  1.0000
  H   H833      1.0  0.57502  0.05325  0.71248  1.0000
  H   H834      1.0  0.60524  0.06211  0.71608  1.0000
  S   S224      1.0  0.33705  0.04636  0.72880  1.0000
  C   C523      1.0  0.62642  0.04286  0.70136  1.0000
  C   C524      1.0  0.57560  0.13398  0.76949  1.0000
  H   H835      1.0  0.59330  0.11259  0.75741  1.0000
  H   H836      1.0  0.56324  0.13437  0.76012  1.0000
  H   H837      1.0  0.44987  0.22376  0.85808  1.0000
  C   C525      1.0  0.54716  0.21980  0.93088  1.0000
  C   C526      1.0  0.55258  0.21734  0.70951  1.0000
  C   C527      1.0  0.55017  0.21179  0.68814  1.0000
  C   C528      1.0  0.56111  0.21658  0.66227  1.0000
  C   C529      1.0  0.37216  0.21833  0.62906  1.0000
  C   C530      1.0  0.63928  0.21316  0.77806  1.0000
  H   H838      1.0  0.54452  0.21328  0.72960  1.0000
  H   H839      1.0  0.54017  0.20352  0.69182  1.0000
  H   H840      1.0  0.60150  0.20644  0.91268  1.0000
  C   C531      1.0  0.61812  0.13554  0.62950  1.0000
  C   C532      1.0  0.60724  0.14643  0.61126  1.0000
  C   C533      1.0  0.61658  0.15783  0.59159  1.0000
  H   H841      1.0  0.59142  0.14641  0.61290  1.0000
  H   H842      1.0  0.60799  0.16641  0.57791  1.0000
  S   S225      1.0  0.55451  0.16205  0.78257  1.0000
  H   H843      1.0  0.58411  0.18879  0.68349  1.0000
  C   C534      1.0  0.39714  0.19613  0.64587  1.0000
  S   S226      1.0  0.58893  0.19267  0.76424  1.0000
  Fe  Fe113     1.0  0.56645  0.00436  0.68654  1.0000
  C   C535      1.0  0.33360  0.13693  0.59207  1.0000
  N   N51       1.0  0.38445  0.05486  0.75671  1.0000
  S   S227      1.0  0.49783  0.98980  0.69957  1.0000
  S   S228      1.0  0.46005  0.22368  0.93804  1.0000
  H   H844      1.0  0.59085  0.13836  0.70326  1.0000
  C   C536      1.0  0.38248  0.05910  0.72836  1.0000
  S   S229      1.0  0.57458  0.23497  0.93893  1.0000
  S   S230      1.0  0.63115  0.21905  0.54288  1.0000
  H   H845      1.0  0.58091  0.08907  0.61533  1.0000
  Fe  Fe114     1.0  0.62714  0.10874  0.68293  1.0000
  H   H846      1.0  0.44732  0.21486  0.89324  1.0000
  C   C537      1.0  0.38311  0.06945  0.76601  1.0000
  S   S231      1.0  0.57400  0.18098  0.82929  1.0000
  H   H847      1.0  0.39064  0.14957  0.63705  1.0000
  H   H848      1.0  0.58537  0.09634  0.65608  1.0000
  H   H849      1.0  0.43559  0.17097  0.51059  1.0000
  H   H850      1.0  0.54639  0.21537  0.58423  1.0000
  C   C538      1.0  0.59595  0.08473  0.65932  1.0000
  H   H851      1.0  0.34010  0.21461  0.85070  1.0000
  Fe  Fe115     1.0  0.38605  0.19438  0.79438  1.0000
  S   S232      1.0  0.40597  0.19812  0.81950  1.0000
  N   N52       1.0  0.41213  0.16773  0.49360  1.0000
  C   C539      1.0  0.43366  0.01494  0.60407  1.0000
  S   S233      1.0  0.34312  0.19203  0.59935  1.0000
  C   C540      1.0  0.51003  0.23415  0.57983  1.0000
  S   S234      1.0  0.40088  0.22895  0.96388  1.0000
  C   C541      1.0  0.61480  0.21026  0.89771  1.0000
  H   H852      1.0  0.41030  0.17642  0.52861  1.0000
  H   H853      1.0  0.36276  0.22839  0.86232  1.0000
  S   S235      1.0  0.58453  0.23426  0.50564  1.0000
  H   H854      1.0  0.34330  0.17542  0.66345  1.0000
  C   C542      1.0  0.43375  0.00536  0.65125  1.0000
  H   H855      1.0  0.49556  0.22269  0.84753  1.0000
  H   H856      1.0  0.38659  0.17047  0.63474  1.0000
  H   H857      1.0  0.53508  0.20938  0.56222  1.0000
  H   H858      1.0  0.36899  0.04296  0.79455  1.0000
  H   H859      1.0  0.36301  0.18251  0.67064  1.0000
  C   C543      1.0  0.62979  0.18016  0.50653  1.0000
  N   N53       1.0  0.44630  0.01036  0.62465  1.0000
  H   H860      1.0  0.46312  0.22930  0.87849  1.0000
  C   C544      1.0  0.46297  0.99711  0.61868  1.0000
  H   H861      1.0  0.63744  0.16826  0.51615  1.0000
  H   H862      1.0  0.39420  0.06586  0.71538  1.0000
  Fe  Fe116     1.0  0.64669  0.07517  0.70415  1.0000
  C   C545      1.0  0.58242  0.20531  0.49774  1.0000
  H   H863      1.0  0.42750  0.99478  0.65218  1.0000
  H   H864      1.0  0.36838  0.07766  0.76431  1.0000
  H   H865      1.0  0.63377  0.22076  0.84713  1.0000
  C   C546      1.0  0.48616  0.20071  0.89187  1.0000
  H   H866      1.0  0.47595  0.19592  0.91058  1.0000
  H   H867      1.0  0.34778  0.17077  0.69716  1.0000
  S   S236      1.0  0.54776  0.98943  0.72036  1.0000
  C   C547      1.0  0.55805  0.22827  0.87501  1.0000
  H   H868      1.0  0.63081  0.06202  0.62017  1.0000
  C   C548      1.0  0.48983  0.21268  0.84474  1.0000
  H   H869      1.0  0.35113  0.05649  0.67155  1.0000
  N   N54       1.0  0.58452  0.16384  0.69133  1.0000
  C   C549      1.0  0.59729  0.14885  0.70235  1.0000
  C   C550      1.0  0.56361  0.16471  0.70692  1.0000
  C   C551      1.0  0.58448  0.16443  0.66312  1.0000
  C   C552      1.0  0.59274  0.17734  0.69287  1.0000
  Fe  Fe117     1.0  0.63718  0.09983  0.73793  1.0000
  H   H870      1.0  0.58933  0.20142  0.87643  1.0000
  H   H871      1.0  0.60020  0.07478  0.60004  1.0000
  H   H872      1.0  0.55712  0.15446  0.70682  1.0000
  H   H873      1.0  0.56300  0.16467  0.72814  1.0000
  H   H874      1.0  0.55349  0.17574  0.69879  1.0000
  H   H875      1.0  0.59988  0.16446  0.65051  1.0000
  H   H876      1.0  0.39252  0.15162  0.51732  1.0000
  H   H877      1.0  0.64719  0.12703  0.64100  1.0000
  H   H878      1.0  0.60878  0.17665  0.68225  1.0000
  H   H879      1.0  0.59192  0.17772  0.71405  1.0000
  Fe  Fe118     1.0  0.55519  0.20538  0.82830  1.0000
  C   C553      1.0  0.54421  0.21815  0.88674  1.0000
  C   C554      1.0  0.66194  0.23521  0.59577  1.0000
  H   H880      1.0  0.40950  0.20893  0.90449  1.0000
  Fe  Fe119     1.0  0.62163  0.22869  0.58028  1.0000
  C   C555      1.0  0.58065  0.22162  0.48736  1.0000
  H   H881      1.0  0.46071  0.19699  0.84716  1.0000
  C   C556      1.0  0.37721  0.21378  0.67468  1.0000
  Fe  Fe120     1.0  0.35837  0.17522  0.78540  1.0000
  C   C557      1.0  0.60724  0.13265  0.79446  1.0000
  Fe  Fe121     1.0  0.35297  0.20994  0.52299  1.0000
  H   H882      1.0  0.42745  0.14391  0.49135  1.0000
  S   S237      1.0  0.35278  0.19183  0.74695  1.0000
  H   H883      1.0  0.44258  0.00230  0.66740  1.0000
  H   H884      1.0  0.37903  0.15408  0.70779  1.0000
  C   C558      1.0  0.35888  0.14431  0.67785  1.0000
  S   S238      1.0  0.58042  0.21786  0.80365  1.0000
  H   H885      1.0  0.52760  0.20649  0.92376  1.0000
  H   H886      1.0  0.46443  0.02814  0.60492  1.0000
  C   C559      1.0  0.59259  0.12168  0.76792  1.0000
  H   H887      1.0  0.37046  0.04147  0.63699  1.0000
  H   H888      1.0  0.40624  0.04093  0.78047  1.0000
  Fe  Fe122     1.0  0.38597  0.19161  0.73799  1.0000
  Fe  Fe123     1.0  0.34792  0.10089  0.71360  1.0000
  H   H889      1.0  0.57909  0.15404  0.66124  1.0000
  N   N55       1.0  0.52913  0.23454  0.55984  1.0000
  Fe  Fe124     1.0  0.59818  0.19336  0.80150  1.0000
  H   H890      1.0  0.34681  0.14650  0.66613  1.0000
  H   H891      1.0  0.38261  0.13011  0.61941  1.0000
  C   C560      1.0  0.61768  0.09320  0.61712  1.0000
  C   C561      1.0  0.38682  0.20483  0.62527  1.0000
  S   S239      1.0  0.61775  0.09062  0.71955  1.0000
  S   S240      1.0  0.63001  0.10608  0.77806  1.0000
  H   H892      1.0  0.42072  0.02476  0.60822  1.0000
  H   H893      1.0  0.60656  0.08578  0.67120  1.0000
  C   C562      1.0  0.37033  0.19637  0.89371  1.0000
  H   H894      1.0  0.60697  0.10468  0.61295  1.0000
  C   C563      1.0  0.64814  0.14657  0.60687  1.0000
  C   C564      1.0  0.50174  0.19993  0.97949  1.0000
  H   H895      1.0  0.62865  0.09522  0.62750  1.0000
  H   H896      1.0  0.56207  0.23175  0.85345  1.0000
  S   S241      1.0  0.37767  0.20308  0.54686  1.0000
  C   C565      1.0  0.36151  0.23326  0.81049  1.0000
  S   S242      1.0  0.61862  0.20530  0.60838  1.0000
  H   H897      1.0  0.36907  0.19084  0.85676  1.0000
  C   C566      1.0  0.63694  0.15807  0.58964  1.0000
  H   H898      1.0  0.62745  0.20796  0.90846  1.0000
  H   H899      1.0  0.38129  0.14532  0.76957  1.0000
  H   H900      1.0  0.57438  0.17529  0.65443  1.0000
  H   H901      1.0  0.55673  0.21860  0.54889  1.0000
  C   C567      1.0  0.62179  0.06548  0.63901  1.0000
  H   H902      1.0  0.58690  0.07572  0.67184  1.0000
  S   S243      1.0  0.40332  0.18817  0.69724  1.0000
  H   H903      1.0  0.58544  0.20030  0.51759  1.0000
  C   C568      1.0  0.39196  0.20034  0.67083  1.0000
  C   C569      1.0  0.64656  0.19680  0.78403  1.0000
  H   H904      1.0  0.61415  0.05546  0.65085  1.0000
  C   C570      1.0  0.33790  0.13296  0.77330  1.0000
  H   H905      1.0  0.34587  0.15519  0.56134  1.0000
  H   H906      1.0  0.64777  0.13407  0.76339  1.0000
  C   C571      1.0  0.39655  0.19889  0.85351  1.0000
  N   N56       1.0  0.36970  0.15771  0.67035  1.0000
  C   C572      1.0  0.53841  0.21422  0.91468  1.0000
  H   H907      1.0  0.61922  0.13211  0.80453  1.0000
  C   C573      1.0  0.37777  0.19503  0.86691  1.0000
  C   C574      1.0  0.59075  0.14530  0.79494  1.0000
  S   S244      1.0  0.38288  0.21246  0.75598  1.0000
  C   C575      1.0  0.63864  0.13546  0.62709  1.0000
  S   S245      1.0  0.64787  0.17350  0.56726  1.0000
  C   C576      1.0  0.45820  0.21915  0.87486  1.0000
  C   C577      1.0  0.54240  0.21876  0.56402  1.0000
  Fe  Fe125     1.0  0.43233  0.21483  0.96296  1.0000
  C   C578      1.0  0.60837  0.12099  0.78054  1.0000
  H   H908      1.0  0.59027  0.15444  0.80516  1.0000
  S   S246      1.0  0.56846  0.23530  0.73130  1.0000
  S   S247      1.0  0.37173  0.20335  0.94074  1.0000
  Fe  Fe126     1.0  0.36392  0.18153  0.56609  1.0000
  H   H909      1.0  0.38461  0.06676  0.78731  1.0000
  H   H910      1.0  0.60624  0.19878  0.84563  1.0000
  H   H911      1.0  0.59884  0.14848  0.72299  1.0000
  C   C579      1.0  0.35524  0.17226  0.67563  1.0000
  C   C580      1.0  0.33631  0.12550  0.61540  1.0000
  H   H912      1.0  0.48939  0.20408  0.96789  1.0000
  S   S248      1.0  0.64336  0.11976  0.70287  1.0000
  H   H913      1.0  0.61311  0.18001  0.90022  1.0000
  H   H914      1.0  0.36753  0.16209  0.62907  1.0000
  C   C581      1.0  0.35071  0.14149  0.77788  1.0000
  H   H915      1.0  0.50188  0.22528  0.57797  1.0000
  H   H916      1.0  0.50334  0.20342  0.83997  1.0000
  C   C582      1.0  0.56499  0.22844  0.70476  1.0000
  H   H917      1.0  0.64215  0.20174  0.83844  1.0000
  H   H918      1.0  0.64335  0.02199  0.68696  1.0000
  C   C583      1.0  0.56678  0.23386  0.89120  1.0000
  H   H919      1.0  0.66182  0.20489  0.68451  1.0000
  C   C584      1.0  0.65924  0.14033  0.76524  1.0000
  H   H920      1.0  0.65324  0.11570  0.80715  1.0000
  C   C585      1.0  0.56155  0.22948  0.91917  1.0000
  C   C586      1.0  0.57367  0.22756  0.65757  1.0000
  H   H921      1.0  0.51223  0.18984  0.97167  1.0000
  H   H922      1.0  0.47249  0.00028  0.59847  1.0000
  H   H923      1.0  0.62277  0.22843  0.72850  1.0000
  C   C587      1.0  0.42033  0.16777  0.51688  1.0000
  S   S249      1.0  0.34075  0.18754  0.54041  1.0000
  H   H924      1.0  0.65104  0.20567  0.86480  1.0000
  H   H925      1.0  0.48256  0.21705  0.82694  1.0000
  H   H926      1.0  0.63905  0.18182  0.89554  1.0000
  H   H927      1.0  0.47312  0.99369  0.63341  1.0000
  H   H928      1.0  0.51292  0.23091  0.60064  1.0000
  S   S250      1.0  0.35883  0.22923  0.60372  1.0000
  H   H929      1.0  0.37043  0.22142  0.81784  1.0000
  C   C588      1.0  0.61881  0.22845  0.70933  1.0000
  H   H930      1.0  0.42157  0.15594  0.53090  1.0000
  H   H931      1.0  0.64405  0.22087  0.64879  1.0000
  C   C589      1.0  0.63081  0.22459  0.66411  1.0000
  H   H932      1.0  0.64641  0.23605  0.75699  1.0000
  H   H933      1.0  0.58210  0.23141  0.63766  1.0000
  H   H934      1.0  0.38552  0.16273  0.48614  1.0000
  H   H935      1.0  0.35567  0.23245  0.79318  1.0000
  C   C590      1.0  0.57517  0.23380  0.67866  1.0000
  H   H936      1.0  0.61687  0.17844  0.49942  1.0000
  H   H937      1.0  0.65303  0.20787  0.71800  1.0000
  H   H938      1.0  0.65107  0.15018  0.77554  1.0000
  S   S251      1.0  0.58892  0.23569  0.57727  1.0000
  H   H939      1.0  0.65612  0.13233  0.81821  1.0000
  H   H940      1.0  0.35692  0.23371  0.65631  1.0000
  C   C591      1.0  0.66132  0.18949  0.49459  1.0000
  H   H941      1.0  0.62682  0.21146  0.48900  1.0000
  H   H942      1.0  0.58238  0.18266  0.49003  1.0000
  H   H943      1.0  0.66396  0.14653  0.60521  1.0000
  C   C592      1.0  0.65016  0.23608  0.68379  1.0000
  N   N57       1.0  0.64389  0.18830  0.48437  1.0000
  H   H944      1.0  0.66492  0.23259  0.67067  1.0000
  H   H945      1.0  0.34875  0.18946  0.48466  1.0000
  H   H946      1.0  0.39976  0.19278  0.48627  1.0000
  C   C593      1.0  0.66442  0.12276  0.80738  1.0000
  H   H947      1.0  0.65357  0.23722  0.70260  1.0000
  Fe  Fe127     1.0  0.53165  0.98809  0.68935  1.0000
  C   C594      1.0  0.47605  0.25998  0.33691  1.0000
  H   H948      1.0  0.59547  0.28572  0.10058  1.0000
  N   N58       1.0  0.52260  0.30606  0.07696  1.0000
  H   H949      1.0  0.33682  0.25730  0.29398  1.0000
  H   H950      1.0  0.61338  0.30548  0.24704  1.0000
  C   C595      1.0  0.58871  0.27733  0.09583  1.0000
  Fe  Fe128     1.0  0.56512  0.30852  0.17952  1.0000
  S   S252      1.0  0.58731  0.30632  0.14106  1.0000
  S   S253      1.0  0.53257  0.32077  0.17910  1.0000
  Fe  Fe129     1.0  0.61035  0.30949  0.16220  1.0000
  S   S254      1.0  0.58743  0.31408  0.19901  1.0000
  Fe  Fe130     1.0  0.40763  0.30187  0.12796  1.0000
  S   S255      1.0  0.39209  0.28143  0.14949  1.0000
  S   S256      1.0  0.39233  0.32366  0.10172  1.0000
  Fe  Fe131     1.0  0.44669  0.28599  0.15015  1.0000
  S   S257      1.0  0.43307  0.26495  0.17439  1.0000
  S   S258      1.0  0.48071  0.28193  0.14603  1.0000
  Fe  Fe132     1.0  0.42201  0.26602  0.13732  1.0000
  N   N59       1.0  0.35765  0.33143  0.20373  1.0000
  Fe  Fe133     1.0  0.40483  0.28259  0.18399  1.0000
  S   S259      1.0  0.38463  0.28469  0.22387  1.0000
  S   S260      1.0  0.43663  0.28639  0.11274  1.0000
  S   S261      1.0  0.41924  0.30378  0.16289  1.0000
  H   H951      1.0  0.66314  0.28304  0.26191  1.0000
  H   H952      1.0  0.38890  0.25519  0.11472  1.0000
  C   C596      1.0  0.55269  0.25822  0.31880  1.0000
  C   C597      1.0  0.34924  0.31781  0.20316  1.0000
  C   C598      1.0  0.34217  0.34185  0.21943  1.0000
  C   C599      1.0  0.36102  0.24069  0.27626  1.0000
  H   H953      1.0  0.50044  0.30285  0.05782  1.0000
  H   H954      1.0  0.47153  0.26705  0.31781  1.0000
  C   C600      1.0  0.51759  0.30949  0.17200  1.0000
  C   C601      1.0  0.52634  0.29493  0.16481  1.0000
  C   C602      1.0  0.51451  0.28626  0.15840  1.0000
  C   C603      1.0  0.49386  0.29219  0.15850  1.0000
  C   C604      1.0  0.48493  0.30666  0.16597  1.0000
  C   C605      1.0  0.49680  0.31528  0.17274  1.0000
  H   H955      1.0  0.54236  0.29046  0.16359  1.0000
  H   H956      1.0  0.52159  0.27508  0.15269  1.0000
  H   H957      1.0  0.46906  0.31138  0.16596  1.0000
  H   H958      1.0  0.48993  0.32655  0.17823  1.0000
  C   C606      1.0  0.38594  0.25241  0.24006  1.0000
  C   C607      1.0  0.45612  0.25247  0.98755  1.0000
  C   C608      1.0  0.35803  0.26928  0.26295  1.0000
  C   C609      1.0  0.37566  0.26758  0.24335  1.0000
  S   S262      1.0  0.53317  0.25096  0.34357  1.0000
  Fe  Fe134     1.0  0.59484  0.28771  0.21382  1.0000
  H   H959      1.0  0.33732  0.33535  0.24030  1.0000
  H   H960      1.0  0.35004  0.28099  0.26552  1.0000
  H   H961      1.0  0.47783  0.24761  0.09257  1.0000
  H   H962      1.0  0.40301  0.31097  0.04013  1.0000
  H   H963      1.0  0.57641  0.24354  0.33875  1.0000
  C   C610      1.0  0.66302  0.35263  0.18065  1.0000
  H   H964      1.0  0.38228  0.33554  0.21738  1.0000
  S   S263      1.0  0.56641  0.27471  0.03358  1.0000
  H   H965      1.0  0.37037  0.35060  0.17567  1.0000
  H   H966      1.0  0.51624  0.28504  0.10610  1.0000
  Fe  Fe135     1.0  0.59361  0.28049  0.16091  1.0000
  H   H967      1.0  0.56515  0.24700  0.07789  1.0000
  S   S264      1.0  0.63744  0.32192  0.14377  1.0000
  H   H968      1.0  0.62230  0.31906  0.25915  1.0000
  C   C611      1.0  0.35697  0.34600  0.10498  1.0000
  C   C612      1.0  0.36619  0.33013  0.11340  1.0000
  C   C613      1.0  0.35465  0.31977  0.13203  1.0000
  H   H969      1.0  0.42919  0.27177  0.07216  1.0000
  H   H970      1.0  0.51257  0.31306  0.11477  1.0000
  H   H971      1.0  0.36571  0.35410  0.09041  1.0000
  H   H972      1.0  0.36129  0.30747  0.13822  1.0000
  H   H973      1.0  0.65394  0.40432  0.07745  1.0000
  S   S265      1.0  0.48230  0.26649  0.00056  1.0000
  H   H974      1.0  0.35014  0.34541  0.16640  1.0000
  H   H975      1.0  0.37203  0.31830  0.23676  1.0000
  C   C614      1.0  0.62521  0.31281  0.24249  1.0000
  H   H976      1.0  0.39527  0.28987  0.02279  1.0000
  H   H977      1.0  0.65615  0.38916  0.14970  1.0000
  C   C615      1.0  0.57284  0.25218  0.32112  1.0000
  C   C616      1.0  0.38622  0.24740  0.08045  1.0000
  N   N60       1.0  0.42252  0.28846  0.03643  1.0000
  H   H978      1.0  0.60403  0.25306  0.30304  1.0000
  C   C617      1.0  0.35056  0.25589  0.27908  1.0000
  H   H979      1.0  0.66451  0.28804  0.21271  1.0000
  H   H980      1.0  0.64563  0.29630  0.28131  1.0000
  H   H981      1.0  0.44628  0.29983  0.00997  1.0000
  H   H982      1.0  0.65198  0.36788  0.13097  1.0000
  S   S266      1.0  0.52286  0.25124  0.04414  1.0000
  C   C618      1.0  0.41753  0.24304  0.09619  1.0000
  Fe  Fe136     1.0  0.51471  0.25635  0.00398  1.0000
  C   C619      1.0  0.57743  0.25226  0.10778  1.0000
  H   H983      1.0  0.38767  0.31790  0.20448  1.0000
  C   C620      1.0  0.41385  0.30156  0.05072  1.0000
  C   C621      1.0  0.40604  0.28121  0.03454  1.0000
  H   H984      1.0  0.58625  0.29110  0.05621  1.0000
  H   H985      1.0  0.63226  0.35921  0.20095  1.0000
  S   S267      1.0  0.60387  0.27540  0.25321  1.0000
  H   H986      1.0  0.39718  0.27685  0.05471  1.0000
  Fe  Fe137     1.0  0.55272  0.25757  0.02185  1.0000
  H   H987      1.0  0.53257  0.27460  0.29449  1.0000
  H   H988      1.0  0.64219  0.40329  0.12641  1.0000
  C   C622      1.0  0.58574  0.26327  0.11445  1.0000
  C   C623      1.0  0.63428  0.34252  0.17673  1.0000
  C   C624      1.0  0.65761  0.39674  0.12906  1.0000
  H   H989      1.0  0.66132  0.36763  0.09629  1.0000
  H   H990      1.0  0.56029  0.28414  0.25852  1.0000
  H   H991      1.0  0.51415  0.24684  0.13422  1.0000
  H   H992      1.0  0.61822  0.34249  0.18168  1.0000
  S   S268      1.0  0.59257  0.25918  0.14596  1.0000
  H   H993      1.0  0.52932  0.28161  0.07381  1.0000
  C   C625      1.0  0.56383  0.27520  0.27591  1.0000
  H   H994      1.0  0.44977  0.28125  0.05242  1.0000
  H   H995      1.0  0.55276  0.30721  0.05466  1.0000
  C   C626      1.0  0.53691  0.31019  0.05152  1.0000
  C   C627      1.0  0.58846  0.25771  0.30103  1.0000
  C   C628      1.0  0.64791  0.29081  0.26386  1.0000
  H   H996      1.0  0.50836  0.24032  0.31641  1.0000
  H   H997      1.0  0.53901  0.31223  0.10127  1.0000
  N   N61       1.0  0.47792  0.24280  0.33912  1.0000
  H   H998      1.0  0.58812  0.25289  0.23636  1.0000
  H   H999      1.0  0.63655  0.28301  0.26876  1.0000
  S   S269      1.0  0.57053  0.28262  0.19841  1.0000
  H   H1000     1.0  0.44317  0.26604  0.04174  1.0000
  H   H1001     1.0  0.49728  0.32258  0.06303  1.0000
  H   H1002     1.0  0.53359  0.32304  0.04224  1.0000
  C   C629      1.0  0.64696  0.33341  0.15899  1.0000
  H   H1003     1.0  0.42579  0.30726  0.05287  1.0000
  H   H1004     1.0  0.52189  0.24150  0.10220  1.0000
  N   N62       1.0  0.64576  0.30300  0.23906  1.0000
  C   C630      1.0  0.64228  0.35206  0.18749  1.0000
  H   H1005     1.0  0.49071  0.26284  0.33741  1.0000
  H   H1006     1.0  0.49065  0.30677  0.09078  1.0000
  H   H1007     1.0  0.60630  0.24035  0.21670  1.0000
  H   H1008     1.0  0.66011  0.32213  0.21441  1.0000
  C   C631      1.0  0.54816  0.26984  0.29630  1.0000
  S   S270      1.0  0.61869  0.28321  0.17812  1.0000
  H   H1009     1.0  0.50190  0.25828  0.10726  1.0000
  C   C632      1.0  0.58397  0.26915  0.27839  1.0000
  H   H1010     1.0  0.54246  0.28594  0.09559  1.0000
  H   H1011     1.0  0.37009  0.25187  0.08276  1.0000
  C   C633      1.0  0.57177  0.25544  0.08278  1.0000
  C   C634      1.0  0.58352  0.28033  0.07067  1.0000
  H   H1012     1.0  0.52072  0.32830  0.08732  1.0000
  H   H1013     1.0  0.39957  0.25104  0.22495  1.0000
  C   C635      1.0  0.45830  0.23943  0.33832  1.0000
  C   C636      1.0  0.36348  0.34047  0.17612  1.0000
  C   C637      1.0  0.57482  0.26952  0.06417  1.0000
  H   H1014     1.0  0.46899  0.25369  0.13703  1.0000
  H   H1015     1.0  0.56012  0.24657  0.22294  1.0000
  C   C638      1.0  0.39684  0.24928  0.09855  1.0000
  H   H1016     1.0  0.57529  0.24129  0.12202  1.0000
  C   C639      1.0  0.52379  0.31533  0.09584  1.0000
  S   S271      1.0  0.43122  0.24444  0.11912  1.0000
  H   H1017     1.0  0.53637  0.30348  0.03668  1.0000
  H   H1018     1.0  0.63819  0.28707  0.22033  1.0000
  H   H1019     1.0  0.34617  0.30999  0.22339  1.0000
  C   C640      1.0  0.59635  0.24048  0.23678  1.0000
  C   C641      1.0  0.64899  0.29519  0.21644  1.0000
  H   H1020     1.0  0.57472  0.24061  0.45357  1.0000
  H   H1021     1.0  0.44497  0.25672  0.00358  1.0000
  H   H1022     1.0  0.46462  0.26415  0.35372  1.0000
  C   C642      1.0  0.52789  0.28893  0.08859  1.0000
  C   C643      1.0  0.43340  0.29467  0.00925  1.0000
  H   H1023     1.0  0.41198  0.27089  0.02476  1.0000
  H   H1024     1.0  0.40542  0.29729  0.07128  1.0000
  C   C644      1.0  0.43677  0.27637  0.05136  1.0000
  C   C645      1.0  0.50181  0.30976  0.07187  1.0000
  C   C646      1.0  0.50853  0.24600  0.11673  1.0000
  H   H1025     1.0  0.45334  0.24569  0.31913  1.0000
  C   C647      1.0  0.47661  0.24148  0.14527  1.0000
  H   H1026     1.0  0.37467  0.33284  0.16338  1.0000
  H   H1027     1.0  0.34795  0.35228  0.22033  1.0000
  H   H1028     1.0  0.62288  0.32193  0.22403  1.0000
  H   H1029     1.0  0.35991  0.31026  0.18987  1.0000
  C   C648      1.0  0.37876  0.23895  0.25679  1.0000
  H   H1030     1.0  0.48917  0.24417  0.29693  1.0000
  H   H1031     1.0  0.64677  0.30400  0.19755  1.0000
  C   C649      1.0  0.37568  0.32562  0.21618  1.0000
  H   H1032     1.0  0.56050  0.24199  0.27123  1.0000
  C   C650      1.0  0.66092  0.31317  0.23344  1.0000
  H   H1033     1.0  0.65857  0.31974  0.24957  1.0000
  H   H1034     1.0  0.44621  0.24307  0.35499  1.0000
  C   C651      1.0  0.33670  0.35163  0.11634  1.0000
  C   C652      1.0  0.33444  0.32532  0.14310  1.0000
  H   H1035     1.0  0.33475  0.32180  0.19584  1.0000
  C   C653      1.0  0.39632  0.23962  0.05956  1.0000
  H   H1036     1.0  0.48193  0.24200  0.16318  1.0000
  H   H1037     1.0  0.34359  0.24245  0.37249  1.0000
  H   H1038     1.0  0.43990  0.28512  0.99783  1.0000
  H   H1039     1.0  0.63905  0.38161  0.10647  1.0000
  H   H1040     1.0  0.42323  0.30402  0.99751  1.0000
  C   C654      1.0  0.65431  0.37558  0.11060  1.0000
  H   H1041     1.0  0.49967  0.24590  0.57744  1.0000
  C   C655      1.0  0.48501  0.24052  0.94679  1.0000
  H   H1042     1.0  0.58447  0.24259  0.67480  1.0000
  H   H1043     1.0  0.34122  0.24325  0.87077  1.0000
  C   C656      1.0  0.47563  0.25580  0.98145  1.0000
  H   H1044     1.0  0.52976  0.25856  0.56016  1.0000
  C   C657      1.0  0.45112  0.24307  0.97353  1.0000
  H   H1045     1.0  0.54305  0.24361  0.58336  1.0000
  S   S272      1.0  0.63689  0.24415  0.59308  1.0000
  C   C658      1.0  0.49001  0.24993  0.96086  1.0000
  H   H1046     1.0  0.50503  0.25269  0.95567  1.0000
  H   H1047     1.0  0.64295  0.24809  0.67400  1.0000
  H   H1048     1.0  0.53903  0.23916  0.51702  1.0000
  Fe  Fe138     1.0  0.55607  0.23990  0.97864  1.0000
  C   C659      1.0  0.35334  0.23980  0.85396  1.0000
  S   S273      1.0  0.54316  0.26518  0.98192  1.0000
  H   H1049     1.0  0.61001  0.24046  0.70236  1.0000
  H   H1050     1.0  0.37222  0.24166  0.80285  1.0000
  H   H1051     1.0  0.55378  0.24718  0.54811  1.0000
  H   H1052     1.0  0.36323  0.24881  0.84710  1.0000
  C   C660      1.0  0.33292  0.25376  0.82079  1.0000
  H   H1053     1.0  0.57761  0.24159  0.88204  1.0000
  H   H1054     1.0  0.34247  0.26300  0.81263  1.0000
  H   H1055     1.0  0.66306  0.24861  0.62373  1.0000
  H   H1056     1.0  0.43604  0.24052  0.97847  1.0000
  H   H1057     1.0  0.51483  0.25055  0.52858  1.0000
  C   C661      1.0  0.53935  0.24650  0.56303  1.0000
  N   N63       1.0  0.34485  0.23832  0.83185  1.0000
  C   C662      1.0  0.52483  0.23871  0.53250  1.0000
  H   H1058     1.0  0.61929  0.72896  0.72649  1.0000
  H   H1059     1.0  0.45404  0.73280  0.76169  1.0000
  H   H1060     1.0  0.63497  0.67800  0.69513  1.0000
  H   H1061     1.0  0.65410  0.66356  0.68014  1.0000
  H   H1062     1.0  0.48880  0.73347  0.76407  1.0000
  H   H1063     1.0  0.64278  0.65872  0.71507  1.0000
  H   H1064     1.0  0.65016  0.67146  0.74721  1.0000
  S   S274      1.0  0.66226  0.72043  0.71334  1.0000
  C   C663      1.0  0.65568  0.68066  0.72991  1.0000
  H   H1065     1.0  0.34011  0.71713  0.69208  1.0000
  C   C664      1.0  0.64827  0.66837  0.69863  1.0000
  H   H1066     1.0  0.65820  0.69722  0.67904  1.0000
  H   H1067     1.0  0.64286  0.69084  0.72698  1.0000
  N   N64       1.0  0.66406  0.67431  0.70538  1.0000
  C   C665      1.0  0.36451  0.87465  0.42293  1.0000
  Fe  Fe139     1.0  0.59185  0.89211  0.10757  1.0000
  S   S275      1.0  0.61093  0.91075  0.09430  1.0000
  S   S276      1.0  0.59513  0.87593  0.14770  1.0000
  Fe  Fe140     1.0  0.57661  0.90110  0.05507  1.0000
  S   S277      1.0  0.59433  0.92059  0.03771  1.0000
  S   S278      1.0  0.55555  0.89700  0.03192  1.0000
  Fe  Fe141     1.0  0.61949  0.90333  0.05516  1.0000
  H   H1068     1.0  0.37335  0.94360  0.12574  1.0000
  Fe  Fe142     1.0  0.58445  0.92651  0.07814  1.0000
  S   S279      1.0  0.57554  0.95186  0.08247  1.0000
  S   S280      1.0  0.60274  0.88311  0.06936  1.0000
  S   S281      1.0  0.56426  0.90852  0.09469  1.0000
  Fe  Fe143     1.0  0.57155  0.90094  0.28345  1.0000
  S   S282      1.0  0.60242  0.90674  0.27440  1.0000
  S   S283      1.0  0.55466  0.90567  0.24978  1.0000
  Fe  Fe144     1.0  0.56939  0.89309  0.34408  1.0000
  S   S284      1.0  0.60031  0.89798  0.33966  1.0000
  S   S285      1.0  0.54825  0.88834  0.38434  1.0000
  Fe  Fe145     1.0  0.59110  0.91904  0.30849  1.0000
  S   S286      1.0  0.60118  0.94146  0.30600  1.0000
  Fe  Fe146     1.0  0.60908  0.88503  0.30625  1.0000
  S   S287      1.0  0.64024  0.87017  0.30067  1.0000
  S   S288      1.0  0.55938  0.91543  0.31506  1.0000
  S   S289      1.0  0.57885  0.87802  0.31308  1.0000
  C   C666      1.0  0.37556  0.95545  0.20607  1.0000
  H   H1069     1.0  0.58914  0.93554  0.13119  1.0000
  H   H1070     1.0  0.40913  0.85502  0.31810  1.0000
  S   S290      1.0  0.39618  0.88543  0.99961  1.0000
  S   S291      1.0  0.63676  0.97692  0.16162  1.0000
  H   H1071     1.0  0.60947  0.95022  0.02741  1.0000
  S   S292      1.0  0.41180  0.86740  0.45957  1.0000
  C   C667      1.0  0.36992  0.94873  0.23335  1.0000
  H   H1072     1.0  0.35600  0.96969  0.10400  1.0000
  H   H1073     1.0  0.39841  0.96551  0.04597  1.0000
  C   C668      1.0  0.36610  0.89993  0.14940  1.0000
  C   C669      1.0  0.40149  0.95811  0.06563  1.0000
  H   H1074     1.0  0.60654  0.95365  0.14082  1.0000
  H   H1075     1.0  0.38931  0.96023  0.19880  1.0000
  S   S293      1.0  0.65066  0.90203  0.02956  1.0000
  C   C670      1.0  0.65791  0.90704  0.27907  1.0000
  H   H1076     1.0  0.36226  0.87316  0.99556  1.0000
  H   H1077     1.0  0.62061  0.96557  0.26805  1.0000
  H   H1078     1.0  0.37161  0.86736  0.43927  1.0000
  N   N65       1.0  0.53652  0.85403  0.98778  1.0000
  H   H1079     1.0  0.60558  0.96481  0.99764  1.0000
  H   H1080     1.0  0.57468  0.93878  0.42581  1.0000
  H   H1081     1.0  0.56882  0.93395  0.34974  1.0000
  C   C671      1.0  0.35940  0.89112  0.42024  1.0000
  H   H1082     1.0  0.36383  0.85476  0.40721  1.0000
  H   H1083     1.0  0.65617  0.91153  0.29744  1.0000
  H   H1084     1.0  0.39088  0.84703  0.26283  1.0000
  S   S294      1.0  0.45815  0.88288  0.46919  1.0000
  H   H1085     1.0  0.56139  0.91966  0.37938  1.0000
  H   H1086     1.0  0.63307  0.87907  0.20792  1.0000
  H   H1087     1.0  0.36266  0.83880  0.29828  1.0000
  S   S295      1.0  0.36416  0.90036  0.44334  1.0000
  C   C672      1.0  0.36669  0.84513  0.31126  1.0000
  C   C673      1.0  0.55669  0.88962  0.41246  1.0000
  C   C674      1.0  0.54257  0.89327  0.43516  1.0000
  C   C675      1.0  0.54908  0.89547  0.45695  1.0000
  C   C676      1.0  0.56974  0.89399  0.45605  1.0000
  C   C677      1.0  0.58380  0.88981  0.43375  1.0000
  C   C678      1.0  0.57731  0.88758  0.41209  1.0000
  H   H1088     1.0  0.64704  0.95228  0.07620  1.0000
  H   H1089     1.0  0.36718  0.87850  0.13696  1.0000
  H   H1090     1.0  0.59980  0.88849  0.43308  1.0000
  H   H1091     1.0  0.58832  0.88423  0.39515  1.0000
  C   C679      1.0  0.59450  0.95464  0.27723  1.0000
  C   C680      1.0  0.60723  0.96502  0.26161  1.0000
  C   C681      1.0  0.58577  0.97374  0.22859  1.0000
  S   S296      1.0  0.58112  0.98466  0.19724  1.0000
  C   C682      1.0  0.57253  0.96391  0.24486  1.0000
  C   C683      1.0  0.57716  0.95406  0.26888  1.0000
  H   H1092     1.0  0.41051  0.96417  0.07315  1.0000
  C   C684      1.0  0.60778  0.98227  0.08927  1.0000
  H   H1093     1.0  0.55895  0.96362  0.23861  1.0000
  H   H1094     1.0  0.56721  0.94612  0.28095  1.0000
  C   C685      1.0  0.64956  0.87084  0.26648  1.0000
  C   C686      1.0  0.63614  0.87489  0.24891  1.0000
  C   C687      1.0  0.64352  0.87602  0.22142  1.0000
  H   H1095     1.0  0.49671  0.88704  0.47464  1.0000
  C   C688      1.0  0.37024  0.97120  0.08923  1.0000
  H   H1096     1.0  0.41068  0.85380  0.27072  1.0000
  H   H1097     1.0  0.62004  0.87683  0.25662  1.0000
  N   N66       1.0  0.38251  0.95568  0.08494  1.0000
  C   C689      1.0  0.34499  0.95069  0.19798  1.0000
  H   H1098     1.0  0.39608  0.82298  0.33110  1.0000
  Fe  Fe147     1.0  0.36088  0.90227  0.08659  1.0000
  C   C690      1.0  0.60312  0.97428  0.23697  1.0000
  H   H1099     1.0  0.61671  0.96898  0.02178  1.0000
  C   C691      1.0  0.36537  0.88387  0.15377  1.0000
  H   H1100     1.0  0.39587  0.95148  0.11951  1.0000
  C   C692      1.0  0.58379  0.88417  0.17606  1.0000
  C   C693      1.0  0.56637  0.89596  0.17596  1.0000
  C   C694      1.0  0.55737  0.90222  0.19888  1.0000
  C   C695      1.0  0.56599  0.89703  0.22181  1.0000
  C   C696      1.0  0.58344  0.88526  0.22189  1.0000
  C   C697      1.0  0.59215  0.87869  0.19919  1.0000
  H   H1101     1.0  0.55958  0.90002  0.15841  1.0000
  H   H1102     1.0  0.54368  0.91115  0.19883  1.0000
  H   H1103     1.0  0.58998  0.88101  0.23962  1.0000
  H   H1104     1.0  0.60542  0.86936  0.19956  1.0000
  C   C698      1.0  0.59576  0.96032  0.08295  1.0000
  C   C699      1.0  0.61570  0.95201  0.07855  1.0000
  H   H1105     1.0  0.65446  0.90318  0.08287  1.0000
  C   C700      1.0  0.62770  0.97395  0.08477  1.0000
  H   H1106     1.0  0.38422  0.86693  0.31902  1.0000
  H   H1107     1.0  0.34443  0.93810  0.47671  1.0000
  H   H1108     1.0  0.61892  0.94045  0.07409  1.0000
  C   C701      1.0  0.64741  0.87562  0.12963  1.0000
  H   H1109     1.0  0.33869  0.90055  0.36435  1.0000
  Fe  Fe148     1.0  0.34005  0.88392  0.26556  1.0000
  H   H1110     1.0  0.61343  0.98179  0.22453  1.0000
  H   H1111     1.0  0.65382  0.87285  0.07884  1.0000
  H   H1112     1.0  0.64361  0.90312  0.28041  1.0000
  H   H1113     1.0  0.36250  0.86211  0.18317  1.0000
  S   S297      1.0  0.35618  0.86969  0.23451  1.0000
  H   H1114     1.0  0.41112  0.94659  0.06208  1.0000
  C   C702      1.0  0.36065  0.89757  0.19756  1.0000
  H   H1115     1.0  0.36168  0.83935  0.33258  1.0000
  C   C703      1.0  0.63166  0.95882  0.07937  1.0000
  C   C704      1.0  0.56406  0.89678  0.99758  1.0000
  S   S298      1.0  0.37105  0.87786  0.07815  1.0000
  H   H1116     1.0  0.64357  0.93831  0.27240  1.0000
  H   H1117     1.0  0.52657  0.89483  0.43565  1.0000
  H   H1118     1.0  0.53384  0.90122  0.99028  1.0000
  N   N67       1.0  0.65634  0.86100  0.11940  1.0000
  S   S299      1.0  0.35611  0.89199  0.28992  1.0000
  H   H1119     1.0  0.37941  0.94816  0.24715  1.0000
  S   S300      1.0  0.64769  0.98227  0.08614  1.0000
  H   H1120     1.0  0.41671  0.82898  0.30514  1.0000
  C   C705      1.0  0.36009  0.86751  0.40473  1.0000
  C   C706      1.0  0.64037  0.85181  0.12321  1.0000
  H   H1121     1.0  0.56343  0.92327  0.42349  1.0000
  H   H1122     1.0  0.62922  0.93062  0.00008  1.0000
  H   H1123     1.0  0.64414  0.93673  0.03334  1.0000
  H   H1124     1.0  0.64652  0.84051  0.11628  1.0000
  H   H1125     1.0  0.34610  0.91314  0.39676  1.0000
  C   C707      1.0  0.59186  0.97552  0.08811  1.0000
  C   C708      1.0  0.37098  0.94764  0.07428  1.0000
  S   S301      1.0  0.36647  0.96918  0.15671  1.0000
  H   H1126     1.0  0.35882  0.90295  0.21437  1.0000
  H   H1127     1.0  0.53322  0.85756  0.02761  1.0000
  H   H1128     1.0  0.36622  0.95504  0.05553  1.0000
  S   S302      1.0  0.34517  0.86740  0.36125  1.0000
  H   H1129     1.0  0.64059  0.87287  0.15139  1.0000
  C   C709      1.0  0.38734  0.94575  0.11065  1.0000
  C   C710      1.0  0.36029  0.88143  0.20188  1.0000
  H   H1130     1.0  0.38817  0.84915  0.34379  1.0000
  C   C711      1.0  0.61623  0.95958  0.01167  1.0000
  H   H1131     1.0  0.36433  0.91919  0.16812  1.0000
  H   H1132     1.0  0.62826  0.85869  0.11199  1.0000
  C   C712      1.0  0.65010  0.94632  0.01721  1.0000
  C   C713      1.0  0.35071  0.87679  0.38355  1.0000
  H   H1133     1.0  0.53812  0.89873  0.47406  1.0000
  H   H1134     1.0  0.63287  0.84890  0.14469  1.0000
  H   H1135     1.0  0.55006  0.94332  0.41731  1.0000
  N   N68       1.0  0.58232  0.94327  0.16823  1.0000
  C   C714      1.0  0.60211  0.94817  0.16243  1.0000
  C   C715      1.0  0.57675  0.93652  0.19719  1.0000
  C   C716      1.0  0.58363  0.93122  0.15293  1.0000
  C   C717      1.0  0.56677  0.95723  0.16038  1.0000
  H   H1136     1.0  0.40246  0.82777  0.98741  1.0000
  H   H1137     1.0  0.61424  0.93789  0.16777  1.0000
  H   H1138     1.0  0.60164  0.95714  0.17394  1.0000
  H   H1139     1.0  0.56154  0.93327  0.20250  1.0000
  H   H1140     1.0  0.58767  0.92559  0.20381  1.0000
  H   H1141     1.0  0.57630  0.94512  0.20931  1.0000
  H   H1142     1.0  0.56857  0.92823  0.15515  1.0000
  N   N69       1.0  0.38851  0.84553  0.30488  1.0000
  C   C718      1.0  0.36279  0.87458  0.17993  1.0000
  H   H1143     1.0  0.57026  0.96242  0.13854  1.0000
  H   H1144     1.0  0.56565  0.96671  0.17116  1.0000
  H   H1145     1.0  0.55157  0.95405  0.16489  1.0000
  N   N70       1.0  0.49661  0.87026  0.40343  1.0000
  C   C719      1.0  0.50708  0.86406  0.42633  1.0000
  C   C720      1.0  0.51008  0.86559  0.37918  1.0000
  C   C721      1.0  0.49125  0.88776  0.39883  1.0000
  C   C722      1.0  0.47801  0.86364  0.40936  1.0000
  H   H1146     1.0  0.49733  0.86741  0.44495  1.0000
  H   H1147     1.0  0.52116  0.86886  0.42253  1.0000
  H   H1148     1.0  0.51138  0.85091  0.43045  1.0000
  H   H1149     1.0  0.52431  0.87033  0.37413  1.0000
  H   H1150     1.0  0.51447  0.85247  0.38194  1.0000
  H   H1151     1.0  0.50274  0.87021  0.36144  1.0000
  H   H1152     1.0  0.48117  0.89169  0.41679  1.0000
  H   H1153     1.0  0.48329  0.89289  0.38175  1.0000
  H   H1154     1.0  0.50495  0.89312  0.39433  1.0000
  H   H1155     1.0  0.46747  0.86691  0.42755  1.0000
  H   H1156     1.0  0.48146  0.85047  0.41307  1.0000
  H   H1157     1.0  0.46963  0.86817  0.39260  1.0000
  C   C723      1.0  0.39280  0.85451  0.32214  1.0000
  H   H1158     1.0  0.37844  0.97762  0.09732  1.0000
  C   C724      1.0  0.36265  0.95700  0.18866  1.0000
  C   C725      1.0  0.34586  0.89328  0.38062  1.0000
  N   N71       1.0  0.57483  0.93747  0.38558  1.0000
  C   C726      1.0  0.57633  0.95425  0.37373  1.0000
  C   C727      1.0  0.59530  0.92752  0.38272  1.0000
  C   C728      1.0  0.56236  0.93240  0.37154  1.0000
  C   C729      1.0  0.56533  0.93569  0.41427  1.0000
  H   H1159     1.0  0.58353  0.95595  0.35207  1.0000
  H   H1160     1.0  0.58561  0.95848  0.38387  1.0000
  H   H1161     1.0  0.56115  0.96210  0.37527  1.0000
  H   H1162     1.0  0.59473  0.91477  0.39108  1.0000
  H   H1163     1.0  0.60296  0.92865  0.36132  1.0000
  H   H1164     1.0  0.60506  0.93086  0.39334  1.0000
  H   H1165     1.0  0.54665  0.93936  0.37381  1.0000
  H   H1166     1.0  0.59410  0.92002  0.15968  1.0000
  H   H1167     1.0  0.35759  0.85731  0.30824  1.0000
  Fe  Fe149     1.0  0.33802  0.87929  0.08032  1.0000
  H   H1168     1.0  0.39654  0.93391  0.10825  1.0000
  Fe  Fe150     1.0  0.37123  0.89017  0.03492  1.0000
  H   H1169     1.0  0.34625  0.92575  0.99282  1.0000
  S   S303      1.0  0.36975  0.91165  0.11673  1.0000
  C   C730      1.0  0.36383  0.90676  0.17134  1.0000
  C   C731      1.0  0.66419  0.91272  0.23078  1.0000
  S   S304      1.0  0.36419  0.91464  0.04323  1.0000
  H   H1170     1.0  0.35709  0.94491  0.08907  1.0000
  C   C732      1.0  0.52876  0.83904  0.99659  1.0000
  H   H1171     1.0  0.38006  0.93613  0.06995  1.0000
  N   N72       1.0  0.66228  0.91927  0.25448  1.0000
  H   H1172     1.0  0.65185  0.95549  0.02685  1.0000
  C   C733      1.0  0.64561  0.93320  0.25458  1.0000
  C   C734      1.0  0.35006  0.90040  0.39902  1.0000
  H   H1173     1.0  0.38579  0.86570  0.27199  1.0000
  C   C735      1.0  0.39430  0.85331  0.27641  1.0000
  H   H1174     1.0  0.36197  0.91964  0.48040  1.0000
  H   H1175     1.0  0.51671  0.83911  0.01494  1.0000
  H   H1176     1.0  0.59578  0.89232  0.99831  1.0000
  H   H1177     1.0  0.55725  0.84621  0.01498  1.0000
  H   H1178     1.0  0.37179  0.98527  0.21759  1.0000
  H   H1179     1.0  0.63094  0.93006  0.25515  1.0000
  C   C736      1.0  0.35168  0.94319  0.24288  1.0000
  H   H1180     1.0  0.39714  0.82205  0.29715  1.0000
  C   C737      1.0  0.40015  0.82914  0.30978  1.0000
  H   H1181     1.0  0.63516  0.88296  0.11925  1.0000
  Fe  Fe151     1.0  0.38419  0.88500  0.47182  1.0000
  C   C738      1.0  0.66435  0.87328  0.21137  1.0000
  H   H1182     1.0  0.65021  0.90851  0.23128  1.0000
  S   S305      1.0  0.33897  0.88938  0.03648  1.0000
  H   H1183     1.0  0.64844  0.94281  0.23647  1.0000
  H   H1184     1.0  0.50738  0.86826  0.99945  1.0000
  H   H1185     1.0  0.55169  0.86719  0.00292  1.0000
  C   C739      1.0  0.33957  0.94369  0.22506  1.0000
  N   N73       1.0  0.63659  0.95311  0.99772  1.0000
  H   H1186     1.0  0.65894  0.88296  0.12696  1.0000
  C   C740      1.0  0.54500  0.85631  0.00928  1.0000
  H   H1187     1.0  0.33512  0.95161  0.18450  1.0000
  S   S306      1.0  0.34284  0.93740  0.27728  1.0000
  Fe  Fe152     1.0  0.33515  0.97950  0.14956  1.0000
  H   H1188     1.0  0.54101  0.82866  0.00104  1.0000
  H   H1189     1.0  0.64603  0.97564  0.98603  1.0000
  H   H1190     1.0  0.36599  0.97896  0.07040  1.0000
  H   H1191     1.0  0.57648  0.98207  0.09134  1.0000
  C   C741      1.0  0.58467  0.89375  0.98626  1.0000
  C   C742      1.0  0.33586  0.98273  0.25014  1.0000
  H   H1192     1.0  0.34797  0.97308  0.25765  1.0000
  S   S307      1.0  0.57857  0.89885  0.48082  1.0000
  C   C743      1.0  0.63522  0.94056  0.98497  1.0000
  H   H1193     1.0  0.66546  0.94099  0.00752  1.0000
  C   C744      1.0  0.66530  0.86524  0.09059  1.0000
  Fe  Fe153     1.0  0.33309  0.88297  0.32506  1.0000
  Fe  Fe154     1.0  0.33287  0.91424  0.28514  1.0000
  Fe  Fe155     1.0  0.42689  0.87736  0.48267  1.0000
  C   C745      1.0  0.37172  0.87555  0.97595  1.0000
  C   C746      1.0  0.58308  0.83898  0.60531  1.0000
  H   H1194     1.0  0.37636  0.88517  0.68661  1.0000
  H   H1195     1.0  0.61440  0.81496  0.59815  1.0000
  S   S308      1.0  0.55230  0.96606  0.67930  1.0000
  H   H1196     1.0  0.36649  0.86108  0.75578  1.0000
  Fe  Fe156     1.0  0.56985  0.96861  0.70752  1.0000
  S   S309      1.0  0.58104  0.94563  0.73433  1.0000
  H   H1197     1.0  0.37722  0.78619  0.60790  1.0000
  Fe  Fe157     1.0  0.53361  0.89538  0.85410  1.0000
  S   S310      1.0  0.53132  0.87111  0.85193  1.0000
  S   S311      1.0  0.51682  0.91717  0.83002  1.0000
  Fe  Fe158     1.0  0.56413  0.88311  0.89102  1.0000
  S   S312      1.0  0.56517  0.85766  0.89101  1.0000
  S   S313      1.0  0.58498  0.89007  0.91102  1.0000
  Fe  Fe159     1.0  0.56498  0.86588  0.84718  1.0000
  S   S314      1.0  0.58325  0.85376  0.81416  1.0000
  Fe  Fe160     1.0  0.53144  0.86499  0.89587  1.0000
  S   S315      1.0  0.51285  0.84848  0.92596  1.0000
  S   S316      1.0  0.56747  0.89062  0.84640  1.0000
  S   S317      1.0  0.53028  0.88990  0.89895  1.0000
  Fe  Fe161     1.0  0.43604  0.84038  0.85482  1.0000
  S   S318      1.0  0.42844  0.86600  0.85718  1.0000
  S   S319      1.0  0.46002  0.82188  0.87280  1.0000
  S   S320      1.0  0.43488  0.84465  0.81148  1.0000
  S   S321      1.0  0.54757  0.88182  0.55139  1.0000
  Fe  Fe162     1.0  0.53664  0.92659  0.55406  1.0000
  S   S322      1.0  0.52517  0.90808  0.58841  1.0000
  S   S323      1.0  0.52565  0.95146  0.56103  1.0000
  Fe  Fe163     1.0  0.55573  0.89318  0.57950  1.0000
  S   S324      1.0  0.57024  0.87967  0.61453  1.0000
  Fe  Fe164     1.0  0.51779  0.89851  0.55750  1.0000
  S   S325      1.0  0.48724  0.89176  0.56761  1.0000
  S   S326      1.0  0.56822  0.91250  0.54757  1.0000
  H   H1198     1.0  0.38250  0.75323  0.57405  1.0000
  C   C747      1.0  0.37967  0.76536  0.57789  1.0000
  S   S327      1.0  0.41905  0.86025  0.52142  1.0000
  Fe  Fe165     1.0  0.56940  0.78809  0.71010  1.0000
  S   S328      1.0  0.55895  0.81036  0.72603  1.0000
  S   S329      1.0  0.41829  0.79034  0.67612  1.0000
  Fe  Fe166     1.0  0.52907  0.77726  0.73436  1.0000
  S   S330      1.0  0.51547  0.79845  0.75263  1.0000
  H   H1199     1.0  0.41011  0.84343  0.76318  1.0000
  Fe  Fe167     1.0  0.52998  0.81211  0.71342  1.0000
  S   S331      1.0  0.51278  0.83545  0.69464  1.0000
  Fe  Fe168     1.0  0.54554  0.79502  0.76386  1.0000
  S   S332      1.0  0.54644  0.79745  0.80488  1.0000
  S   S333      1.0  0.54131  0.79120  0.69383  1.0000
  S   S334      1.0  0.55824  0.77245  0.74925  1.0000
  Fe  Fe169     1.0  0.40560  0.77090  0.70697  1.0000
  H   H1200     1.0  0.43586  0.81464  0.92711  1.0000
  C   C748      1.0  0.48899  0.75678  0.73881  1.0000
  C   C749      1.0  0.47787  0.76963  0.72326  1.0000
  C   C750      1.0  0.45813  0.76903  0.72126  1.0000
  C   C751      1.0  0.44935  0.75579  0.73538  1.0000
  H   H1201     1.0  0.41126  0.84348  0.71553  1.0000
  H   H1202     1.0  0.41793  0.92751  0.70556  1.0000
  H   H1203     1.0  0.48453  0.77988  0.71262  1.0000
  H   H1204     1.0  0.44960  0.77894  0.70934  1.0000
  S   S335      1.0  0.42164  0.77848  0.60794  1.0000
  C   C752      1.0  0.42147  0.90253  0.76596  1.0000
  C   C753      1.0  0.55364  0.86828  0.63777  1.0000
  C   C754      1.0  0.55904  0.85925  0.66188  1.0000
  C   C755      1.0  0.54633  0.84937  0.67978  1.0000
  C   C756      1.0  0.52821  0.84854  0.67360  1.0000
  C   C757      1.0  0.52259  0.85792  0.64986  1.0000
  C   C758      1.0  0.53535  0.86766  0.63187  1.0000
  H   H1205     1.0  0.57316  0.85973  0.66655  1.0000
  H   H1206     1.0  0.55054  0.84248  0.69836  1.0000
  H   H1207     1.0  0.50857  0.85735  0.64500  1.0000
  H   H1208     1.0  0.53112  0.87442  0.61320  1.0000
  C   C759      1.0  0.47936  0.88971  0.53984  1.0000
  C   C760      1.0  0.45923  0.88855  0.54232  1.0000
  C   C761      1.0  0.45263  0.88675  0.52047  1.0000
  C   C762      1.0  0.45308  0.95560  0.56863  1.0000
  H   H1209     1.0  0.44870  0.88915  0.56108  1.0000
  H   H1210     1.0  0.43703  0.88604  0.52247  1.0000
  C   C763      1.0  0.57302  0.83809  0.81179  1.0000
  C   C764      1.0  0.56010  0.83063  0.83372  1.0000
  C   C765      1.0  0.55219  0.81803  0.83151  1.0000
  C   C766      1.0  0.55675  0.81312  0.80720  1.0000
  C   C767      1.0  0.56952  0.82069  0.78524  1.0000
  C   C768      1.0  0.57780  0.83303  0.78761  1.0000
  H   H1211     1.0  0.55640  0.83444  0.85250  1.0000
  H   H1212     1.0  0.54234  0.81220  0.84862  1.0000
  H   H1213     1.0  0.57328  0.81692  0.76655  1.0000
  H   H1214     1.0  0.58780  0.83880  0.77064  1.0000
  C   C769      1.0  0.49913  0.84110  0.90975  1.0000
  C   C770      1.0  0.48976  0.85106  0.88912  1.0000
  C   C771      1.0  0.47811  0.84515  0.87710  1.0000
  C   C772      1.0  0.47612  0.82922  0.88543  1.0000
  C   C773      1.0  0.48601  0.81918  0.90546  1.0000
  C   C774      1.0  0.49723  0.82517  0.91791  1.0000
  H   H1215     1.0  0.49101  0.86344  0.88298  1.0000
  H   H1216     1.0  0.47062  0.85295  0.86153  1.0000
  H   H1217     1.0  0.48460  0.80684  0.91182  1.0000
  H   H1218     1.0  0.50461  0.81741  0.93367  1.0000
  C   C775      1.0  0.40113  0.90537  0.77858  1.0000
  C   C776      1.0  0.38671  0.91575  0.76456  1.0000
  H   H1219     1.0  0.39649  0.89968  0.79920  1.0000
  C   C777      1.0  0.56147  0.93747  0.75765  1.0000
  C   C778      1.0  0.56483  0.92123  0.76907  1.0000
  C   C779      1.0  0.55048  0.91479  0.79021  1.0000
  C   C780      1.0  0.53298  0.92464  0.80055  1.0000
  C   C781      1.0  0.52899  0.94073  0.78810  1.0000
  C   C782      1.0  0.54318  0.94713  0.76648  1.0000
  H   H1220     1.0  0.57877  0.91366  0.76191  1.0000
  H   H1221     1.0  0.55312  0.90221  0.79873  1.0000
  H   H1222     1.0  0.51538  0.94838  0.79589  1.0000
  H   H1223     1.0  0.54044  0.95967  0.75767  1.0000
  C   C783      1.0  0.56782  0.97006  0.59447  1.0000
  H   H1224     1.0  0.45578  0.82457  0.94997  1.0000
  C   C784      1.0  0.53402  0.96977  0.58981  1.0000
  C   C785      1.0  0.54204  0.95875  0.57338  1.0000
  C   C786      1.0  0.56296  0.95362  0.56713  1.0000
  C   C787      1.0  0.57583  0.95950  0.57727  1.0000
  C   C788      1.0  0.50131  0.97036  0.66516  1.0000
  C   C789      1.0  0.42702  0.84572  0.92720  1.0000
  H   H1225     1.0  0.56927  0.94536  0.55408  1.0000
  H   H1226     1.0  0.59204  0.95560  0.57221  1.0000
  H   H1227     1.0  0.39228  0.83029  0.55701  1.0000
  C   C790      1.0  0.57664  0.89326  0.94398  1.0000
  H   H1228     1.0  0.57726  0.82534  0.65779  1.0000
  H   H1229     1.0  0.51688  0.97173  0.65829  1.0000
  H   H1230     1.0  0.54496  0.89827  0.94299  1.0000
  C   C791      1.0  0.60464  0.81374  0.61848  1.0000
  S   S336      1.0  0.43929  0.88829  0.78228  1.0000
  H   H1231     1.0  0.46260  0.92216  0.54450  1.0000
  H   H1232     1.0  0.45472  0.93124  0.61130  1.0000
  H   H1233     1.0  0.44328  0.90878  0.72997  1.0000
  C   C792      1.0  0.38831  0.82923  0.72506  1.0000
  H   H1234     1.0  0.61133  0.81860  0.63101  1.0000
  H   H1235     1.0  0.42367  0.86414  0.57307  1.0000
  H   H1236     1.0  0.58919  0.84476  0.61714  1.0000
  H   H1237     1.0  0.56737  0.84553  0.60418  1.0000
  C   C793      1.0  0.60939  0.78756  0.74897  1.0000
  C   C794      1.0  0.61899  0.75960  0.76723  1.0000
  C   C795      1.0  0.65289  0.75231  0.68935  1.0000
  C   C796      1.0  0.35211  0.91847  0.93107  1.0000
  C   C797      1.0  0.64486  0.96597  0.97702  1.0000
  H   H1238     1.0  0.59360  0.78873  0.80054  1.0000
  C   C798      1.0  0.49282  0.88939  0.51533  1.0000
  H   H1239     1.0  0.33740  0.94774  0.94114  1.0000
  H   H1240     1.0  0.36706  0.75631  0.64577  1.0000
  C   C799      1.0  0.59740  0.77677  0.79570  1.0000
  H   H1241     1.0  0.58350  0.77466  0.79135  1.0000
  N   N74       1.0  0.61460  0.77564  0.77285  1.0000
  N   N75       1.0  0.50317  0.84488  0.78766  1.0000
  C   C800      1.0  0.48472  0.85600  0.78069  1.0000
  C   C801      1.0  0.49745  0.83069  0.80741  1.0000
  C   C802      1.0  0.51426  0.85274  0.79934  1.0000
  C   C803      1.0  0.51621  0.84004  0.76329  1.0000
  H   H1242     1.0  0.47452  0.85992  0.79861  1.0000
  H   H1243     1.0  0.47594  0.85045  0.77189  1.0000
  H   H1244     1.0  0.48841  0.86684  0.76575  1.0000
  H   H1245     1.0  0.51093  0.82219  0.81368  1.0000
  H   H1246     1.0  0.48734  0.83391  0.82584  1.0000
  H   H1247     1.0  0.48941  0.82422  0.79922  1.0000
  H   H1248     1.0  0.51854  0.86367  0.78526  1.0000
  H   H1249     1.0  0.52846  0.84480  0.80428  1.0000
  H   H1250     1.0  0.50508  0.85611  0.81823  1.0000
  H   H1251     1.0  0.53001  0.83134  0.76799  1.0000
  H   H1252     1.0  0.52116  0.85037  0.74803  1.0000
  H   H1253     1.0  0.50813  0.83435  0.75370  1.0000
  N   N76       1.0  0.42224  0.84453  0.60707  1.0000
  C   C804      1.0  0.43414  0.83267  0.59133  1.0000
  C   C805      1.0  0.40042  0.84518  0.60945  1.0000
  H   H1254     1.0  0.44357  0.86033  0.59132  1.0000
  C   C806      1.0  0.42716  0.83995  0.63408  1.0000
  H   H1255     1.0  0.41383  0.84956  0.91707  1.0000
  H   H1256     1.0  0.45935  0.95653  0.74758  1.0000
  H   H1257     1.0  0.39598  0.83363  0.62041  1.0000
  H   H1258     1.0  0.60689  0.88940  0.95103  1.0000
  C   C807      1.0  0.36281  0.78276  0.60817  1.0000
  C   C808      1.0  0.46056  0.96777  0.68117  1.0000
  H   H1259     1.0  0.56558  0.84361  0.96740  1.0000
  H   H1260     1.0  0.35868  0.87757  0.77187  1.0000
  C   C809      1.0  0.36879  0.87790  0.70528  1.0000
  H   H1261     1.0  0.60069  0.76793  0.81411  1.0000
  H   H1262     1.0  0.37301  0.77388  0.56128  1.0000
  C   C810      1.0  0.48621  0.88750  0.49346  1.0000
  N   N77       1.0  0.47822  0.93334  0.75267  1.0000
  C   C811      1.0  0.48044  0.93230  0.72456  1.0000
  C   C812      1.0  0.49724  0.92544  0.76216  1.0000
  C   C813      1.0  0.46155  0.92543  0.76959  1.0000
  H   H1263     1.0  0.41834  0.86959  0.60465  1.0000
  H   H1264     1.0  0.48705  0.93812  0.58442  1.0000
  H   H1265     1.0  0.48434  0.91976  0.72235  1.0000
  C   C814      1.0  0.35833  0.93203  0.52268  1.0000
  C   C815      1.0  0.46616  0.88599  0.49612  1.0000
  S   S337      1.0  0.40037  0.89657  0.49121  1.0000
  H   H1266     1.0  0.37860  0.74280  0.62390  1.0000
  H   H1267     1.0  0.43117  0.82054  0.60139  1.0000
  H   H1268     1.0  0.39623  0.84825  0.58940  1.0000
  H   H1269     1.0  0.35678  0.94484  0.51282  1.0000
  C   C816      1.0  0.34540  0.90791  0.53173  1.0000
  H   H1270     1.0  0.52215  0.83707  0.98077  1.0000
  C   C817      1.0  0.38961  0.88324  0.73115  1.0000
  H   H1271     1.0  0.50309  0.95549  0.63796  1.0000
  H   H1272     1.0  0.60550  0.80083  0.62749  1.0000
  H   H1273     1.0  0.59218  0.84086  0.58458  1.0000
  C   C818      1.0  0.63260  0.77864  0.77945  1.0000
  Fe  Fe170     1.0  0.55745  0.90242  0.51970  1.0000
  H   H1274     1.0  0.62974  0.79067  0.78380  1.0000
  S   S338      1.0  0.52680  0.91827  0.52339  1.0000
  H   H1275     1.0  0.50837  0.89034  0.51334  1.0000
  Fe  Fe171     1.0  0.42454  0.87017  0.81474  1.0000
  H   H1276     1.0  0.34269  0.87403  0.75283  1.0000
  N   N78       1.0  0.58354  0.82195  0.61748  1.0000
  C   C819      1.0  0.39264  0.92350  0.73799  1.0000
  S   S339      1.0  0.37420  0.93511  0.71980  1.0000
  C   C820      1.0  0.41315  0.92134  0.72586  1.0000
  C   C821      1.0  0.42754  0.91081  0.73978  1.0000
  Fe  Fe172     1.0  0.42939  0.95512  0.65043  1.0000
  C   C822      1.0  0.33823  0.74216  0.68868  1.0000
  H   H1277     1.0  0.39889  0.87112  0.73178  1.0000
  C   C823      1.0  0.57136  0.82013  0.64495  1.0000
  Fe  Fe173     1.0  0.39146  0.87888  0.52889  1.0000
  S   S340      1.0  0.60136  0.78555  0.68569  1.0000
  H   H1278     1.0  0.58820  0.91248  0.85775  1.0000
  H   H1279     1.0  0.58663  0.93012  0.86888  1.0000
  H   H1280     1.0  0.58385  0.81604  0.58040  1.0000
  H   H1281     1.0  0.55526  0.82601  0.64508  1.0000
  H   H1282     1.0  0.57163  0.80741  0.65473  1.0000
  C   C824      1.0  0.48326  0.93558  0.56683  1.0000
  C   C825      1.0  0.59380  0.92384  0.85224  1.0000
  H   H1283     1.0  0.61037  0.92072  0.85172  1.0000
  S   S341      1.0  0.39472  0.76190  0.67799  1.0000
  Fe  Fe174     1.0  0.40481  0.78295  0.64811  1.0000
  C   C826      1.0  0.49348  0.96124  0.65357  1.0000
  C   C827      1.0  0.57504  0.81490  0.60129  1.0000
  H   H1284     1.0  0.57509  0.80205  0.61003  1.0000
  Fe  Fe175     1.0  0.38759  0.80500  0.68684  1.0000
  S   S342      1.0  0.38890  0.82931  0.69151  1.0000
  H   H1285     1.0  0.36208  0.92712  0.91985  1.0000
  C   C828      1.0  0.38452  0.92060  0.60136  1.0000
  H   H1286     1.0  0.64469  0.77711  0.67124  1.0000
  C   C829      1.0  0.40084  0.83739  0.73139  1.0000
  C   C830      1.0  0.61824  0.76738  0.69301  1.0000
  H   H1287     1.0  0.49244  0.93860  0.71104  1.0000
  H   H1288     1.0  0.56042  0.92647  0.83296  1.0000
  H   H1289     1.0  0.55921  0.94411  0.84407  1.0000
  C   C831      1.0  0.63912  0.76661  0.68335  1.0000
  C   C832      1.0  0.40021  0.83737  0.75829  1.0000
  H   H1290     1.0  0.37896  0.92441  0.62015  1.0000
  C   C833      1.0  0.42199  0.81869  0.94140  1.0000
  Fe  Fe176     1.0  0.57043  0.98258  0.64876  1.0000
  H   H1291     1.0  0.63506  0.97134  0.96192  1.0000
  H   H1292     1.0  0.39719  0.89147  0.71390  1.0000
  S   S343      1.0  0.37516  0.78581  0.71940  1.0000
  H   H1293     1.0  0.55909  0.82083  0.60026  1.0000
  N   N79       1.0  0.58911  0.93350  0.82631  1.0000
  C   C834      1.0  0.56696  0.93737  0.82817  1.0000
  H   H1294     1.0  0.61530  0.92100  0.80353  1.0000
  C   C835      1.0  0.38767  0.90144  0.57421  1.0000
  C   C836      1.0  0.59863  0.92450  0.80505  1.0000
  H   H1295     1.0  0.59588  0.93165  0.78508  1.0000
  H   H1296     1.0  0.59012  0.95552  0.83516  1.0000
  H   H1297     1.0  0.39138  0.75788  0.62468  1.0000
  H   H1298     1.0  0.60610  0.79983  0.75235  1.0000
  C   C837      1.0  0.59701  0.94836  0.81963  1.0000
  H   H1299     1.0  0.56291  0.94470  0.80896  1.0000
  H   H1300     1.0  0.61371  0.94592  0.81792  1.0000
  H   H1301     1.0  0.43251  0.77633  0.55352  1.0000
  S   S344      1.0  0.40415  0.83665  0.86928  1.0000
  S   S345      1.0  0.41239  0.93646  0.65174  1.0000
  S   S346      1.0  0.46323  0.94941  0.64563  1.0000
  H   H1302     1.0  0.47212  0.95142  0.77533  1.0000
  N   N80       1.0  0.36861  0.88376  0.72911  1.0000
  C   C838      1.0  0.59092  0.89204  0.95951  1.0000
  C   C839      1.0  0.35451  0.92226  0.97372  1.0000
  H   H1303     1.0  0.59254  0.91348  0.80883  1.0000
  C   C840      1.0  0.44149  0.82821  0.96387  1.0000
  C   C841      1.0  0.38940  0.88132  0.97252  1.0000
  H   H1304     1.0  0.59367  0.95589  0.80011  1.0000
  C   C842      1.0  0.35867  0.87369  0.75345  1.0000
  Fe  Fe177     1.0  0.40119  0.85212  0.49950  1.0000
  S   S347      1.0  0.51372  0.75636  0.74254  1.0000
  H   H1305     1.0  0.56595  0.91852  0.60472  1.0000
  C   C843      1.0  0.47304  0.96008  0.66137  1.0000
  C   C844      1.0  0.46063  0.74306  0.75070  1.0000
  H   H1306     1.0  0.58260  0.92961  0.60979  1.0000
  C   C845      1.0  0.43609  0.79835  0.79811  1.0000
  C   C846      1.0  0.57484  0.91934  0.61904  1.0000
  H   H1307     1.0  0.58672  0.90840  0.62094  1.0000
  N   N81       1.0  0.36639  0.76640  0.60423  1.0000
  H   H1308     1.0  0.43038  0.83546  0.57107  1.0000
  H   H1309     1.0  0.40638  0.88275  0.90557  1.0000
  N   N82       1.0  0.34042  0.92257  0.95663  1.0000
  H   H1310     1.0  0.51012  0.93128  0.75024  1.0000
  H   H1311     1.0  0.60562  0.75695  0.76238  1.0000
  N   N83       1.0  0.42851  0.78668  0.78960  1.0000
  H   H1312     1.0  0.41562  0.88832  0.94433  1.0000
  H   H1313     1.0  0.58644  0.91257  0.66637  1.0000
  H   H1314     1.0  0.53492  0.93658  0.66063  1.0000
  N   N84       1.0  0.56177  0.92106  0.64526  1.0000
  H   H1315     1.0  0.55197  0.94617  0.63357  1.0000
  C   C847      1.0  0.54556  0.93518  0.64147  1.0000
  N   N85       1.0  0.46123  0.93870  0.56840  1.0000
  C   C848      1.0  0.57402  0.92299  0.66306  1.0000
  H   H1316     1.0  0.54341  0.90505  0.64420  1.0000
  C   C849      1.0  0.38086  0.90624  0.59872  1.0000
  C   C850      1.0  0.42365  0.78806  0.55443  1.0000
  C   C851      1.0  0.39458  0.93034  0.57926  1.0000
  Fe  Fe178     1.0  0.39617  0.86273  0.86803  1.0000
  H   H1317     1.0  0.49589  0.92582  0.78348  1.0000
  H   H1318     1.0  0.45126  0.80014  0.78599  1.0000
  C   C852      1.0  0.34685  0.76216  0.60540  1.0000
  C   C853      1.0  0.39864  0.91080  0.55269  1.0000
  C   C854      1.0  0.55266  0.90679  0.65734  1.0000
  H   H1319     1.0  0.53663  0.93462  0.62698  1.0000
  H   H1320     1.0  0.58110  0.93370  0.65436  1.0000
  C   C855      1.0  0.41650  0.79254  0.57905  1.0000
  Fe  Fe179     1.0  0.40214  0.84316  0.82590  1.0000
  H   H1321     1.0  0.43724  0.76218  0.78702  1.0000
  H   H1322     1.0  0.54270  0.90761  0.67715  1.0000
  H   H1323     1.0  0.56449  0.89588  0.66024  1.0000
  H   H1324     1.0  0.56466  0.92449  0.68299  1.0000
  H   H1325     1.0  0.34136  0.90120  0.72518  1.0000
  C   C856      1.0  0.44287  0.77137  0.79252  1.0000
  C   C857      1.0  0.39675  0.88064  0.92518  1.0000
  H   H1326     1.0  0.36520  0.93050  0.96361  1.0000
  C   C858      1.0  0.40192  0.88382  0.94710  1.0000
  C   C859      1.0  0.41910  0.79856  0.53096  1.0000
  H   H1327     1.0  0.42442  0.79492  0.51200  1.0000
  C   C860      1.0  0.40801  0.81383  0.53179  1.0000
  S   S348      1.0  0.39141  0.86904  0.82558  1.0000
  H   H1328     1.0  0.41574  0.80403  0.75835  1.0000
  H   H1329     1.0  0.40229  0.77587  0.80009  1.0000
  Fe  Fe180     1.0  0.36540  0.77867  0.68698  1.0000
  H   H1330     1.0  0.40456  0.90702  0.53405  1.0000
  Fe  Fe181     1.0  0.38856  0.94889  0.68060  1.0000
  H   H1331     1.0  0.42073  0.78408  0.75420  1.0000
  C   C861      1.0  0.40506  0.80774  0.58013  1.0000
  C   C862      1.0  0.40166  0.92535  0.55499  1.0000
  S   S349      1.0  0.37523  0.79952  0.65544  1.0000
  H   H1332     1.0  0.40944  0.93280  0.53780  1.0000
  H   H1333     1.0  0.42572  0.81010  0.79579  1.0000
  H   H1334     1.0  0.45867  0.98272  0.70818  1.0000
  C   C863      1.0  0.38680  0.82940  0.77878  1.0000
  H   H1335     1.0  0.39931  0.81114  0.59918  1.0000
  H   H1336     1.0  0.37244  0.89901  0.61554  1.0000
  S   S350      1.0  0.39772  0.94913  0.58059  1.0000
  H   H1337     1.0  0.45792  0.77245  0.77933  1.0000
  H   H1338     1.0  0.44125  0.79441  0.74796  1.0000
  C   C864      1.0  0.42649  0.79256  0.76130  1.0000
  H   H1339     1.0  0.34891  0.74980  0.60287  1.0000
  H   H1340     1.0  0.36520  0.81508  0.74093  1.0000
  C   C865      1.0  0.37512  0.82119  0.74563  1.0000
  H   H1341     1.0  0.50135  0.91273  0.76097  1.0000
  Fe  Fe182     1.0  0.39755  0.95427  0.62033  1.0000
  C   C866      1.0  0.40110  0.81853  0.55636  1.0000
  H   H1342     1.0  0.46417  0.94197  0.52588  1.0000
  H   H1343     1.0  0.64584  0.77789  0.76257  1.0000
  H   H1344     1.0  0.34202  0.91818  0.91786  1.0000
  H   H1345     1.0  0.51784  0.97386  0.59453  1.0000
  H   H1346     1.0  0.44035  0.93738  0.54552  1.0000
  H   H1347     1.0  0.46613  0.93774  0.71707  1.0000
  C   C867      1.0  0.48031  0.74348  0.75217  1.0000
  C   C868      1.0  0.45690  0.93491  0.54499  1.0000
  H   H1348     1.0  0.44527  0.76677  0.81344  1.0000
  H   H1349     1.0  0.59580  0.78570  0.74354  1.0000
  S   S351      1.0  0.38142  0.88421  0.57038  1.0000
  C   C869      1.0  0.40856  0.78440  0.80643  1.0000
  H   H1350     1.0  0.43647  0.95846  0.56953  1.0000
  C   C870      1.0  0.37429  0.82136  0.77234  1.0000
  S   S352      1.0  0.40677  0.96623  0.68183  1.0000
  H   H1351     1.0  0.35317  0.87826  0.70301  1.0000
  N   N86       1.0  0.42396  0.83249  0.95053  1.0000
  H   H1352     1.0  0.35257  0.74055  0.69456  1.0000
  H   H1353     1.0  0.40951  0.77978  0.82789  1.0000
  H   H1354     1.0  0.39740  0.79574  0.80504  1.0000
  H   H1355     1.0  0.48592  0.95655  0.74174  1.0000
  C   C871      1.0  0.55605  0.89684  0.95503  1.0000
  H   H1356     1.0  0.43512  0.93065  0.59503  1.0000
  H   H1357     1.0  0.62188  0.78690  0.73117  1.0000
  H   H1358     1.0  0.42946  0.85613  0.93307  1.0000
  S   S353      1.0  0.38562  0.82858  0.81274  1.0000
  H   H1359     1.0  0.43744  0.79446  0.81953  1.0000
  S   S354      1.0  0.40246  0.82646  0.50188  1.0000
  C   C872      1.0  0.37910  0.87480  0.92869  1.0000
  H   H1360     1.0  0.44341  0.83843  0.97088  1.0000
  C   C873      1.0  0.42722  0.86031  0.59348  1.0000
  H   H1361     1.0  0.39008  0.88678  0.74965  1.0000
  H   H1362     1.0  0.59513  0.75415  0.71584  1.0000
  H   H1363     1.0  0.33900  0.77024  0.58952  1.0000
  H   H1364     1.0  0.44491  0.96671  0.68764  1.0000
  S   S355      1.0  0.59010  0.98344  0.67622  1.0000
  H   H1365     1.0  0.41809  0.84842  0.64676  1.0000
  S   S356      1.0  0.37186  0.96531  0.64919  1.0000
  H   H1366     1.0  0.45609  0.95872  0.58620  1.0000
  S   S357      1.0  0.33427  0.77455  0.68569  1.0000
  S   S358      1.0  0.37251  0.86908  0.51050  1.0000
  H   H1367     1.0  0.37094  0.91771  0.77429  1.0000
  C   C874      1.0  0.37627  0.75534  0.62557  1.0000
  H   H1368     1.0  0.55840  0.86459  0.95574  1.0000
  H   H1369     1.0  0.39466  0.76820  0.57675  1.0000
  H   H1370     1.0  0.44691  0.93102  0.76302  1.0000
  Fe  Fe183     1.0  0.39222  0.98174  0.64814  1.0000
  H   H1371     1.0  0.46451  0.91268  0.76874  1.0000
  S   S359      1.0  0.37207  0.87067  0.90187  1.0000
  C   C875      1.0  0.35733  0.90028  0.72653  1.0000
  H   H1372     1.0  0.49099  0.94299  0.54852  1.0000
  C   C876      1.0  0.61119  0.75375  0.70857  1.0000
  C   C877      1.0  0.47367  0.95019  0.75443  1.0000
  C   C878      1.0  0.45178  0.92869  0.59321  1.0000
  H   H1373     1.0  0.36433  0.90823  0.70828  1.0000
  H   H1374     1.0  0.36388  0.81518  0.78811  1.0000
  C   C879      1.0  0.46841  0.97674  0.69292  1.0000
  H   H1375     1.0  0.48987  0.92299  0.56634  1.0000
  H   H1376     1.0  0.46014  0.96341  0.55030  1.0000
  H   H1377     1.0  0.35714  0.90520  0.74395  1.0000
  H   H1378     1.0  0.63698  0.76986  0.79739  1.0000
  H   H1379     1.0  0.54664  0.85126  0.94717  1.0000
  H   H1380     1.0  0.44344  0.83955  0.63315  1.0000
  H   H1381     1.0  0.39099  0.85435  0.62054  1.0000
  H   H1382     1.0  0.63174  0.75837  0.74984  1.0000
  H   H1383     1.0  0.35281  0.86792  0.95685  1.0000
  H   H1384     1.0  0.45781  0.91585  0.59366  1.0000
  C   C880      1.0  0.36650  0.87244  0.95404  1.0000
  S   S360      1.0  0.58423  0.97591  0.60896  1.0000
  H   H1385     1.0  0.45067  0.83217  0.58850  1.0000
  S   S361      1.0  0.42375  0.75510  0.73734  1.0000
  C   C881      1.0  0.54687  0.97525  0.60068  1.0000
  H   H1386     1.0  0.45943  0.92593  0.79098  1.0000
  H   H1387     1.0  0.37695  0.86538  0.70663  1.0000
  H   H1388     1.0  0.35574  0.79152  0.59216  1.0000
  C   C882      1.0  0.64579  0.73868  0.70494  1.0000
  S   S362      1.0  0.41652  0.97206  0.61677  1.0000
  H   H1389     1.0  0.62503  0.94514  0.97025  1.0000
  H   H1390     1.0  0.42380  0.82800  0.64478  1.0000
  H   H1391     1.0  0.62317  0.75026  0.78469  1.0000
  H   H1392     1.0  0.52502  0.87889  0.97490  1.0000
  H   H1393     1.0  0.41946  0.80847  0.95846  1.0000
  H   H1394     1.0  0.35266  0.78402  0.62777  1.0000
  H   H1395     1.0  0.36076  0.90121  0.52532  1.0000
  H   H1396     1.0  0.40908  0.82166  0.93082  1.0000
  H   H1397     1.0  0.37400  0.92618  0.51501  1.0000
  H   H1398     1.0  0.33653  0.76294  0.62505  1.0000
  H   H1399     1.0  0.39186  0.84089  0.95996  1.0000
  H   H1400     1.0  0.51317  0.86607  0.96532  1.0000
  H   H1401     1.0  0.44046  0.84227  0.91207  1.0000
  H   H1402     1.0  0.36201  0.90657  0.93454  1.0000
  H   H1403     1.0  0.65033  0.93530  0.97446  1.0000
  H   H1404     1.0  0.54063  0.98350  0.61380  1.0000
  C   C883      1.0  0.55250  0.85334  0.96349  1.0000
  H   H1405     1.0  0.35692  0.93101  0.54454  1.0000
  C   C884      1.0  0.54979  0.89861  0.98172  1.0000
  C   C885      1.0  0.51978  0.86739  0.98164  1.0000
  H   H1406     1.0  0.34313  0.90668  0.55377  1.0000
  H   H1407     1.0  0.36370  0.91021  0.97900  1.0000
  N   N87       1.0  0.34319  0.92471  0.51736  1.0000
  H   H1408     1.0  0.33447  0.90186  0.52789  1.0000
  C   C886      1.0  0.48876  0.97813  0.68486  1.0000
  H   H1409     1.0  0.33609  0.89870  0.97492  1.0000
  C   C887      1.0  0.40535  0.83744  0.96951  1.0000
  H   H1410     1.0  0.45714  0.98636  0.61937  1.0000
  H   H1411     1.0  0.40639  0.84787  0.97671  1.0000
  H   H1412     1.0  0.66026  0.96151  0.96621  1.0000
  C   C888      1.0  0.34642  0.92562  0.48827  1.0000
  H   H1413     1.0  0.43977  0.81821  0.98155  1.0000
  C   C889      1.0  0.62491  0.73947  0.71449  1.0000
  H   H1414     1.0  0.33580  0.91968  0.48345  1.0000
  H   H1415     1.0  0.67237  0.19553  0.47850  1.0000
  H   H1416     1.0  0.68958  0.16808  0.65402  1.0000
  H   H1417     1.0  0.70124  0.18439  0.63400  1.0000
  H   H1418     1.0  0.68276  0.14793  0.79170  1.0000
  C   C890      1.0  0.67924  0.20087  0.75639  1.0000
  H   H1419     1.0  0.69461  0.19604  0.74788  1.0000
  H   H1420     1.0  0.67337  0.16882  0.61647  1.0000
  N   N88       1.0  0.67448  0.12934  0.77992  1.0000
  H   H1421     1.0  0.70172  0.13011  0.79163  1.0000
  H   H1422     1.0  0.71653  0.16642  0.64845  1.0000
  C   C891      1.0  0.68737  0.17195  0.60246  1.0000
  C   C892      1.0  0.67197  0.21724  0.75038  1.0000
  H   H1423     1.0  0.70070  0.20742  0.57293  1.0000
  S   S363      1.0  0.72472  0.20858  0.60903  1.0000
  C   C893      1.0  0.78660  0.23328  0.71432  1.0000
  H   H1424     1.0  0.69403  0.14385  0.63632  1.0000
  H   H1425     1.0  0.68504  0.18510  0.59691  1.0000
  S   S364      1.0  0.70027  0.11104  0.67139  1.0000
  H   H1426     1.0  0.72613  0.16475  0.57693  1.0000
  S   S365      1.0  0.66567  0.08296  0.72570  1.0000
  N   N89       1.0  0.70542  0.16504  0.61467  1.0000
  H   H1427     1.0  0.72244  0.18246  0.58912  1.0000
  C   C894      1.0  0.70305  0.17123  0.63887  1.0000
  Fe  Fe184     1.0  0.75889  0.20892  0.68401  1.0000
  C   C895      1.0  0.67254  0.22353  0.58154  1.0000
  S   S366      1.0  0.79028  0.21499  0.67716  1.0000
  Fe  Fe185     1.0  0.73348  0.18233  0.70105  1.0000
  S   S367      1.0  0.70701  0.19842  0.68540  1.0000
  S   S368      1.0  0.73001  0.15699  0.72108  1.0000
  Fe  Fe186     1.0  0.72983  0.20736  0.65005  1.0000
  C   C896      1.0  0.70094  0.21942  0.60333  1.0000
  Fe  Fe187     1.0  0.71357  0.21601  0.70405  1.0000
  C   C897      1.0  0.81879  0.22950  0.68395  1.0000
  S   S369      1.0  0.75621  0.18998  0.66428  1.0000
  S   S370      1.0  0.73868  0.19936  0.72260  1.0000
  H   H1428     1.0  0.72089  0.14194  0.63180  1.0000
  H   H1429     1.0  0.68867  0.16768  0.58398  1.0000
  H   H1430     1.0  0.70973  0.14244  0.60427  1.0000
  H   H1431     1.0  0.67551  0.11472  0.81928  1.0000
  C   C898      1.0  0.69226  0.21601  0.58471  1.0000
  C   C899      1.0  0.70776  0.12426  0.68524  1.0000
  C   C900      1.0  0.69421  0.13738  0.69349  1.0000
  C   C901      1.0  0.70122  0.14819  0.70279  1.0000
  C   C902      1.0  0.72167  0.14574  0.70435  1.0000
  C   C903      1.0  0.73505  0.13268  0.69599  1.0000
  C   C904      1.0  0.72823  0.12221  0.68599  1.0000
  H   H1432     1.0  0.67844  0.13923  0.69247  1.0000
  H   H1433     1.0  0.69080  0.15823  0.70939  1.0000
  H   H1434     1.0  0.75077  0.13052  0.69756  1.0000
  H   H1435     1.0  0.73885  0.11224  0.67937  1.0000
  H   H1436     1.0  0.67237  0.17807  0.77814  1.0000
  H   H1437     1.0  0.69283  0.12064  0.74554  1.0000
  H   H1438     1.0  0.73745  0.16461  0.60422  1.0000
  C   C905      1.0  0.72365  0.16937  0.59534  1.0000
  C   C906      1.0  0.70763  0.14758  0.62205  1.0000
  C   C907      1.0  0.79886  0.22676  0.69302  1.0000
  H   H1439     1.0  0.69749  0.14333  0.76072  1.0000
  S   S371      1.0  0.73381  0.22685  0.66686  1.0000
  H   H1440     1.0  0.66943  0.17756  0.50340  1.0000
  C   C908      1.0  0.69035  0.23109  0.61760  1.0000
  C   C909      1.0  0.66663  0.19069  0.77349  1.0000
  C   C910      1.0  0.68446  0.11623  0.76599  1.0000
  H   H1441     1.0  0.69558  0.10744  0.77698  1.0000
  S   S372      1.0  0.68703  0.22996  0.72739  1.0000
  H   H1442     1.0  0.82846  0.22433  0.66770  1.0000
  Fe  Fe188     1.0  0.67064  0.10251  0.68926  1.0000
  H   H1443     1.0  0.67326  0.10975  0.76392  1.0000
  H   H1444     1.0  0.69719  0.23399  0.63158  1.0000
  C   C911      1.0  0.68975  0.13804  0.78111  1.0000
  H   H1445     1.0  0.77128  0.23120  0.72160  1.0000
  H   H1446     1.0  0.66570  0.22053  0.56770  1.0000
  H   H1447     1.0  0.66632  0.14570  0.74462  1.0000
  Fe  Fe189     1.0  0.82131  0.38620  0.29259  1.0000
  S   S373      1.0  0.84863  0.36656  0.29065  1.0000
  S   S374      1.0  0.79019  0.38857  0.28485  1.0000
  Fe  Fe190     1.0  0.84450  0.40919  0.30019  1.0000
  S   S375      1.0  0.87370  0.39189  0.29765  1.0000
  S   S376      1.0  0.84317  0.43260  0.30961  1.0000
  Fe  Fe191     1.0  0.86463  0.38587  0.26407  1.0000
  S   S377      1.0  0.88622  0.38567  0.22443  1.0000
  Fe  Fe192     1.0  0.85499  0.37451  0.32477  1.0000
  S   S378      1.0  0.86705  0.35925  0.36127  1.0000
  S   S379      1.0  0.83694  0.40496  0.26415  1.0000
  S   S380      1.0  0.82603  0.39232  0.32903  1.0000
  Fe  Fe193     1.0  0.86423  0.38285  0.09068  1.0000
  S   S381      1.0  0.84733  0.40696  0.07447  1.0000
  S   S382      1.0  0.85219  0.37191  0.13364  1.0000
  Fe  Fe194     1.0  0.89165  0.38012  0.03660  1.0000
  S   S383      1.0  0.87698  0.40399  0.01631  1.0000
  S   S384      1.0  0.91787  0.36804  0.00964  1.0000
  Fe  Fe195     1.0  0.87803  0.41171  0.05278  1.0000
  S   S385      1.0  0.88589  0.43523  0.04874  1.0000
  Fe  Fe196     1.0  0.84795  0.39680  0.03976  1.0000
  S   S386      1.0  0.82257  0.40191  0.01792  1.0000
  S   S387      1.0  0.89517  0.38842  0.07168  1.0000
  S   S388      1.0  0.86231  0.37214  0.05733  1.0000
  C   C912      1.0  0.79254  0.41639  0.20531  1.0000
  C   C913      1.0  0.82755  0.41256  0.18257  1.0000
  C   C914      1.0  0.68736  0.37860  0.11322  1.0000
  Fe  Fe197     1.0  0.83571  0.46993  0.16291  1.0000
  H   H1448     1.0  0.93686  0.40553  0.35160  1.0000
  S   S389      1.0  0.86220  0.44994  0.16368  1.0000
  C   C915      1.0  0.80630  0.39470  0.18274  1.0000
  Fe  Fe198     1.0  0.92793  0.38834  0.48290  1.0000
  H   H1449     1.0  0.80778  0.48051  0.03945  1.0000
  C   C916      1.0  0.83751  0.45472  0.04078  1.0000
  S   S390      1.0  0.80550  0.46339  0.18167  1.0000
  Fe  Fe199     1.0  0.73325  0.38576  0.13410  1.0000
  S   S391      1.0  0.70381  0.39783  0.15538  1.0000
  S   S392      1.0  0.73821  0.38946  0.08946  1.0000
  Fe  Fe200     1.0  0.74707  0.36815  0.18570  1.0000
  S   S393      1.0  0.71811  0.37799  0.21093  1.0000
  S   S394      1.0  0.77478  0.35454  0.20217  1.0000
  Fe  Fe201     1.0  0.70248  0.37348  0.18165  1.0000
  C   C917      1.0  0.91702  0.37907  0.40482  1.0000
  Fe  Fe202     1.0  0.72242  0.40107  0.18216  1.0000
  S   S395      1.0  0.72275  0.42205  0.19847  1.0000
  S   S396      1.0  0.73130  0.36132  0.15901  1.0000
  S   S397      1.0  0.75186  0.39133  0.15818  1.0000
  H   H1450     1.0  0.92616  0.38904  0.35154  1.0000
  H   H1451     1.0  0.78836  0.36846  0.14386  1.0000
  S   S398      1.0  0.86338  0.39465  0.45308  1.0000
  H   H1452     1.0  0.80289  0.34182  0.09583  1.0000
  H   H1453     1.0  0.90590  0.40664  0.24315  1.0000
  H   H1454     1.0  0.79085  0.39324  0.18265  1.0000
  H   H1455     1.0  0.77683  0.41527  0.20562  1.0000
  Fe  Fe203     1.0  0.88502  0.38769  0.48181  1.0000
  H   H1456     1.0  0.74895  0.42526  0.33057  1.0000
  C   C918      1.0  0.80051  0.35266  0.10381  1.0000
  H   H1457     1.0  0.90434  0.43895  0.18179  1.0000
  H   H1458     1.0  0.82869  0.42500  0.18149  1.0000
  C   C919      1.0  0.80410  0.45052  0.06442  1.0000
  H   H1459     1.0  0.83241  0.40509  0.20127  1.0000
  H   H1460     1.0  0.78543  0.42074  0.15588  1.0000
  N   N90       1.0  0.80684  0.41132  0.18191  1.0000
  N   N91       1.0  0.66704  0.38712  0.10864  1.0000
  S   S399      1.0  0.91348  0.36921  0.47965  1.0000
  H   H1461     1.0  0.79223  0.42898  0.20509  1.0000
  H   H1462     1.0  0.81087  0.38664  0.20117  1.0000
  H   H1463     1.0  0.76718  0.45875  0.27968  1.0000
  H   H1464     1.0  0.69182  0.34341  0.15808  1.0000
  H   H1465     1.0  0.83877  0.40846  0.16551  1.0000
  C   C920      1.0  0.76247  0.45733  0.14598  1.0000
  C   C921      1.0  0.75735  0.45590  0.17376  1.0000
  C   C922      1.0  0.74520  0.44501  0.18971  1.0000
  C   C923      1.0  0.73845  0.43526  0.17808  1.0000
  C   C924      1.0  0.74398  0.43641  0.15040  1.0000
  C   C925      1.0  0.75575  0.44756  0.13437  1.0000
  S   S400      1.0  0.77731  0.47114  0.12538  1.0000
  H   H1466     1.0  0.74078  0.44426  0.21107  1.0000
  H   H1467     1.0  0.73865  0.42907  0.14124  1.0000
  H   H1468     1.0  0.75942  0.44869  0.11291  1.0000
  C   C926      1.0  0.90131  0.40571  0.38642  1.0000
  H   H1469     1.0  0.96859  0.38564  0.02193  1.0000
  H   H1470     1.0  0.81148  0.41809  0.13899  1.0000
  H   H1471     1.0  0.88327  0.35466  0.01268  1.0000
  H   H1472     1.0  0.81678  0.39045  0.16530  1.0000
  C   C927      1.0  0.88151  0.43901  0.08073  1.0000
  C   C928      1.0  0.88029  0.45439  0.08375  1.0000
  C   C929      1.0  0.87450  0.45780  0.10935  1.0000
  C   C930      1.0  0.87065  0.44569  0.13188  1.0000
  C   C931      1.0  0.87273  0.43019  0.12893  1.0000
  C   C932      1.0  0.87782  0.42691  0.10332  1.0000
  H   H1473     1.0  0.88318  0.46376  0.06628  1.0000
  H   H1474     1.0  0.87303  0.46978  0.11165  1.0000
  H   H1475     1.0  0.86996  0.42080  0.14637  1.0000
  H   H1476     1.0  0.87886  0.41500  0.10110  1.0000
  C   C933      1.0  0.76185  0.39311  0.07054  1.0000
  C   C934      1.0  0.77784  0.39276  0.08259  1.0000
  C   C935      1.0  0.79670  0.39539  0.06660  1.0000
  C   C936      1.0  0.79938  0.39854  0.03863  1.0000
  C   C937      1.0  0.78333  0.39902  0.02673  1.0000
  C   C938      1.0  0.76467  0.39623  0.04263  1.0000
  H   H1477     1.0  0.77569  0.39044  0.10411  1.0000
  H   H1478     1.0  0.80907  0.39505  0.07586  1.0000
  H   H1479     1.0  0.78534  0.40147  0.00515  1.0000
  H   H1480     1.0  0.75236  0.39651  0.03326  1.0000
  C   C939      1.0  0.86537  0.36887  0.38734  1.0000
  C   C940      1.0  0.87322  0.36044  0.41026  1.0000
  C   C941      1.0  0.87249  0.36806  0.43087  1.0000
  C   C942      1.0  0.86377  0.38416  0.42870  1.0000
  C   C943      1.0  0.85555  0.39245  0.40608  1.0000
  C   C944      1.0  0.85659  0.38493  0.38534  1.0000
  H   H1481     1.0  0.87992  0.34799  0.41203  1.0000
  H   H1482     1.0  0.87862  0.36149  0.44839  1.0000
  H   H1483     1.0  0.84863  0.40487  0.40433  1.0000
  H   H1484     1.0  0.85053  0.39158  0.36783  1.0000
  C   C945      1.0  0.87645  0.38200  0.19936  1.0000
  C   C946      1.0  0.88526  0.38691  0.17238  1.0000
  C   C947      1.0  0.87784  0.38397  0.15204  1.0000
  C   C948      1.0  0.86183  0.37581  0.15865  1.0000
  C   C949      1.0  0.85307  0.37083  0.18565  1.0000
  C   C950      1.0  0.86015  0.37413  0.20596  1.0000
  H   H1485     1.0  0.89788  0.39300  0.16715  1.0000
  H   H1486     1.0  0.88474  0.38780  0.13132  1.0000
  H   H1487     1.0  0.84083  0.36433  0.19094  1.0000
  H   H1488     1.0  0.85336  0.37018  0.22675  1.0000
  C   C951      1.0  0.82774  0.44761  0.29105  1.0000
  C   C952      1.0  0.82822  0.44727  0.26468  1.0000
  C   C953      1.0  0.81589  0.45915  0.24958  1.0000
  C   C954      1.0  0.80249  0.47113  0.26106  1.0000
  C   C955      1.0  0.80178  0.47143  0.28763  1.0000
  C   C956      1.0  0.81470  0.45978  0.30253  1.0000
  H   H1489     1.0  0.83833  0.43796  0.25581  1.0000
  H   H1490     1.0  0.81673  0.45888  0.22913  1.0000
  Fe  Fe204     1.0  0.79524  0.48044  0.14620  1.0000
  H   H1491     1.0  0.81431  0.45999  0.32306  1.0000
  C   C957      1.0  0.78701  0.37907  0.26124  1.0000
  C   C958      1.0  0.80117  0.36616  0.25339  1.0000
  C   C959      1.0  0.79743  0.35855  0.23528  1.0000
  C   C960      1.0  0.77979  0.36409  0.22456  1.0000
  C   C961      1.0  0.76621  0.37742  0.23159  1.0000
  C   C962      1.0  0.76961  0.38470  0.25016  1.0000
  H   H1492     1.0  0.81467  0.36175  0.26185  1.0000
  H   H1493     1.0  0.80812  0.34831  0.22979  1.0000
  H   H1494     1.0  0.75285  0.38207  0.22308  1.0000
  H   H1495     1.0  0.75858  0.39467  0.25603  1.0000
  H   H1496     1.0  0.80788  0.36158  0.08774  1.0000
  H   H1497     1.0  0.79424  0.42557  0.27593  1.0000
  N   N92       1.0  0.76283  0.43462  0.29015  1.0000
  C   C963      1.0  0.75563  0.42393  0.27887  1.0000
  C   C964      1.0  0.74926  0.43680  0.31585  1.0000
  C   C965      1.0  0.76282  0.45016  0.27119  1.0000
  C   C966      1.0  0.78358  0.42761  0.29478  1.0000
  H   H1498     1.0  0.76598  0.42146  0.26005  1.0000
  H   H1499     1.0  0.74028  0.42903  0.27429  1.0000
  H   H1500     1.0  0.75482  0.41226  0.29307  1.0000
  H   H1501     1.0  0.73347  0.44209  0.31314  1.0000
  H   H1502     1.0  0.79116  0.45331  0.08086  1.0000
  H   H1503     1.0  0.74762  0.45552  0.26626  1.0000
  H   H1504     1.0  0.77372  0.44912  0.25203  1.0000
  H   H1505     1.0  0.80087  0.43425  0.15586  1.0000
  N   N93       1.0  0.80877  0.34918  0.12843  1.0000
  C   C967      1.0  0.80484  0.36383  0.13856  1.0000
  C   C968      1.0  0.83081  0.34319  0.12242  1.0000
  C   C969      1.0  0.79891  0.33707  0.14901  1.0000
  H   H1506     1.0  0.78395  0.35753  0.10757  1.0000
  H   H1507     1.0  0.81108  0.36166  0.15700  1.0000
  H   H1508     1.0  0.81185  0.37331  0.12346  1.0000
  H   H1509     1.0  0.83754  0.34078  0.14053  1.0000
  H   H1510     1.0  0.83871  0.35203  0.10692  1.0000
  H   H1511     1.0  0.83443  0.33203  0.11501  1.0000
  H   H1512     1.0  0.80457  0.33440  0.16801  1.0000
  H   H1513     1.0  0.80166  0.32577  0.14227  1.0000
  H   H1514     1.0  0.78224  0.34122  0.15405  1.0000
  C   C970      1.0  0.81354  0.47584  0.05843  1.0000
  H   H1515     1.0  0.93129  0.37067  0.40843  1.0000
  C   C971      1.0  0.93364  0.39375  0.36340  1.0000
  C   C972      1.0  0.82817  0.45284  0.08853  1.0000
  C   C973      1.0  0.66773  0.33392  0.15223  1.0000
  C   C974      1.0  0.91026  0.36122  0.98602  1.0000
  H   H1516     1.0  0.97434  0.36473  0.03607  1.0000
  H   H1517     1.0  0.94839  0.38562  0.36538  1.0000
  N   N94       1.0  0.82081  0.45847  0.06305  1.0000
  H   H1518     1.0  0.90704  0.37966  0.42470  1.0000
  H   H1519     1.0  0.92189  0.40199  0.42543  1.0000
  H   H1520     1.0  0.79675  0.40896  0.22442  1.0000
  C   C975      1.0  0.80092  0.42156  0.15702  1.0000
  H   H1521     1.0  0.76212  0.46358  0.18285  1.0000
  H   H1522     1.0  0.93400  0.41331  0.39480  1.0000
  C   C976      1.0  0.96773  0.37370  0.01988  1.0000
  H   H1523     1.0  0.90349  0.41778  0.37490  1.0000
  H   H1524     1.0  0.90941  0.37386  0.39385  1.0000
  H   H1525     1.0  0.94591  0.39343  0.40808  1.0000
  H   H1526     1.0  0.75432  0.44474  0.32500  1.0000
  H   H1527     1.0  0.67766  0.32694  0.13847  1.0000
  H   H1528     1.0  0.67659  0.30612  0.23140  1.0000
  H   H1529     1.0  0.89134  0.40705  0.40609  1.0000
  S   S401      1.0  0.90023  0.40734  0.48186  1.0000
  H   H1530     1.0  0.66683  0.40557  0.12818  1.0000
  N   N95       1.0  0.97822  0.37079  0.99311  1.0000
  C   C977      1.0  0.67577  0.34333  0.16321  1.0000
  H   H1531     1.0  0.89284  0.40111  0.37565  1.0000
  H   H1532     1.0  0.69760  0.38702  0.11030  1.0000
  C   C978      1.0  0.93111  0.40122  0.40513  1.0000
  S   S402      1.0  0.95842  0.39136  0.45810  1.0000
  N   N96       1.0  0.92078  0.39496  0.38992  1.0000
  N   N97       1.0  0.89375  0.43030  0.22378  1.0000
  C   C979      1.0  0.88779  0.43619  0.24887  1.0000
  C   C980      1.0  0.87628  0.42554  0.21904  1.0000
  C   C981      1.0  0.91044  0.41641  0.22613  1.0000
  C   C982      1.0  0.90030  0.44297  0.20107  1.0000
  H   H1533     1.0  0.88253  0.42692  0.26634  1.0000
  H   H1534     1.0  0.87505  0.44657  0.24783  1.0000
  H   H1535     1.0  0.90058  0.43988  0.25326  1.0000
  H   H1536     1.0  0.87119  0.41596  0.23566  1.0000
  H   H1537     1.0  0.86329  0.43562  0.21731  1.0000
  H   H1538     1.0  0.88009  0.42098  0.20030  1.0000
  H   H1539     1.0  0.78958  0.43542  0.30308  1.0000
  H   H1540     1.0  0.92409  0.41949  0.22934  1.0000
  H   H1541     1.0  0.91479  0.41140  0.20780  1.0000
  H   H1542     1.0  0.84331  0.44172  0.04338  1.0000
  H   H1543     1.0  0.91366  0.44678  0.20365  1.0000
  H   H1544     1.0  0.88796  0.45359  0.19881  1.0000
  H   H1545     1.0  0.83265  0.45897  0.02116  1.0000
  H   H1546     1.0  0.78413  0.41591  0.30916  1.0000
  H   H1547     1.0  0.85056  0.46028  0.03957  1.0000
  H   H1548     1.0  0.68678  0.37145  0.13399  1.0000
  H   H1549     1.0  0.82580  0.48218  0.05739  1.0000
  H   H1550     1.0  0.67610  0.39067  0.06585  1.0000
  Fe  Fe205     1.0  0.79962  0.48475  0.19930  1.0000
  C   C983      1.0  0.89235  0.35530  0.99272  1.0000
  H   H1551     1.0  0.69462  0.37050  0.09924  1.0000
  H   H1552     1.0  0.83970  0.45945  0.08891  1.0000
  H   H1553     1.0  0.79826  0.45437  0.04546  1.0000
  C   C984      1.0  0.96923  0.40222  0.47218  1.0000
  H   H1554     1.0  0.79141  0.48068  0.29662  1.0000
  H   H1555     1.0  0.95141  0.37313  0.02375  1.0000
  H   H1556     1.0  0.67859  0.40640  0.07951  1.0000
  H   H1557     1.0  0.81574  0.45458  0.10597  1.0000
  H   H1558     1.0  0.80100  0.47917  0.07488  1.0000
  S   S403      1.0  0.67205  0.36528  0.19417  1.0000
  C   C985      1.0  0.99026  0.39971  0.46890  1.0000
  H   H1559     1.0  0.83521  0.44002  0.09172  1.0000
  H   H1560     1.0  0.80904  0.43739  0.06815  1.0000
  S   S404      1.0  0.78628  0.48532  0.24225  1.0000
  S   S405      1.0  0.82619  0.48555  0.12561  1.0000
  H   H1561     1.0  0.96043  0.35384  0.99421  1.0000
  C   C986      1.0  0.66896  0.39761  0.08166  1.0000
  H   H1562     1.0  0.98343  0.34539  0.00658  1.0000
  C   C987      1.0  0.97654  0.35488  0.99123  1.0000
  Fe  Fe206     1.0  0.89942  0.44953  0.69510  1.0000
  S   S406      1.0  0.86863  0.44544  0.71753  1.0000
  H   H1563     1.0  0.85673  0.40348  0.72578  1.0000
  S   S407      1.0  0.92572  0.42969  0.68869  1.0000
  Fe  Fe207     1.0  0.89414  0.39936  0.52662  1.0000
  S   S408      1.0  0.92327  0.38200  0.52752  1.0000
  S   S409      1.0  0.88226  0.41509  0.55667  1.0000
  Fe  Fe208     1.0  0.90609  0.36449  0.52458  1.0000
  S   S410      1.0  0.91403  0.34079  0.55174  1.0000
  S   S411      1.0  0.87625  0.38138  0.52684  1.0000
  Fe  Fe209     1.0  0.85411  0.30270  0.67871  1.0000
  S   S412      1.0  0.86768  0.27731  0.67739  1.0000
  S   S413      1.0  0.84228  0.31953  0.64366  1.0000
  Fe  Fe210     1.0  0.85659  0.29795  0.73742  1.0000
  S   S414      1.0  0.87038  0.27217  0.74051  1.0000
  S   S415      1.0  0.84791  0.30792  0.77481  1.0000
  Fe  Fe211     1.0  0.88935  0.28061  0.70030  1.0000
  S   S416      1.0  0.92328  0.27438  0.68694  1.0000
  Fe  Fe212     1.0  0.84722  0.27153  0.71755  1.0000
  S   S417      1.0  0.87692  0.30652  0.69869  1.0000
  S   S418      1.0  0.83233  0.29695  0.71711  1.0000
  Fe  Fe213     1.0  0.90621  0.35691  0.82283  1.0000
  S   S419      1.0  0.87838  0.36347  0.85288  1.0000
  S   S420      1.0  0.91050  0.34513  0.78840  1.0000
  Fe  Fe214     1.0  0.93094  0.37447  0.84088  1.0000
  S   S421      1.0  0.90553  0.38256  0.87265  1.0000
  S   S422      1.0  0.95987  0.38359  0.82972  1.0000
  Fe  Fe215     1.0  0.89969  0.35786  0.88135  1.0000
  S   S423      1.0  0.88885  0.34560  0.92365  1.0000
  Fe  Fe216     1.0  0.88655  0.38752  0.84189  1.0000
  S   S424      1.0  0.86268  0.40945  0.83798  1.0000
  S   S425      1.0  0.92712  0.34909  0.85222  1.0000
  S   S426      1.0  0.91240  0.38158  0.80918  1.0000
  C   C988      1.0  0.97222  0.37882  0.85676  1.0000
  H   H1564     1.0  0.85153  0.41072  0.96910  1.0000
  N   N98       1.0  0.82128  0.26484  0.80882  1.0000
  H   H1565     1.0  0.82117  0.29241  0.66780  1.0000
  H   H1566     1.0  0.78480  0.24696  0.74336  1.0000
  H   H1567     1.0  0.93989  0.31953  0.77630  1.0000
  H   H1568     1.0  0.83545  0.24015  0.81688  1.0000
  C   C989      1.0  0.81422  0.24504  0.71741  1.0000
  H   H1569     1.0  0.83214  0.39905  0.91859  1.0000
  H   H1570     1.0  0.95514  0.36094  0.88066  1.0000
  C   C990      1.0  0.86555  0.31783  0.77922  1.0000
  C   C991      1.0  0.86115  0.32520  0.80102  1.0000
  C   C992      1.0  0.87497  0.33338  0.80450  1.0000
  C   C993      1.0  0.89319  0.33426  0.78606  1.0000
  C   C994      1.0  0.89761  0.32682  0.76440  1.0000
  C   C995      1.0  0.88391  0.31857  0.76108  1.0000
  H   H1571     1.0  0.84698  0.32461  0.81518  1.0000
  H   H1572     1.0  0.87143  0.33905  0.82131  1.0000
  H   H1573     1.0  0.91163  0.32750  0.74996  1.0000
  H   H1574     1.0  0.88759  0.31278  0.74442  1.0000
  C   C996      1.0  0.89390  0.33384  0.57580  1.0000
  C   C997      1.0  0.87383  0.34017  0.57320  1.0000
  C   C998      1.0  0.85793  0.33533  0.59373  1.0000
  C   C999      1.0  0.86212  0.32420  0.61690  1.0000
  C   C1000     1.0  0.88217  0.31755  0.61917  1.0000
  C   C1001     1.0  0.89803  0.32234  0.59861  1.0000
  H   H1575     1.0  0.87055  0.34878  0.55537  1.0000
  H   H1576     1.0  0.84242  0.34041  0.59182  1.0000
  H   H1577     1.0  0.88554  0.30888  0.63693  1.0000
  H   H1578     1.0  0.91354  0.31733  0.60063  1.0000
  H   H1579     1.0  0.94303  0.27061  0.77166  1.0000
  C   C1002     1.0  0.92658  0.42637  0.59742  1.0000
  C   C1003     1.0  0.90570  0.43052  0.60620  1.0000
  C   C1004     1.0  0.89228  0.42714  0.59335  1.0000
  C   C1005     1.0  0.89963  0.41948  0.57181  1.0000
  C   C1006     1.0  0.92052  0.41528  0.56308  1.0000
  C   C1007     1.0  0.93395  0.41875  0.57582  1.0000
  H   H1580     1.0  0.89988  0.43647  0.62273  1.0000
  H   H1581     1.0  0.87615  0.43057  0.60003  1.0000
  H   H1582     1.0  0.92635  0.40974  0.54609  1.0000
  C   C1008     1.0  0.86770  0.43725  0.75164  1.0000
  C   C1009     1.0  0.84894  0.43794  0.76922  1.0000
  C   C1010     1.0  0.84762  0.42991  0.79605  1.0000
  C   C1011     1.0  0.86499  0.42093  0.80524  1.0000
  C   C1012     1.0  0.88385  0.42063  0.78786  1.0000
  C   C1013     1.0  0.88525  0.42892  0.76110  1.0000
  H   H1583     1.0  0.83537  0.44447  0.76193  1.0000
  H   H1584     1.0  0.83302  0.43027  0.80945  1.0000
  H   H1585     1.0  0.89733  0.41403  0.79502  1.0000
  H   H1586     1.0  0.89976  0.42844  0.74755  1.0000
  C   C1014     1.0  0.89795  0.35076  0.94779  1.0000
  C   C1015     1.0  0.91585  0.35674  0.94099  1.0000
  S   S427      1.0  0.97006  0.43583  0.71775  1.0000
  H   H1587     1.0  0.92485  0.35746  0.92097  1.0000
  H   H1588     1.0  0.97491  0.32176  0.79962  1.0000
  C   C1016     1.0  0.96731  0.36692  0.87924  1.0000
  H   H1589     1.0  0.95641  0.42924  0.51172  1.0000
  H   H1590     1.0  0.92169  0.31587  0.82412  1.0000
  H   H1591     1.0  0.82634  0.27116  0.67528  1.0000
  C   C1017     1.0  0.80553  0.29677  0.62478  1.0000
  C   C1018     1.0  0.84657  0.41094  0.95047  1.0000
  C   C1019     1.0  0.81041  0.26815  0.63523  1.0000
  H   H1592     1.0  0.96532  0.44226  0.77609  1.0000
  C   C1020     1.0  0.93337  0.27357  0.73463  1.0000
  C   C1021     1.0  0.81391  0.27682  0.78633  1.0000
  H   H1593     1.0  0.95009  0.41582  0.56861  1.0000
  C   C1022     1.0  0.94688  0.27414  0.75008  1.0000
  C   C1023     1.0  0.95074  0.30857  0.78258  1.0000
  H   H1594     1.0  0.91924  0.26964  0.74429  1.0000
  C   C1024     1.0  0.95713  0.28214  0.69435  1.0000
  N   N99       1.0  0.87230  0.37526  0.61447  1.0000
  H   H1595     1.0  0.85141  0.42121  0.93500  1.0000
  C   C1025     1.0  0.81645  0.28180  0.66561  1.0000
  H   H1596     1.0  0.93608  0.36623  0.95495  1.0000
  H   H1597     1.0  0.97176  0.35995  0.59382  1.0000
  H   H1598     1.0  0.88413  0.38200  0.92951  1.0000
  H   H1599     1.0  0.80201  0.27319  0.77974  1.0000
  H   H1600     1.0  0.80930  0.25386  0.84924  1.0000
  H   H1601     1.0  0.90475  0.36932  0.60929  1.0000
  C   C1026     1.0  0.96883  0.38342  0.54972  1.0000
  H   H1602     1.0  0.82641  0.27844  0.76875  1.0000
  H   H1603     1.0  0.97980  0.34457  0.54609  1.0000
  C   C1027     1.0  0.89265  0.37279  0.59736  1.0000
  H   H1604     1.0  0.88068  0.35743  0.64838  1.0000
  H   H1605     1.0  0.97631  0.38090  0.95187  1.0000
  H   H1606     1.0  0.81091  0.30738  0.62589  1.0000
  H   H1607     1.0  0.85452  0.40651  0.89990  1.0000
  H   H1608     1.0  0.84122  0.38115  0.61000  1.0000
  N   N100      1.0  0.93898  0.43287  0.79896  1.0000
  C   C1028     1.0  0.94795  0.42584  0.82308  1.0000
  C   C1029     1.0  0.91705  0.43869  0.80704  1.0000
  C   C1030     1.0  0.94224  0.42071  0.78311  1.0000
  C   C1031     1.0  0.94874  0.44624  0.78254  1.0000
  H   H1609     1.0  0.90977  0.44386  0.78927  1.0000
  H   H1610     1.0  0.90922  0.42896  0.81981  1.0000
  H   H1611     1.0  0.91404  0.44809  0.81863  1.0000
  H   H1612     1.0  0.98318  0.29277  0.80402  1.0000
  H   H1613     1.0  0.84314  0.26152  0.83339  1.0000
  C   C1032     1.0  0.96588  0.42097  0.49984  1.0000
  H   H1614     1.0  0.94242  0.45172  0.76407  1.0000
  N   N101      1.0  0.95306  0.30657  0.81043  1.0000
  H   H1615     1.0  0.95598  0.35590  0.55915  1.0000
  H   H1616     1.0  0.99384  0.36891  0.58381  1.0000
  H   H1617     1.0  0.85515  0.39046  0.64113  1.0000
  H   H1618     1.0  0.96533  0.30937  0.76818  1.0000
  C   C1033     1.0  0.80430  0.26285  0.83187  1.0000
  C   C1034     1.0  0.95701  0.41289  0.48760  1.0000
  H   H1619     1.0  0.82973  0.41317  0.95511  1.0000
  C   C1035     1.0  0.97880  0.36224  0.89946  1.0000
  C   C1036     1.0  0.87733  0.39297  0.93719  1.0000
  H   H1620     1.0  0.94912  0.33165  0.80711  1.0000
  H   H1621     1.0  0.95867  0.41621  0.77642  1.0000
  H   H1622     1.0  0.96440  0.42093  0.81765  1.0000
  H   H1623     1.0  0.97681  0.39192  0.55324  1.0000
  H   H1624     1.0  0.96737  0.36118  0.52442  1.0000
  H   H1625     1.0  0.80076  0.28167  0.67728  1.0000
  C   C1037     1.0  0.95996  0.32049  0.81288  1.0000
  H   H1626     1.0  0.81815  0.24528  0.79425  1.0000
  H   H1627     1.0  0.96485  0.38828  0.52965  1.0000
  C   C1038     1.0  0.86961  0.36058  0.63492  1.0000
  H   H1628     1.0  0.94624  0.43475  0.83522  1.0000
  H   H1629     1.0  0.92767  0.29482  0.82718  1.0000
  H   H1630     1.0  0.84904  0.27004  0.63195  1.0000
  S   S428      1.0  0.90337  0.46268  0.65208  1.0000
  C   C1039     1.0  0.98016  0.45168  0.71999  1.0000
  H   H1631     1.0  0.94072  0.41493  0.49013  1.0000
  H   H1632     1.0  0.96121  0.28503  0.67272  1.0000
  H   H1633     1.0  0.87166  0.39975  0.61271  1.0000
  H   H1634     1.0  0.94070  0.41587  0.83616  1.0000
  C   C1040     1.0  0.97030  0.28334  0.70984  1.0000
  H   H1635     1.0  0.85503  0.38556  0.90888  1.0000
  C   C1041     1.0  0.83720  0.27019  0.81640  1.0000
  H   H1636     1.0  0.85412  0.36164  0.64748  1.0000
  C   C1042     1.0  0.93864  0.27723  0.70669  1.0000
  H   H1637     1.0  0.95324  0.46921  0.71434  1.0000
  Fe  Fe217     1.0  0.92286  0.47522  0.66444  1.0000
  H   H1638     1.0  0.89451  0.36329  0.58634  1.0000
  H   H1639     1.0  0.85840  0.39027  0.58211  1.0000
  S   S429      1.0  0.95116  0.45773  0.65422  1.0000
  H   H1640     1.0  0.88361  0.40288  0.92233  1.0000
  C   C1043     1.0  0.99515  0.36949  0.89704  1.0000
  C   C1044     1.0  0.96542  0.27893  0.73777  1.0000
  H   H1641     1.0  0.85795  0.36961  0.58736  1.0000
  C   C1045     1.0  0.85678  0.37924  0.59780  1.0000
  C   C1046     1.0  0.96844  0.46697  0.71776  1.0000
  N   N102      1.0  0.86759  0.38471  0.75707  1.0000
  C   C1047     1.0  0.86553  0.37173  0.74586  1.0000
  C   C1048     1.0  0.88851  0.38764  0.74790  1.0000
  C   C1049     1.0  0.86302  0.38018  0.78664  1.0000
  C   C1050     1.0  0.85332  0.39929  0.74794  1.0000
  H   H1642     1.0  0.85013  0.36880  0.75310  1.0000
  H   H1643     1.0  0.87650  0.36069  0.75179  1.0000
  H   H1644     1.0  0.86840  0.37490  0.72361  1.0000
  H   H1645     1.0  0.89970  0.37683  0.75434  1.0000
  H   H1646     1.0  0.89244  0.39130  0.72570  1.0000
  H   H1647     1.0  0.89063  0.39724  0.75623  1.0000
  H   H1648     1.0  0.87349  0.36921  0.79418  1.0000
  H   H1649     1.0  0.86450  0.38969  0.79580  1.0000
  H   H1650     1.0  0.85415  0.40913  0.75667  1.0000
  H   H1651     1.0  0.83740  0.39745  0.75399  1.0000
  C   C1051     1.0  0.92216  0.36173  0.96024  1.0000
  H   H1652     1.0  0.84734  0.37790  0.79435  1.0000
  S   S430      1.0  0.91669  0.46350  0.70800  1.0000
  H   H1653     1.0  0.98434  0.28735  0.70009  1.0000
  H   H1654     1.0  0.97554  0.35262  0.91632  1.0000
  H   H1655     1.0  0.99116  0.24855  0.73251  1.0000
  H   H1656     1.0  0.96150  0.31954  0.83376  1.0000
  H   H1657     1.0  0.96913  0.40591  0.64883  1.0000
  H   H1658     1.0  0.94661  0.45573  0.79368  1.0000
  S   S431      1.0  0.94381  0.43038  0.61320  1.0000
  C   C1052     1.0  0.98786  0.38657  0.85512  1.0000
  Fe  Fe218     1.0  0.93113  0.44377  0.64643  1.0000
  Fe  Fe219     1.0  0.94368  0.44512  0.69685  1.0000
  H   H1659     1.0  0.85021  0.27185  0.79934  1.0000
  N   N103      1.0  0.85504  0.39587  0.94149  1.0000
  H   H1660     1.0  0.97657  0.40410  0.68009  1.0000
  H   H1661     1.0  0.81985  0.25678  0.64359  1.0000
  H   H1662     1.0  0.78936  0.29786  0.63506  1.0000
  S   S432      1.0  0.82353  0.25575  0.73439  1.0000
  C   C1053     1.0  0.88644  0.34977  0.97381  1.0000
  H   H1663     1.0  0.96688  0.42319  0.66136  1.0000
  C   C1054     1.0  0.87020  0.38844  0.62771  1.0000
  H   H1664     1.0  0.79204  0.25885  0.82664  1.0000
  C   C1055     1.0  0.96814  0.29207  0.81744  1.0000
  C   C1056     1.0  0.82640  0.23867  0.69590  1.0000
  H   H1665     1.0  0.87192  0.35034  0.62546  1.0000
  S   S433      1.0  0.98258  0.27790  0.75815  1.0000
  H   H1666     1.0  0.80625  0.29733  0.60327  1.0000
  C   C1057     1.0  0.93340  0.30512  0.82878  1.0000
  H   H1667     1.0  0.88207  0.38614  0.63975  1.0000
  C   C1058     1.0  0.83923  0.28106  0.62305  1.0000
  H   H1668     1.0  0.99133  0.48472  0.60610  1.0000
  C   C1059     1.0  0.97624  0.47950  0.72035  1.0000
  H   H1669     1.0  0.96981  0.48685  0.63298  1.0000
  C   C1060     1.0  0.98584  0.36108  0.57849  1.0000
  H   H1670     1.0  0.89541  0.38372  0.58212  1.0000
  H   H1671     1.0  0.83146  0.28187  0.82227  1.0000
  H   H1672     1.0  0.79461  0.26801  0.64657  1.0000
  H   H1673     1.0  0.99146  0.39602  0.83810  1.0000
  C   C1061     1.0  0.97070  0.35679  0.54500  1.0000
  C   C1062     1.0  0.84889  0.39681  0.91613  1.0000
  H   H1674     1.0  0.97024  0.29012  0.83836  1.0000
  H   H1675     1.0  0.93455  0.30356  0.85000  1.0000
  C   C1063     1.0  0.97654  0.41148  0.65950  1.0000
  N   N104      1.0  0.98149  0.36739  0.55124  1.0000
  H   H1676     1.0  0.84091  0.28119  0.60148  1.0000
  C   C1064     1.0  0.84745  0.38270  0.96218  1.0000
  H   H1677     1.0  0.93563  0.42559  0.76476  1.0000
  H   H1678     1.0  0.81065  0.26810  0.61409  1.0000
  H   H1679     1.0  0.84539  0.29127  0.62416  1.0000
  C   C1065     1.0  0.67108  0.23931  0.61320  1.0000
  N   N105      1.0  0.81790  0.28193  0.63715  1.0000
  H   H1680     1.0  0.80772  0.28862  0.79157  1.0000
  C   C1066     1.0  0.82971  0.24955  0.80049  1.0000
  H   H1681     1.0  0.93537  0.41032  0.79499  1.0000
  H   H1682     1.0  0.83062  0.38479  0.96684  1.0000
  C   C1067     1.0  0.96884  0.38289  0.97230  1.0000
  H   H1683     1.0  0.79756  0.27420  0.83854  1.0000
  H   H1684     1.0  0.84245  0.25067  0.78293  1.0000
  H   H1685     1.0  0.96354  0.28137  0.81535  1.0000
  H   H1686     1.0  0.99217  0.47156  0.66482  1.0000
  C   C1068     1.0  0.98691  0.41804  0.49727  1.0000
  H   H1687     1.0  0.99723  0.24107  0.70258  1.0000
  H   H1688     1.0  0.99587  0.34916  0.58015  1.0000
  H   H1689     1.0  0.98669  0.43530  0.61891  1.0000
  H   H1690     1.0  0.85299  0.37122  0.95560  1.0000
  H   H1691     1.0  0.94508  0.29848  0.78009  1.0000
  H   H1692     1.0  0.98428  0.35235  0.97120  1.0000
  H   H1693     1.0  0.98939  0.41807  0.60612  1.0000
  H   H1694     1.0  0.88261  0.39147  0.95617  1.0000
  H   H1695     1.0  0.95441  0.38334  0.56470  1.0000
  C   C1069     1.0  0.79433  0.24224  0.72659  1.0000
  C   C1070     1.0  0.99622  0.42338  0.61787  1.0000
  H   H1696     1.0  0.84188  0.24040  0.68898  1.0000
  C   C1071     1.0  0.99614  0.47702  0.72390  1.0000
  H   H1697     1.0  0.87269  0.34502  0.97920  1.0000
  N   N106      1.0  0.99717  0.41330  0.64486  1.0000
  H   H1698     1.0  0.99805  0.37274  0.51078  1.0000
  H   H1699     1.0  0.96992  0.39506  0.97289  1.0000
  H   H1700     1.0  0.95251  0.38258  0.97502  1.0000
  H   H1701     1.0  0.85245  0.38126  0.98131  1.0000
  H   H1702     1.0  0.99728  0.43281  0.66170  1.0000
  H   H1703     1.0  0.99724  0.35720  0.82153  1.0000
  H   H1704     1.0  0.99769  0.36517  0.77271  1.0000
  S   S434      1.0  0.99784  0.42795  0.51306  1.0000
  S   S435      1.0  0.82502  0.53001  0.13236  1.0000
  Fe  Fe220     1.0  0.88724  0.57861  0.17397  1.0000
  S   S436      1.0  0.86097  0.59876  0.17923  1.0000
  S   S437      1.0  0.88765  0.55258  0.17738  1.0000
  Fe  Fe221     1.0  0.91830  0.59941  0.16419  1.0000
  S   S438      1.0  0.89508  0.62144  0.16814  1.0000
  S   S439      1.0  0.95166  0.59933  0.15170  1.0000
  Fe  Fe222     1.0  0.87895  0.60558  0.20308  1.0000
  S   S440      1.0  0.86378  0.61536  0.23969  1.0000
  Fe  Fe223     1.0  0.87911  0.61310  0.14393  1.0000
  S   S441      1.0  0.86508  0.63034  0.11087  1.0000
  S   S442      1.0  0.90361  0.58416  0.20135  1.0000
  S   S443      1.0  0.90384  0.59243  0.13654  1.0000
  C   C1072     1.0  0.84478  0.72716  0.42993  1.0000
  H   H1705     1.0  0.97795  0.71212  0.04186  1.0000
  C   C1073     1.0  0.95972  0.56772  0.11853  1.0000
  Fe  Fe224     1.0  0.91513  0.69140  0.00061  1.0000
  H   H1706     1.0  0.98642  0.69022  0.00688  1.0000
  S   S444      1.0  0.92753  0.66809  0.02555  1.0000
  C   C1074     1.0  0.93628  0.54960  0.13253  1.0000
  H   H1707     1.0  0.80433  0.73723  0.43866  1.0000
  H   H1708     1.0  0.83787  0.69913  0.46162  1.0000
  H   H1709     1.0  0.93764  0.71726  0.42668  1.0000
  H   H1710     1.0  0.95588  0.72692  0.34544  1.0000
  Fe  Fe225     1.0  0.89654  0.68360  0.33099  1.0000
  S   S445      1.0  0.91132  0.70201  0.29867  1.0000
  Fe  Fe226     1.0  0.91630  0.65677  0.30234  1.0000
  S   S446      1.0  0.93353  0.67217  0.26855  1.0000
  S   S447      1.0  0.92034  0.63082  0.30299  1.0000
  Fe  Fe227     1.0  0.93897  0.68280  0.29935  1.0000
  S   S448      1.0  0.97093  0.68547  0.29358  1.0000
  Fe  Fe228     1.0  0.90476  0.69000  0.26989  1.0000
  S   S449      1.0  0.89902  0.69910  0.22806  1.0000
  S   S450      1.0  0.92496  0.66533  0.33343  1.0000
  S   S451      1.0  0.88695  0.67387  0.30184  1.0000
  C   C1075     1.0  0.88902  0.71939  0.22112  1.0000
  H   H1711     1.0  0.94109  0.54888  0.18166  1.0000
  C   C1076     1.0  0.89897  0.70683  0.40866  1.0000
  C   C1077     1.0  0.93155  0.73447  0.22133  1.0000
  H   H1712     1.0  0.97370  0.63506  0.28162  1.0000
  H   H1713     1.0  0.87690  0.72051  0.26243  1.0000
  H   H1714     1.0  0.89939  0.72197  0.17847  1.0000
  C   C1078     1.0  0.89223  0.70023  0.43576  1.0000
  C   C1079     1.0  0.80270  0.51915  0.24389  1.0000
  H   H1715     1.0  0.86011  0.72700  0.43307  1.0000
  C   C1080     1.0  0.97592  0.69591  0.31437  1.0000
  C   C1081     1.0  0.96150  0.70820  0.32391  1.0000
  C   C1082     1.0  0.89444  0.70147  0.38840  1.0000
  H   H1716     1.0  0.92901  0.67258  0.21126  1.0000
  H   H1717     1.0  0.98337  0.54361  0.14569  1.0000
  H   H1718     1.0  0.94659  0.71115  0.31914  1.0000
  S   S452      1.0  0.87472  0.68406  0.37049  1.0000
  H   H1719     1.0  0.98623  0.70125  0.45152  1.0000
  N   N107      1.0  0.96376  0.69884  0.43191  1.0000
  H   H1720     1.0  0.96962  0.65227  0.29542  1.0000
  Fe  Fe229     1.0  0.89020  0.72444  0.00230  1.0000
  C   C1083     1.0  0.96675  0.71709  0.33879  1.0000
  C   C1084     1.0  0.81001  0.72541  0.45072  1.0000
  S   S453      1.0  0.88237  0.70155  0.00162  1.0000
  C   C1085     1.0  0.88266  0.64019  0.08644  1.0000
  C   C1086     1.0  0.87619  0.65175  0.06493  1.0000
  C   C1087     1.0  0.88992  0.66031  0.04601  1.0000
  C   C1088     1.0  0.91016  0.65724  0.04843  1.0000
  C   C1089     1.0  0.91669  0.64547  0.06960  1.0000
  C   C1090     1.0  0.90294  0.63702  0.08869  1.0000
  H   H1721     1.0  0.86050  0.65416  0.06316  1.0000
  H   H1722     1.0  0.88484  0.66922  0.02957  1.0000
  H   H1723     1.0  0.93237  0.64300  0.07147  1.0000
  H   H1724     1.0  0.90806  0.62807  0.10517  1.0000
  C   C1091     1.0  0.88002  0.61947  0.25659  1.0000
  C   C1092     1.0  0.89804  0.60899  0.26108  1.0000
  C   C1093     1.0  0.91017  0.61232  0.27591  1.0000
  C   C1094     1.0  0.90479  0.62648  0.28512  1.0000
  C   C1095     1.0  0.88711  0.63711  0.27980  1.0000
  C   C1096     1.0  0.87453  0.63344  0.26620  1.0000
  H   H1725     1.0  0.90231  0.59813  0.25379  1.0000
  H   H1726     1.0  0.92390  0.60405  0.27979  1.0000
  H   H1727     1.0  0.88281  0.64809  0.28639  1.0000
  H   H1728     1.0  0.86063  0.64158  0.26269  1.0000
  H   H1729     1.0  0.94090  0.59720  0.20934  1.0000
  C   C1097     1.0  0.84302  0.53616  0.14399  1.0000
  C   C1098     1.0  0.85741  0.52515  0.15717  1.0000
  C   C1099     1.0  0.87114  0.53037  0.16698  1.0000
  C   C1100     1.0  0.87057  0.54663  0.16382  1.0000
  C   C1101     1.0  0.85632  0.55767  0.15042  1.0000
  C   C1102     1.0  0.84266  0.55243  0.14046  1.0000
  H   H1730     1.0  0.79337  0.55853  0.21550  1.0000
  H   H1731     1.0  0.85580  0.57023  0.14774  1.0000
  H   H1732     1.0  0.83167  0.56103  0.13012  1.0000
  H   H1733     1.0  0.79504  0.54929  0.24971  1.0000
  C   C1103     1.0  0.97790  0.63980  0.29667  1.0000
  H   H1734     1.0  0.85813  0.51260  0.15956  1.0000
  H   H1735     1.0  0.96503  0.56476  0.09844  1.0000
  H   H1736     1.0  0.94481  0.72454  0.22251  1.0000
  H   H1737     1.0  0.80655  0.52001  0.26262  1.0000
  N   N108      1.0  0.87700  0.63264  0.37526  1.0000
  C   C1104     1.0  0.86243  0.63368  0.40069  1.0000
  C   C1105     1.0  0.88126  0.61633  0.37081  1.0000
  C   C1106     1.0  0.89600  0.63689  0.37642  1.0000
  C   C1107     1.0  0.86836  0.64378  0.35294  1.0000
  H   H1738     1.0  0.85903  0.64593  0.40439  1.0000
  H   H1739     1.0  0.86844  0.62545  0.41803  1.0000
  H   H1740     1.0  0.84785  0.63065  0.40045  1.0000
  H   H1741     1.0  0.86728  0.61276  0.36959  1.0000
  H   H1742     1.0  0.89221  0.61529  0.35162  1.0000
  H   H1743     1.0  0.88792  0.60756  0.38716  1.0000
  H   H1744     1.0  0.90743  0.63598  0.35766  1.0000
  H   H1745     1.0  0.90283  0.62890  0.39329  1.0000
  H   H1746     1.0  0.89343  0.64929  0.37909  1.0000
  H   H1747     1.0  0.87899  0.64314  0.33354  1.0000
  H   H1748     1.0  0.86518  0.65627  0.35536  1.0000
  H   H1749     1.0  0.85397  0.64102  0.35136  1.0000
  S   S454      1.0  0.99339  0.72463  0.36235  1.0000
  H   H1750     1.0  0.95714  0.71669  0.39724  1.0000
  H   H1751     1.0  0.81257  0.50830  0.23771  1.0000
  S   S455      1.0  0.78670  0.50158  0.16533  1.0000
  H   H1752     1.0  0.83709  0.52507  0.21051  1.0000
  H   H1753     1.0  0.92308  0.55959  0.13134  1.0000
  H   H1754     1.0  0.82907  0.54608  0.20017  1.0000
  S   S456      1.0  0.99406  0.61662  0.23069  1.0000
  H   H1755     1.0  0.77554  0.54634  0.23560  1.0000
  H   H1756     1.0  0.86651  0.67431  0.42760  1.0000
  H   H1757     1.0  0.84459  0.73671  0.47394  1.0000
  H   H1758     1.0  0.84646  0.71774  0.41874  1.0000
  C   C1108     1.0  0.89187  0.72801  0.19459  1.0000
  C   C1109     1.0  0.87925  0.72717  0.24194  1.0000
  C   C1110     1.0  0.88252  0.68985  0.39519  1.0000
  H   H1759     1.0  0.94714  0.57819  0.11699  1.0000
  H   H1760     1.0  0.80169  0.54224  0.18147  1.0000
  N   N109      1.0  0.87024  0.69575  0.09123  1.0000
  C   C1111     1.0  0.89092  0.69633  0.07537  1.0000
  C   C1112     1.0  0.87034  0.68059  0.11125  1.0000
  C   C1113     1.0  0.85641  0.69696  0.07325  1.0000
  C   C1114     1.0  0.86328  0.70915  0.10500  1.0000
  H   H1761     1.0  0.89145  0.70769  0.06031  1.0000
  H   H1762     1.0  0.89653  0.68660  0.06425  1.0000
  H   H1763     1.0  0.90184  0.69521  0.08829  1.0000
  H   H1764     1.0  0.85489  0.67953  0.12316  1.0000
  H   H1765     1.0  0.87591  0.67024  0.10152  1.0000
  H   H1766     1.0  0.88032  0.67937  0.12548  1.0000
  H   H1767     1.0  0.85600  0.70827  0.05784  1.0000
  H   H1768     1.0  0.84065  0.69663  0.08452  1.0000
  H   H1769     1.0  0.86117  0.68706  0.06250  1.0000
  H   H1770     1.0  0.86286  0.72076  0.09035  1.0000
  H   H1771     1.0  0.87347  0.70880  0.11851  1.0000
  H   H1772     1.0  0.84775  0.70908  0.11725  1.0000
  H   H1773     1.0  0.98388  0.71547  0.42079  1.0000
  C   C1115     1.0  0.97036  0.54055  0.14060  1.0000
  H   H1774     1.0  0.81022  0.71630  0.43962  1.0000
  C   C1116     1.0  0.88090  0.68825  0.44242  1.0000
  H   H1775     1.0  0.90737  0.71634  0.40324  1.0000
  H   H1776     1.0  0.96282  0.68187  0.46950  1.0000
  H   H1777     1.0  0.93390  0.56900  0.16489  1.0000
  H   H1778     1.0  0.97581  0.53680  0.12112  1.0000
  S   S457      1.0  0.89729  0.70781  0.46069  1.0000
  H   H1779     1.0  0.94071  0.54600  0.11293  1.0000
  Fe  Fe230     1.0  0.81888  0.50501  0.14852  1.0000
  H   H1780     1.0  0.96596  0.53013  0.15614  1.0000
  C   C1117     1.0  0.98267  0.61113  0.20903  1.0000
  H   H1781     1.0  0.78686  0.51714  0.24879  1.0000
  H   H1782     1.0  0.94190  0.73655  0.02523  1.0000
  C   C1118     1.0  0.98621  0.71339  0.34460  1.0000
  H   H1783     1.0  0.96603  0.73187  0.00436  1.0000
  N   N110      1.0  0.92787  0.65080  0.20184  1.0000
  C   C1119     1.0  0.93596  0.64092  0.22548  1.0000
  C   C1120     1.0  0.90553  0.65336  0.20828  1.0000
  C   C1121     1.0  0.93557  0.64264  0.17925  1.0000
  C   C1122     1.0  0.93444  0.66625  0.19447  1.0000
  H   H1784     1.0  0.95277  0.63899  0.22169  1.0000
  H   H1785     1.0  0.93168  0.62906  0.23115  1.0000
  H   H1786     1.0  0.93004  0.64643  0.24319  1.0000
  H   H1787     1.0  0.89884  0.66081  0.19095  1.0000
  H   H1788     1.0  0.90010  0.64190  0.21391  1.0000
  H   H1789     1.0  0.89923  0.65942  0.22537  1.0000
  H   H1790     1.0  0.93044  0.63111  0.18400  1.0000
  H   H1791     1.0  0.95241  0.64000  0.17447  1.0000
  H   H1792     1.0  0.93018  0.64985  0.16081  1.0000
  H   H1793     1.0  0.92835  0.67416  0.17697  1.0000
  H   H1794     1.0  0.95123  0.66471  0.18939  1.0000
  H   H1795     1.0  0.99725  0.65770  0.31176  1.0000
  H   H1796     1.0  0.98664  0.69394  0.39782  1.0000
  H   H1797     1.0  0.93070  0.53959  0.14806  1.0000
  S   S458      1.0  0.92238  0.71366  0.00489  1.0000
  H   H1798     1.0  0.81036  0.52133  0.19058  1.0000
  H   H1799     1.0  0.88220  0.52176  0.17717  1.0000
  H   H1800     1.0  0.89956  0.70670  0.36756  1.0000
  C   C1123     1.0  0.82645  0.53560  0.21671  1.0000
  H   H1801     1.0  0.97220  0.57166  0.12333  1.0000
  H   H1802     1.0  0.83078  0.53738  0.23449  1.0000
  N   N111      1.0  0.80524  0.53348  0.22250  1.0000
  C   C1124     1.0  0.79168  0.54753  0.23125  1.0000
  C   C1125     1.0  0.80014  0.53161  0.19807  1.0000
  C   C1126     1.0  0.96341  0.60357  0.17423  1.0000
  C   C1127     1.0  0.95490  0.60160  0.20157  1.0000
  S   S459      1.0  0.83103  0.48954  0.18417  1.0000
  C   C1128     1.0  0.87571  0.68331  0.42223  1.0000
  H   H1803     1.0  0.87591  0.68286  0.46310  1.0000
  C   C1129     1.0  0.96465  0.60522  0.21899  1.0000
  H   H1804     1.0  0.95816  0.60356  0.24017  1.0000
  H   H1805     1.0  0.95889  0.56221  0.17132  1.0000
  H   H1806     1.0  0.78441  0.52957  0.20175  1.0000
  C   C1130     1.0  0.98157  0.60922  0.16440  1.0000
  N   N112      1.0  0.95323  0.55413  0.13926  1.0000
  S   S460      1.0  0.87149  0.73727  0.03449  1.0000
  C   C1131     1.0  0.97515  0.70867  0.43903  1.0000
  H   H1807     1.0  0.94332  0.68276  0.45183  1.0000
  H   H1808     1.0  0.96484  0.71742  0.45034  1.0000
  N   N113      1.0  0.96724  0.73693  0.04146  1.0000
  H   H1809     1.0  0.97220  0.63284  0.31682  1.0000
  C   C1132     1.0  0.97805  0.68757  0.41665  1.0000
  H   H1810     1.0  0.94138  0.70206  0.40834  1.0000
  H   H1811     1.0  0.90880  0.64480  0.99915  1.0000
  C   C1133     1.0  0.94656  0.55867  0.16550  1.0000
  H   H1812     1.0  0.98819  0.61082  0.14326  1.0000
  H   H1813     1.0  0.79882  0.72335  0.46988  1.0000
  C   C1134     1.0  0.95247  0.68999  0.45657  1.0000
  H   H1814     1.0  0.97004  0.67994  0.41090  1.0000
  C   C1135     1.0  0.98790  0.70094  0.99161  1.0000
  H   H1815     1.0  0.99704  0.73398  0.01721  1.0000
  H   H1816     1.0  0.95415  0.71662  0.06365  1.0000
  C   C1136     1.0  0.94934  0.70918  0.41532  1.0000
  C   C1137     1.0  0.99105  0.61316  0.18169  1.0000
  H   H1817     1.0  0.87303  0.65781  0.99698  1.0000
  C   C1138     1.0  0.99512  0.69210  0.32066  1.0000
  C   C1139     1.0  0.96920  0.72008  0.05556  1.0000
  C   C1140     1.0  0.82940  0.73685  0.47038  1.0000
  N   N114      1.0  0.83030  0.72456  0.45571  1.0000
  H   H1818     1.0  0.85232  0.70772  0.47598  1.0000
  H   H1819     1.0  0.98936  0.67970  0.42839  1.0000
  H   H1820     1.0  0.92722  0.73623  0.20167  1.0000
  C   C1141     1.0  0.83705  0.70875  0.47194  1.0000
  H   H1821     1.0  0.94166  0.69818  0.46863  1.0000
  H   H1822     1.0  0.95456  0.73664  0.25367  1.0000
  H   H1823     1.0  0.97728  0.71754  0.07240  1.0000
  H   H1824     1.0  0.91882  0.73050  0.23717  1.0000
  H   H1825     1.0  0.78458  0.66112  0.72324  1.0000
  H   H1826     1.0  0.88199  0.67547  0.97752  1.0000
  H   H1827     1.0  0.82402  0.66849  0.73216  1.0000
  C   C1142     1.0  0.86218  0.73658  0.79834  1.0000
  H   H1828     1.0  0.79034  0.65183  0.79312  1.0000
  H   H1829     1.0  0.75475  0.63554  0.65821  1.0000
  S   S461      1.0  0.92424  0.50125  0.65253  1.0000
  S   S462      1.0  0.87461  0.72323  0.58630  1.0000
  C   C1143     1.0  0.90191  0.63987  0.64709  1.0000
  H   H1830     1.0  0.82255  0.70560  0.63592  1.0000
  Fe  Fe231     1.0  0.86213  0.67232  0.78257  1.0000
  S   S463      1.0  0.89489  0.67405  0.77053  1.0000
  S   S464      1.0  0.85246  0.64878  0.79905  1.0000
  Fe  Fe232     1.0  0.88487  0.69664  0.78560  1.0000
  S   S465      1.0  0.71248  0.71107  0.65942  1.0000
  Fe  Fe233     1.0  0.88649  0.68870  0.73176  1.0000
  S   S466      1.0  0.82216  0.72682  0.75097  1.0000
  S   S467      1.0  0.85252  0.69368  0.80111  1.0000
  S   S468      1.0  0.85428  0.68564  0.74310  1.0000
  Fe  Fe234     1.0  0.84297  0.69511  0.54268  1.0000
  S   S469      1.0  0.85736  0.71646  0.52512  1.0000
  S   S470      1.0  0.80982  0.69615  0.54695  1.0000
  Fe  Fe235     1.0  0.88218  0.67360  0.55397  1.0000
  S   S471      1.0  0.89995  0.69315  0.53741  1.0000
  S   S472      1.0  0.89724  0.64940  0.57272  1.0000
  Fe  Fe236     1.0  0.87329  0.70752  0.55987  1.0000
  S   S473      1.0  0.75854  0.73459  0.63453  1.0000
  Fe  Fe237     1.0  0.88241  0.69994  0.50420  1.0000
  H   H1831     1.0  0.98373  0.73700  0.88802  1.0000
  S   S474      1.0  0.85685  0.68739  0.57899  1.0000
  S   S475      1.0  0.86662  0.67916  0.51924  1.0000
  Fe  Fe238     1.0  0.84412  0.56826  0.70641  1.0000
  S   S476      1.0  0.86505  0.58201  0.67462  1.0000
  S   S477      1.0  0.84966  0.54153  0.71764  1.0000
  Fe  Fe239     1.0  0.81256  0.59776  0.71491  1.0000
  S   S478      1.0  0.83075  0.61392  0.68360  1.0000
  S   S479      1.0  0.78321  0.60865  0.73832  1.0000
  Fe  Fe240     1.0  0.83697  0.59539  0.65954  1.0000
  S   S480      1.0  0.83550  0.60285  0.61591  1.0000
  Fe  Fe241     1.0  0.85704  0.59926  0.70162  1.0000
  S   S481      1.0  0.87985  0.61266  0.70408  1.0000
  S   S482      1.0  0.81632  0.58044  0.68924  1.0000
  S   S483      1.0  0.83845  0.58432  0.73514  1.0000
  Fe  Fe242     1.0  0.73775  0.72035  0.66601  1.0000
  C   C1144     1.0  0.76410  0.71378  0.60187  1.0000
  Fe  Fe243     1.0  0.72695  0.68787  0.68232  1.0000
  C   C1145     1.0  0.97516  0.72112  0.95572  1.0000
  S   S484      1.0  0.75363  0.69663  0.68532  1.0000
  C   C1146     1.0  0.90461  0.70996  0.85673  1.0000
  C   C1147     1.0  0.90350  0.66311  0.93531  1.0000
  C   C1148     1.0  0.76862  0.62420  0.71895  1.0000
  C   C1149     1.0  0.75731  0.63713  0.72990  1.0000
  C   C1150     1.0  0.74592  0.64986  0.71457  1.0000
  C   C1151     1.0  0.74491  0.64929  0.68873  1.0000
  C   C1152     1.0  0.75575  0.63615  0.67802  1.0000
  C   C1153     1.0  0.76805  0.62381  0.69283  1.0000
  H   H1832     1.0  0.75739  0.63732  0.75027  1.0000
  H   H1833     1.0  0.73752  0.65990  0.72306  1.0000
  S   S485      1.0  0.90251  0.70488  0.80855  1.0000
  H   H1834     1.0  0.77656  0.61374  0.68445  1.0000
  C   C1154     1.0  0.84414  0.72955  0.84380  1.0000
  C   C1155     1.0  0.78563  0.72662  0.74044  1.0000
  H   H1835     1.0  0.85434  0.52458  0.62278  1.0000
  C   C1156     1.0  0.88792  0.71024  0.66058  1.0000
  C   C1157     1.0  0.76783  0.70461  0.75893  1.0000
  H   H1836     1.0  0.82269  0.73115  0.69406  1.0000
  H   H1837     1.0  0.81139  0.70514  0.70941  1.0000
  H   H1838     1.0  0.97810  0.51577  0.64663  1.0000
  H   H1839     1.0  0.76858  0.69796  0.57535  1.0000
  C   C1158     1.0  0.98409  0.50353  0.65694  1.0000
  C   C1159     1.0  0.88087  0.63583  0.58209  1.0000
  C   C1160     1.0  0.88566  0.62152  0.60007  1.0000
  C   C1161     1.0  0.87199  0.61114  0.60977  1.0000
  C   C1162     1.0  0.85380  0.61470  0.60077  1.0000
  C   C1163     1.0  0.84961  0.62847  0.58129  1.0000
  C   C1164     1.0  0.86289  0.63927  0.57246  1.0000
  H   H1840     1.0  0.89974  0.61857  0.60697  1.0000
  H   H1841     1.0  0.87568  0.60031  0.62407  1.0000
  H   H1842     1.0  0.83583  0.63097  0.57373  1.0000
  H   H1843     1.0  0.85924  0.65018  0.55821  1.0000
  C   C1165     1.0  0.79544  0.70728  0.57059  1.0000
  C   C1166     1.0  0.77538  0.70565  0.58184  1.0000
  C   C1167     1.0  0.77255  0.72416  0.60976  1.0000
  C   C1168     1.0  0.88227  0.71936  0.63648  1.0000
  C   C1169     1.0  0.80404  0.71741  0.57886  1.0000
  H   H1844     1.0  0.82248  0.65533  0.71214  1.0000
  C   C1170     1.0  0.79245  0.72611  0.59796  1.0000
  C   C1171     1.0  0.89484  0.70315  0.84350  1.0000
  C   C1172     1.0  0.89820  0.70945  0.88435  1.0000
  C   C1173     1.0  0.88180  0.70228  0.89882  1.0000
  C   C1174     1.0  0.87219  0.69530  0.88567  1.0000
  C   C1175     1.0  0.87883  0.69558  0.85816  1.0000
  H   H1845     1.0  0.90570  0.71485  0.89434  1.0000
  H   H1846     1.0  0.85956  0.68966  0.89679  1.0000
  H   H1847     1.0  0.87144  0.69004  0.84828  1.0000
  C   C1176     1.0  0.89436  0.69381  0.66376  1.0000
  H   H1848     1.0  0.81696  0.64434  0.78732  1.0000
  C   C1177     1.0  0.88287  0.71203  0.61572  1.0000
  C   C1178     1.0  0.88903  0.69559  0.61915  1.0000
  C   C1179     1.0  0.89469  0.68655  0.64310  1.0000
  H   H1849     1.0  0.88959  0.68983  0.60328  1.0000
  H   H1850     1.0  0.89915  0.67389  0.64573  1.0000
  C   C1180     1.0  0.86186  0.63744  0.77439  1.0000
  C   C1181     1.0  0.85476  0.62358  0.77671  1.0000
  C   C1182     1.0  0.86028  0.61578  0.75525  1.0000
  C   C1183     1.0  0.87332  0.62162  0.73177  1.0000
  C   C1184     1.0  0.88099  0.63509  0.72998  1.0000
  C   C1185     1.0  0.87514  0.64304  0.75107  1.0000
  H   H1851     1.0  0.84462  0.61909  0.79480  1.0000
  H   H1852     1.0  0.85456  0.60522  0.75699  1.0000
  H   H1853     1.0  0.89109  0.63974  0.71209  1.0000
  H   H1854     1.0  0.88080  0.65364  0.74898  1.0000
  H   H1855     1.0  0.81047  0.69791  0.78419  1.0000
  H   H1856     1.0  0.78067  0.68600  0.78870  1.0000
  C   C1186     1.0  0.90404  0.51235  0.67151  1.0000
  C   C1187     1.0  0.88773  0.50547  0.68731  1.0000
  C   C1188     1.0  0.87145  0.51445  0.70195  1.0000
  C   C1189     1.0  0.87123  0.53041  0.70073  1.0000
  C   C1190     1.0  0.88770  0.53725  0.68528  1.0000
  C   C1191     1.0  0.90404  0.52825  0.67059  1.0000
  H   H1857     1.0  0.81636  0.53625  0.66061  1.0000
  H   H1858     1.0  0.85884  0.50904  0.71400  1.0000
  H   H1859     1.0  0.88788  0.54945  0.68464  1.0000
  H   H1860     1.0  0.91669  0.53360  0.65858  1.0000
  C   C1192     1.0  0.82255  0.65623  0.73273  1.0000
  S   S486      1.0  0.72056  0.72739  0.70474  1.0000
  H   H1861     1.0  0.79071  0.72898  0.68478  1.0000
  S   S487      1.0  0.74844  0.69485  0.76014  1.0000
  H   H1862     1.0  0.96365  0.72297  0.85653  1.0000
  H   H1863     1.0  0.90544  0.63165  0.95229  1.0000
  H   H1864     1.0  0.82658  0.70640  0.49163  1.0000
  S   S488      1.0  0.87990  0.71166  0.74521  1.0000
  H   H1865     1.0  0.83641  0.64819  0.73850  1.0000
  N   N115      1.0  0.84102  0.54678  0.63451  1.0000
  C   C1193     1.0  0.83092  0.53910  0.66125  1.0000
  C   C1194     1.0  0.82803  0.56198  0.62473  1.0000
  C   C1195     1.0  0.84469  0.53620  0.61572  1.0000
  C   C1196     1.0  0.86054  0.54981  0.63641  1.0000
  H   H1866     1.0  0.84063  0.52787  0.66969  1.0000
  H   H1867     1.0  0.84520  0.71714  0.84219  1.0000
  H   H1868     1.0  0.82756  0.54688  0.67584  1.0000
  H   H1869     1.0  0.83519  0.56818  0.60464  1.0000
  H   H1870     1.0  0.81305  0.56023  0.62329  1.0000
  H   H1871     1.0  0.82523  0.57027  0.63833  1.0000
  H   H1872     1.0  0.85257  0.54154  0.59545  1.0000
  H   H1873     1.0  0.90727  0.67461  0.93511  1.0000
  H   H1874     1.0  0.83468  0.69554  0.69190  1.0000
  H   H1875     1.0  0.85848  0.55679  0.65188  1.0000
  H   H1876     1.0  0.86803  0.55656  0.61710  1.0000
  H   H1877     1.0  0.87118  0.53851  0.64206  1.0000
  C   C1197     1.0  0.99126  0.72881  0.95251  1.0000
  C   C1198     1.0  0.93456  0.63035  0.62171  1.0000
  Fe  Fe244     1.0  0.69642  0.71592  0.69994  1.0000
  H   H1878     1.0  0.78666  0.67518  0.74098  1.0000
  C   C1199     1.0  0.97177  0.71491  0.87218  1.0000
  H   H1879     1.0  0.89908  0.64979  0.62971  1.0000
  H   H1880     1.0  0.84627  0.72084  0.67860  1.0000
  H   H1881     1.0  0.92040  0.61082  0.66786  1.0000
  H   H1882     1.0  0.93060  0.65815  0.63426  1.0000
  H   H1883     1.0  0.89336  0.64391  0.66564  1.0000
  H   H1884     1.0  0.92331  0.65179  0.66995  1.0000
  H   H1885     1.0  0.67691  0.65130  0.72653  1.0000
  C   C1200     1.0  0.92683  0.62075  0.66961  1.0000
  H   H1886     1.0  0.86426  0.72426  0.79579  1.0000
  S   S489      1.0  0.73049  0.66508  0.66946  1.0000
  S   S490      1.0  0.70944  0.69185  0.72224  1.0000
  H   H1887     1.0  0.94795  0.64397  0.65290  1.0000
  C   C1201     1.0  0.80481  0.65342  0.77881  1.0000
  N   N116      1.0  0.79854  0.65817  0.61831  1.0000
  C   C1202     1.0  0.77891  0.66614  0.63167  1.0000
  C   C1203     1.0  0.81462  0.66656  0.61777  1.0000
  C   C1204     1.0  0.79742  0.65841  0.59061  1.0000
  C   C1205     1.0  0.80316  0.64158  0.63318  1.0000
  H   H1888     1.0  0.76631  0.66085  0.63047  1.0000
  H   H1889     1.0  0.77549  0.67896  0.62226  1.0000
  H   H1890     1.0  0.77848  0.66524  0.65322  1.0000
  H   H1891     1.0  0.81178  0.67904  0.60623  1.0000
  H   H1892     1.0  0.81567  0.66682  0.63832  1.0000
  H   H1893     1.0  0.82969  0.66070  0.60804  1.0000
  H   H1894     1.0  0.81242  0.65392  0.57900  1.0000
  H   H1895     1.0  0.79217  0.67064  0.57965  1.0000
  H   H1896     1.0  0.78668  0.65105  0.59022  1.0000
  H   H1897     1.0  0.81825  0.63536  0.62437  1.0000
  H   H1898     1.0  0.79187  0.63463  0.63300  1.0000
  H   H1899     1.0  0.80316  0.64093  0.65450  1.0000
  C   C1206     1.0  0.80346  0.63533  0.75267  1.0000
  H   H1900     1.0  0.80333  0.63367  0.73257  1.0000
  H   H1901     1.0  0.78974  0.63161  0.76665  1.0000
  H   H1902     1.0  0.81679  0.62688  0.75948  1.0000
  H   H1903     1.0  0.77198  0.66015  0.75745  1.0000
  C   C1207     1.0  0.78612  0.66254  0.74292  1.0000
  Fe  Fe245     1.0  0.89140  0.70854  0.95679  1.0000
  C   C1208     1.0  0.79937  0.72535  0.66594  1.0000
  C   C1209     1.0  0.91329  0.65119  0.97807  1.0000
  H   H1904     1.0  0.80788  0.66517  0.77850  1.0000
  H   H1905     1.0  0.87749  0.73209  0.63390  1.0000
  H   H1906     1.0  0.96695  0.49125  0.71901  1.0000
  H   H1907     1.0  0.97078  0.49839  0.66933  1.0000
  H   H1908     1.0  0.91713  0.65617  0.92453  1.0000
  H   H1909     1.0  0.84620  0.70524  0.64427  1.0000
  H   H1910     1.0  0.83028  0.53372  0.61364  1.0000
  S   S491      1.0  0.92382  0.69657  0.95586  1.0000
  H   H1911     1.0  0.83041  0.73246  0.85909  1.0000
  H   H1912     1.0  0.81907  0.73494  0.49033  1.0000
  C   C1210     1.0  0.87872  0.66410  0.97624  1.0000
  N   N117      1.0  0.89690  0.65441  0.96296  1.0000
  H   H1913     1.0  0.69362  0.66527  0.71506  1.0000
  H   H1914     1.0  0.99328  0.50448  0.67084  1.0000
  H   H1915     1.0  0.91918  0.62367  0.68937  1.0000
  Fe  Fe246     1.0  0.73477  0.70283  0.72343  1.0000
  N   N118      1.0  0.80423  0.65189  0.75181  1.0000
  H   H1916     1.0  0.74868  0.71235  0.61071  1.0000
  C   C1211     1.0  0.78230  0.69717  0.77481  1.0000
  Fe  Fe247     1.0  0.84826  0.70721  0.75996  1.0000
  H   H1917     1.0  0.91706  0.71578  0.84550  1.0000
  C   C1212     1.0  0.79901  0.70398  0.77245  1.0000
  S   S492      1.0  0.90302  0.68205  0.69262  1.0000
  H   H1918     1.0  0.96280  0.71713  0.89189  1.0000
  H   H1919     1.0  0.88780  0.71593  0.67639  1.0000
  S   S493      1.0  0.87275  0.70192  0.93323  1.0000
  H   H1920     1.0  0.97161  0.70250  0.87181  1.0000
  Fe  Fe248     1.0  0.92807  0.71990  0.96004  1.0000
  C   C1213     1.0  0.80067  0.71873  0.75530  1.0000
  H   H1921     1.0  0.82680  0.72727  0.80521  1.0000
  H   H1922     1.0  0.86623  0.66725  0.96491  1.0000
  H   H1923     1.0  0.81949  0.71881  0.57021  1.0000
  H   H1924     1.0  0.79896  0.73430  0.60367  1.0000
  S   S494      1.0  0.89617  0.73261  0.95738  1.0000
  H   H1925     1.0  0.89515  0.63002  0.64580  1.0000
  S   S495      1.0  0.95582  0.72978  0.93757  1.0000
  H   H1926     1.0  0.85756  0.72974  0.85164  1.0000
  H   H1927     1.0  0.97655  0.50403  0.60915  1.0000
  H   H1928     1.0  0.95117  0.62699  0.62075  1.0000
  H   H1929     1.0  0.89137  0.66598  0.92344  1.0000
  C   C1214     1.0  0.76949  0.71936  0.74169  1.0000
  C   C1215     1.0  0.89206  0.63926  0.96226  1.0000
  H   H1930     1.0  0.93176  0.64038  0.60441  1.0000
  H   H1931     1.0  0.94313  0.61624  0.67016  1.0000
  H   H1932     1.0  0.68253  0.69191  0.68766  1.0000
  C   C1216     1.0  0.93176  0.64770  0.65129  1.0000
  N   N119      1.0  0.92375  0.63467  0.64743  1.0000
  H   H1933     1.0  0.75818  0.72525  0.72964  1.0000
  H   H1934     1.0  0.92945  0.62014  0.61871  1.0000
  C   C1217     1.0  0.83093  0.71252  0.64266  1.0000
  H   H1935     1.0  0.79940  0.73631  0.64980  1.0000
  C   C1218     1.0  0.68142  0.66121  0.70988  1.0000
  C   C1219     1.0  0.98294  0.49225  0.62065  1.0000
  H   H1936     1.0  0.68837  0.65631  0.69162  1.0000
  H   H1937     1.0  0.83310  0.72324  0.62641  1.0000
  C   C1220     1.0  0.81922  0.70228  0.68968  1.0000
  H   H1938     1.0  0.87968  0.64131  0.95108  1.0000
  H   H1939     1.0  0.81089  0.69434  0.68533  1.0000
  H   H1940     1.0  0.88752  0.49325  0.68808  1.0000
  N   N120      1.0  0.82011  0.71683  0.66839  1.0000
  H   H1941     1.0  0.99442  0.70891  0.90944  1.0000
  H   H1942     1.0  0.66723  0.68519  0.73564  1.0000
  H   H1943     1.0  0.79069  0.71782  0.66117  1.0000
  H   H1944     1.0  0.67763  0.68271  0.66421  1.0000
  C   C1221     1.0  0.99211  0.73419  0.86843  1.0000
  H   H1945     1.0  0.91735  0.66238  0.97892  1.0000
  C   C1222     1.0  0.83091  0.72715  0.67531  1.0000
  C   C1223     1.0  0.67086  0.68706  0.68301  1.0000
  N   N121      1.0  0.99610  0.49377  0.63761  1.0000
  C   C1224     1.0  0.97390  0.70692  0.97469  1.0000
  H   H1946     1.0  0.96192  0.70064  0.97670  1.0000
  H   H1947     1.0  0.92729  0.64387  0.96874  1.0000
  H   H1948     1.0  0.99686  0.72225  0.82494  1.0000
  N   N122      1.0  0.99264  0.71756  0.86789  1.0000
  H   H1949     1.0  0.83268  0.73795  0.65916  1.0000
  H   H1950     1.0  0.87581  0.73727  0.80522  1.0000
  H   H1951     1.0  0.88706  0.63239  0.98283  1.0000
  S   S496      1.0  0.91747  0.78045  0.06741  1.0000
  Fe  Fe249     1.0  0.90551  0.78954  0.10558  1.0000
  S   S497      1.0  0.91700  0.81106  0.10555  1.0000
  C   C1225     1.0  0.99497  0.79484  0.14867  1.0000
  Fe  Fe250     1.0  0.88600  0.78556  0.16478  1.0000
  S   S498      1.0  0.89645  0.80646  0.16923  1.0000
  S   S499      1.0  0.86924  0.77300  0.20354  1.0000
  Fe  Fe251     1.0  0.88617  0.81821  0.13032  1.0000
  S   S500      1.0  0.86813  0.84330  0.12338  1.0000
  Fe  Fe252     1.0  0.92597  0.79726  0.14430  1.0000
  S   S501      1.0  0.95706  0.78956  0.15477  1.0000
  S   S502      1.0  0.87397  0.79771  0.12723  1.0000
  S   S503      1.0  0.91622  0.77530  0.14293  1.0000
  Fe  Fe253     1.0  0.74912  0.87193  0.14449  1.0000
  S   S504      1.0  0.72867  0.87675  0.18290  1.0000
  S   S505      1.0  0.77259  0.84937  0.14993  1.0000
  H   H1952     1.0  0.69453  0.91418  0.25182  1.0000
  H   H1953     1.0  0.96268  0.81008  0.09590  1.0000
  S   S506      1.0  0.75315  0.89722  0.12815  1.0000
  S   S507      1.0  0.72341  0.87440  0.12387  1.0000
  H   H1954     1.0  0.73807  0.94308  0.21025  1.0000
  C   C1226     1.0  0.84157  0.84498  0.12987  1.0000
  C   C1227     1.0  0.82920  0.85956  0.12115  1.0000
  C   C1228     1.0  0.80800  0.86106  0.12641  1.0000
  C   C1229     1.0  0.79908  0.84801  0.14073  1.0000
  C   C1230     1.0  0.81146  0.83350  0.14946  1.0000
  C   C1231     1.0  0.83258  0.83200  0.14414  1.0000
  H   H1955     1.0  0.83608  0.86964  0.10998  1.0000
  H   H1956     1.0  0.79861  0.87224  0.11925  1.0000
  H   H1957     1.0  0.80469  0.82336  0.16062  1.0000
  H   H1958     1.0  0.84186  0.82079  0.15135  1.0000
  C   C1232     1.0  0.97464  0.80197  0.14896  1.0000
  C   C1233     1.0  0.96893  0.81847  0.14556  1.0000
  C   C1234     1.0  0.98351  0.82766  0.14298  1.0000
  H   H1959     1.0  0.67183  0.85452  0.08202  1.0000
  C   C1235     1.0  0.70188  0.91145  0.05967  1.0000
  H   H1960     1.0  0.83993  0.73880  0.41679  1.0000
  H   H1961     1.0  0.95326  0.82408  0.14562  1.0000
  H   H1962     1.0  0.97900  0.84036  0.14117  1.0000
  C   C1236     1.0  0.68422  0.90810  0.07793  1.0000
  C   C1237     1.0  0.95730  0.73947  0.01857  1.0000
  C   C1238     1.0  0.90362  0.76923  0.05824  1.0000
  Fe  Fe254     1.0  0.70348  0.88133  0.16096  1.0000
  H   H1963     1.0  0.86297  0.75092  0.08090  1.0000
  C   C1239     1.0  0.71935  0.93504  0.19158  1.0000
  C   C1240     1.0  0.88645  0.76419  0.07536  1.0000
  H   H1964     1.0  0.68584  0.94458  0.13303  1.0000
  H   H1965     1.0  0.88800  0.75123  0.16848  1.0000
  H   H1966     1.0  0.88082  0.76775  0.09435  1.0000
  C   C1241     1.0  0.87248  0.74363  0.23622  1.0000
  N   N123      1.0  0.70393  0.95717  0.09865  1.0000
  H   H1967     1.0  0.68084  0.86469  0.27013  1.0000
  C   C1242     1.0  0.70128  0.93883  0.18205  1.0000
  C   C1243     1.0  0.68786  0.94772  0.11090  1.0000
  C   C1244     1.0  0.96554  0.79736  0.05369  1.0000
  C   C1245     1.0  0.94114  0.74635  0.25133  1.0000
  S   S508      1.0  0.70353  0.90724  0.14625  1.0000
  S   S509      1.0  0.72217  0.91488  0.07025  1.0000
  H   H1968     1.0  0.68294  0.90756  0.09898  1.0000
  C   C1246     1.0  0.69366  0.96469  0.19337  1.0000
  H   H1969     1.0  0.68444  0.93406  0.23626  1.0000
  H   H1970     1.0  0.95119  0.79612  0.06849  1.0000
  H   H1971     1.0  0.97114  0.78077  0.10222  1.0000
  C   C1247     1.0  0.66809  0.90561  0.06884  1.0000
  C   C1248     1.0  0.98112  0.82440  0.24824  1.0000
  C   C1249     1.0  0.69865  0.97201  0.10859  1.0000
  H   H1972     1.0  0.96923  0.78740  0.04319  1.0000
  H   H1973     1.0  0.86492  0.74968  0.25232  1.0000
  H   H1974     1.0  0.96187  0.74537  0.07771  1.0000
  H   H1975     1.0  0.71548  0.96915  0.21182  1.0000
  C   C1250     1.0  0.87643  0.75459  0.06777  1.0000
  H   H1976     1.0  0.94463  0.75718  0.25458  1.0000
  C   C1251     1.0  0.90094  0.75481  0.02624  1.0000
  H   H1977     1.0  0.72236  0.94476  0.12784  1.0000
  H   H1978     1.0  0.72772  0.93657  0.09865  1.0000
  N   N124      1.0  0.98207  0.79729  0.06681  1.0000
  H   H1979     1.0  0.95585  0.75197  0.00706  1.0000
  H   H1980     1.0  0.68402  0.97927  0.10383  1.0000
  N   N125      1.0  0.78960  0.87407  0.20098  1.0000
  C   C1252     1.0  0.80065  0.88318  0.21025  1.0000
  C   C1253     1.0  0.78526  0.88268  0.17441  1.0000
  C   C1254     1.0  0.77034  0.87224  0.22006  1.0000
  C   C1255     1.0  0.80207  0.85822  0.19904  1.0000
  H   H1981     1.0  0.80410  0.87710  0.23035  1.0000
  H   H1982     1.0  0.79163  0.89523  0.21167  1.0000
  H   H1983     1.0  0.81526  0.88470  0.19620  1.0000
  H   H1984     1.0  0.77705  0.87605  0.16684  1.0000
  H   H1985     1.0  0.77569  0.89463  0.17511  1.0000
  H   H1986     1.0  0.79940  0.88431  0.15936  1.0000
  H   H1987     1.0  0.76195  0.86506  0.21383  1.0000
  H   H1988     1.0  0.76022  0.88396  0.22123  1.0000
  H   H1989     1.0  0.77291  0.86613  0.24055  1.0000
  H   H1990     1.0  0.79373  0.85083  0.19324  1.0000
  H   H1991     1.0  0.80641  0.85160  0.21842  1.0000
  H   H1992     1.0  0.81622  0.85906  0.18360  1.0000
  C   C1256     1.0  0.97661  0.81086  0.08010  1.0000
  C   C1257     1.0  0.66997  0.90581  0.04173  1.0000
  C   C1258     1.0  0.67784  0.86928  0.22890  1.0000
  H   H1993     1.0  0.98157  0.82056  0.19902  1.0000
  Fe  Fe255     1.0  0.72561  0.90011  0.11093  1.0000
  Fe  Fe256     1.0  0.73056  0.90218  0.16497  1.0000
  H   H1994     1.0  0.92355  0.76895  0.01993  1.0000
  C   C1259     1.0  0.71146  0.96070  0.20349  1.0000
  H   H1995     1.0  0.96240  0.80860  0.03869  1.0000
  C   C1260     1.0  0.72425  0.94595  0.20260  1.0000
  S   S510      1.0  0.73589  0.91667  0.19067  1.0000
  H   H1996     1.0  0.68447  0.85805  0.13186  1.0000
  H   H1997     1.0  0.69138  0.93652  0.10358  1.0000
  H   H1998     1.0  0.97375  0.82237  0.06561  1.0000
  C   C1261     1.0  0.98856  0.81007  0.21288  1.0000
  C   C1262     1.0  0.98522  0.78234  0.08701  1.0000
  H   H1999     1.0  0.67304  0.95436  0.10599  1.0000
  C   C1263     1.0  0.68766  0.90910  0.02363  1.0000
  H   H2000     1.0  0.69146  0.96806  0.06332  1.0000
  H   H2001     1.0  0.71035  0.97951  0.09950  1.0000
  H   H2002     1.0  0.95325  0.75980  0.04999  1.0000
  H   H2003     1.0  0.73582  0.95459  0.09670  1.0000
  C   C1264     1.0  0.91064  0.76469  0.03355  1.0000
  H   H2004     1.0  0.92082  0.77339  0.22458  1.0000
  H   H2005     1.0  0.90646  0.75141  0.00711  1.0000
  C   C1265     1.0  0.87592  0.75233  0.20979  1.0000
  C   C1266     1.0  0.98749  0.74117  0.03163  1.0000
  H   H2006     1.0  0.98656  0.75383  0.02103  1.0000
  C   C1267     1.0  0.67223  0.85140  0.13426  1.0000
  C   C1268     1.0  0.70589  0.96105  0.06924  1.0000
  C   C1269     1.0  0.88377  0.74975  0.04331  1.0000
  H   H2007     1.0  0.71790  0.96815  0.05920  1.0000
  H   H2008     1.0  0.69716  0.96962  0.13068  1.0000
  H   H2009     1.0  0.82391  0.74895  0.45904  1.0000
  C   C1270     1.0  0.68136  0.92413  0.25360  1.0000
  H   H2010     1.0  0.95689  0.76497  0.20542  1.0000
  H   H2011     1.0  0.69700  0.93027  0.17455  1.0000
  C   C1271     1.0  0.68842  0.95365  0.18293  1.0000
  C   C1272     1.0  0.70339  0.91222  0.03248  1.0000
  H   H2012     1.0  0.67445  0.95650  0.17572  1.0000
  H   H2013     1.0  0.98889  0.81127  0.08991  1.0000
  H   H2014     1.0  0.67928  0.84021  0.12727  1.0000
  H   H2015     1.0  0.98728  0.82832  0.26248  1.0000
  H   H2016     1.0  0.71704  0.91475  0.01835  1.0000
  H   H2017     1.0  0.90465  0.75898  0.23821  1.0000
  H   H2018     1.0  0.96930  0.81745  0.26018  1.0000
  H   H2019     1.0  0.97672  0.80292  0.22359  1.0000
  H   H2020     1.0  0.70983  0.95009  0.06111  1.0000
  C   C1273     1.0  0.72330  0.94788  0.10577  1.0000
  H   H2021     1.0  0.91356  0.76430  0.20287  1.0000
  H   H2022     1.0  0.99590  0.79293  0.26075  1.0000
  C   C1274     1.0  0.91801  0.76200  0.22260  1.0000
  H   H2023     1.0  0.68923  0.90923  0.00266  1.0000
  H   H2024     1.0  0.99016  0.77187  0.07758  1.0000
  H   H2025     1.0  0.69393  0.86682  0.22131  1.0000
  N   N126      1.0  0.99728  0.81493  0.23163  1.0000
  H   H2026     1.0  0.67767  0.87194  0.08712  1.0000
  S   S511      1.0  0.67304  0.87475  0.17688  1.0000
  H   H2027     1.0  0.97355  0.83523  0.23560  1.0000
  S   S512      1.0  0.67837  0.98345  0.19459  1.0000
  H   H2028     1.0  0.99711  0.78211  0.09795  1.0000
  H   H2029     1.0  0.67690  0.90237  0.22976  1.0000
  N   N127      1.0  0.93598  0.74918  0.22472  1.0000
  C   C1275     1.0  0.95494  0.74703  0.06007  1.0000
  H   H2030     1.0  0.94962  0.75623  0.18325  1.0000
  H   H2031     1.0  0.93941  0.74438  0.06765  1.0000
  C   C1276     1.0  0.67043  0.86795  0.25651  1.0000
  H   H2032     1.0  0.68075  0.92836  0.27189  1.0000
  C   C1277     1.0  0.88556  0.74453  0.18894  1.0000
  C   C1278     1.0  0.95316  0.75387  0.20356  1.0000
  H   H2033     1.0  0.66599  0.84825  0.15615  1.0000
  H   H2034     1.0  0.67005  0.89625  0.27964  1.0000
  H   H2035     1.0  0.66705  0.92172  0.21187  1.0000
  H   H2036     1.0  0.96701  0.74449  0.20435  1.0000
  H   H2037     1.0  0.92841  0.74282  0.26768  1.0000
  H   H2038     1.0  0.99570  0.73909  0.04823  1.0000
  H   H2039     1.0  0.85442  0.75826  0.82833  1.0000
  H   H2040     1.0  0.82499  0.74751  0.78756  1.0000
  C   C1279     1.0  0.84140  0.75705  0.82074  1.0000
  H   H2041     1.0  0.81132  0.74267  0.82143  1.0000
  H   H2042     1.0  0.99241  0.73972  0.93766  1.0000
  H   H2043     1.0  0.82735  0.76057  0.83515  1.0000
  H   H2044     1.0  0.84085  0.76573  0.80130  1.0000
  H   H2045     1.0  0.86212  0.74454  0.77819  1.0000
  H   H2046     1.0  0.66895  0.75182  0.68187  1.0000
  N   N128      1.0  0.84338  0.74069  0.81762  1.0000
  H   H2047     1.0  0.98465  0.74269  0.85255  1.0000
  C   C1280     1.0  0.82584  0.73953  0.80758  1.0000
  H   H2048     1.0  0.78676  0.73813  0.72743  1.0000
