data_image0
_chemical_formula_structural       FeS2FeS2FeSFeS3FeS2FeS2FeSFeS3FeS2FeS2FeSFeS3FeS2FeS2FeSFeS3FeS2FeS2FeSFeS3FeS2FeS2FeSFeS3FeS2FeS2FeSFeS3FeS2FeS2FeSFeS3FeS2FeS2FeSFeS3FeS2FeS2FeSFeS3FeS2FeS2FeSFeS3FeS2FeS2FeSFeS3C6H4C6H4C6H4C6H4C6H4C6H4C6H4C6H4C6H4C6H4C6H4C6H4C6H4C6H4C6H4C6H4C6H4C6H4C6H4C6H4C6H4C6H4C6H4C6H4NC4H12NC4H12NC4H12NC4H12NC4H12NC4H12NC4H12NC4H12NC4H12NC4H12NC4H12NC4H12NC4H12NC4H12NC4H12NC4H12NC4H12NC4H12NC4H12NC4H12NC4H12NC4H12NC4H12NC4H12
_chemical_formula_sum              "Fe48 S96 C240 H384 N24"
_cell_length_a       25.6228903763935
_cell_length_b       23.14130487612442
_cell_length_c       38.42538617281765
_cell_angle_alpha    88.99646729231529
_cell_angle_beta     88.75806565081814
_cell_angle_gamma    91.0530232415903

_space_group_name_H-M_alt    "P 1"
_space_group_IT_number       1

loop_
  _space_group_symop_operation_xyz
  'x, y, z'

loop_
  _atom_site_type_symbol
  _atom_site_label
  _atom_site_symmetry_multiplicity
  _atom_site_fract_x
  _atom_site_fract_y
  _atom_site_fract_z
  _atom_site_occupancy
  Fe  Fe1       1.0  0.0911633748903462  0.1918286659254369  0.13017194731479548  1.0000
  S   S1        1.0  0.1320314359998329  0.13967386847177643  0.08944089090068785  1.0000
  S   S2        1.0  0.0535889631316433  0.14898200828247554  0.17754660618958887  1.0000
  Fe  Fe2       1.0  0.11048286160193732  0.30454895295297446  0.09044990109668724  1.0000
  S   S3        1.0  0.15449013675108092  0.2622309288519009  0.04709657897157915  1.0000
  S   S4        1.0  0.09719026932057706  0.3999840793107025  0.08613449497784131  1.0000
  Fe  Fe3       1.0  0.09029960314942476  0.1951561970991933  0.05125834545323937  1.0000
  S   S5        1.0  0.05365302563655994  0.1619443579328741  0.0027265896469057527  1.0000
  Fe  Fe4       1.0  0.19187486376626509  0.2114610450560117  0.08976420356643211  1.0000
  S   S6        1.0  0.2775402917646755  0.19215656296938777  0.0909198109644241  1.0000
  S   S7        1.0  0.043449011287596484  0.24088035271829256  0.09185991171340528  1.0000
  S   S8        1.0  0.15381241399950718  0.26033453457735645  0.13309379076006958  1.0000
  Fe  Fe5       1.0  0.5884109311482426  0.5952459546357932  0.7468316704043885  1.0000
  S   S9        1.0  0.604151519318455  0.6805020899472803  0.7196057635182842  1.0000
  S   S10       1.0  0.5253549067501476  0.5312326395682996  0.7334804204939163  1.0000
  Fe  Fe6       1.0  0.6799753489206384  0.6095764962283526  0.7947095549302502  1.0000
  S   S11       1.0  0.7040607570568844  0.6961471569238922  0.7714542640210359  1.0000
  S   S12       1.0  0.7226884661196031  0.5647971997493432  0.8375152880379696  1.0000
  Fe  Fe7       1.0  0.6182439359127567  0.7131210248553481  0.7732634481986626  1.0000
  S   S13       1.0  0.5878702173244912  0.7977547338095199  0.7915957018307392  1.0000
  Fe  Fe8       1.0  0.6878850554232012  0.6547546532890197  0.7203297179019583  1.0000
  S   S14       1.0  0.7391567464904593  0.6533382244378104  0.6723686665741856  1.0000
  S   S15       1.0  0.5952849305124804  0.62993437262112  0.8006411057662516  1.0000
  S   S16       1.0  0.671048980702752  0.5668840344510394  0.7434820842163885  1.0000
  Fe  Fe9       1.0  0.40727252791723817  0.0328376765382441  0.23080047887969946  1.0000
  S   S17       1.0  0.48310172363157317  0.0786765548335806  0.24090641849071986  1.0000
  S   S18       1.0  0.3272416582880823  0.07075512030506181  0.2347226983902536  1.0000
  Fe  Fe10      1.0  0.45708024804812347  0.9184433382735142  0.22016516920379034  1.0000
  S   S19       1.0  0.5376125597014636  0.9518888096537044  0.22957366675343177  1.0000
  S   S20       1.0  0.43733073177577164  0.8271748044433377  0.2069665343723743  1.0000
  Fe  Fe11      1.0  0.5006281890346621  0.00044425667486058806  0.27305401996183415  1.0000
  S   S21       1.0  0.5461388251954008  0.014118105587461738  0.3211990118379516  1.0000
  Fe  Fe12      1.0  0.5158899886083924  0.027738114631449484  0.1965486242704563  1.0000
  S   S22       1.0  0.5837666372047507  0.06800236215697297  0.1660759175148565  1.0000
  S   S23       1.0  0.42184133039913746  0.9588527411600091  0.2674613217275976  1.0000
  S   S24       1.0  0.4376899797392484  0.9897397129323198  0.18264369101197667  1.0000
  Fe  Fe13      1.0  0.4669143504234686  0.24744337338922107  0.4377844735510892  1.0000
  S   S25       1.0  0.49121777510812686  0.3050550710594834  0.3927731739520544  1.0000
  S   S26       1.0  0.42282350401117275  0.16441471905519903  0.42956216577328105  1.0000
  Fe  Fe14      1.0  0.5044570256042578  0.3310287414243084  0.4914139754373086  1.0000
  S   S27       1.0  0.530853550499007  0.39767666878329916  0.45160766007327124  1.0000
  S   S28       1.0  0.5110165778615174  0.33995171264698976  0.5491040286523078  1.0000
  Fe  Fe15      1.0  0.4571603043295801  0.3755420477994483  0.42451029252510236  1.0000
  S   S29       1.0  0.41375767879278114  0.4471746768780355  0.3990747316047084  1.0000
  Fe  Fe16      1.0  0.5635457104608714  0.32242706237212054  0.42306931328550157  1.0000
  S   S30       1.0  0.6409896646797982  0.32607321851485765  0.3943741084817165  1.0000
  S   S31       1.0  0.42666545224541746  0.31686750523225427  0.4674386317365187  1.0000
  S   S32       1.0  0.5428825484114308  0.2567952719541678  0.4651032576803397  1.0000
  Fe  Fe17      1.0  0.7845197064695616  0.030863663802878305  0.9903444054424704  1.0000
  S   S33       1.0  0.7349988670080002  0.10836382887944396  0.9820641526328543  1.0000
  S   S34       1.0  0.8408576713827344  0.02748626477090821  0.0344960872151201  1.0000
  Fe  Fe18      1.0  0.7336028443077567  0.9641990895693071  0.9319920861982688  1.0000
  S   S35       1.0  0.6804061180392833  0.03682489596493599  0.9179613737021406  1.0000
  S   S36       1.0  0.7379629587867104  0.8743932479019548  0.9106956883937055  1.0000
  Fe  Fe19      1.0  0.7513905751056368  0.09412792580047169  0.9250662634891369  1.0000
  S   S37       1.0  0.7857149376605842  0.16993425591564937  0.893822165214059  1.0000
  Fe  Fe20      1.0  0.6690316322099437  0.04442309040428216  0.9760445034665003  1.0000
  S   S38       1.0  0.5896831539760448  0.045813043216946125  0.002650926635263229  1.0000
  S   S39       1.0  0.8056163483212144  0.02042189041983611  0.9341013635993124  1.0000
  S   S40       1.0  0.7172952502050447  0.9680690602806737  0.9893214526769809  1.0000
  Fe  Fe21      1.0  0.7836121976417929  0.3315979024392674  0.6307781784512176  1.0000
  S   S41       1.0  0.8693605791927163  0.350416571590355  0.6349236018573766  1.0000
  S   S42       1.0  0.7501084780059276  0.36973616829791117  0.5820973631552768  1.0000
  Fe  Fe22      1.0  0.7783196021953163  0.26626931374942275  0.7002826929531485  1.0000
  S   S43       1.0  0.8637404976308609  0.27970918032029807  0.7098880303388213  1.0000
  S   S44       1.0  0.7218787756063964  0.22055450976533186  0.7379133199114387  1.0000
  Fe  Fe23      1.0  0.8505471609928835  0.3697988513370086  0.6902668015994433  1.0000
  S   S45       1.0  0.8830197496859372  0.44830945156938906  0.7157488028886912  1.0000
  Fe  Fe24      1.0  0.8741482167738026  0.2586455985603922  0.6534341308134365  1.0000
  S   S46       1.0  0.9415319439316785  0.207017963892282  0.6337200807750583  1.0000
  S   S47       1.0  0.7640908370820262  0.35886276978415393  0.6851024539690961  1.0000
  S   S48       1.0  0.7896730926234355  0.2374735209003644  0.6448686750222755  1.0000
  Fe  Fe25      1.0  0.050170809124526095  0.23889085623430567  0.45463333645342974  1.0000
  S   S49       1.0  0.09714914230796622  0.16033183784083294  0.46704768473761377  1.0000
  S   S50       1.0  0.9657086839402742  0.24592960352702084  0.4709073819988091  1.0000
  Fe  Fe26      1.0  0.14443327229296604  0.30649970594496484  0.4241171536769394  1.0000
  S   S51       1.0  0.19850044545721213  0.23357496233205172  0.4344931265134886  1.0000
  S   S52       1.0  0.1710602300683351  0.39268115303895895  0.401165978717716  1.0000
  Fe  Fe27      1.0  0.13436884271208613  0.1776312924075023  0.4143815867199468  1.0000
  S   S53       1.0  0.15557569857436926  0.10854823124220458  0.37658423370453353  1.0000
  Fe  Fe28      1.0  0.15594709331602405  0.22492910689721185  0.48583645920679597  1.0000
  S   S54       1.0  0.19504526092181754  0.22396161862192562  0.5374397028384559  1.0000
  S   S55       1.0  0.08254437313082774  0.25100021114978016  0.4000696627841827  1.0000
  S   S56       1.0  0.10651024209395543  0.30211237266585655  0.4770811944003315  1.0000
  Fe  Fe29      1.0  0.614284293585669  0.6763531641695789  0.3346286379917051  1.0000
  S   S57       1.0  0.6026530716112254  0.7591151865033767  0.3629133918448062  1.0000
  S   S58       1.0  0.5676364294298271  0.6441138281609987  0.2900882090558103  1.0000
  Fe  Fe30      1.0  0.7011470916898254  0.6372191599245507  0.3814632136866547  1.0000
  S   S59       1.0  0.6965490962973927  0.7157874483448636  0.41457678186298375  1.0000
  S   S60       1.0  0.7601237985236172  0.5673960412120692  0.38583560866581135  1.0000
  Fe  Fe31      1.0  0.6097535096004926  0.7035474565433675  0.41083432985015683  1.0000
  S   S61       1.0  0.5519430714777707  0.7149498608884837  0.454702271327747  1.0000
  Fe  Fe32      1.0  0.6901029825174162  0.7636181290432902  0.3636026306890692  1.0000
  S   S62       1.0  0.7404172006073197  0.84246259650532  0.35281640088939975  1.0000
  S   S63       1.0  0.6151402303393687  0.6200455228262897  0.38262830917270946  1.0000
  S   S64       1.0  0.7010875906043137  0.6857757378944747  0.3307223162493794  1.0000
  Fe  Fe33      1.0  0.27043973743394717  0.6058323413770402  0.6550505603290913  1.0000
  S   S65       1.0  0.19105736354898864  0.6045140516396162  0.6806461630447677  1.0000
  S   S66       1.0  0.33624665195295256  0.6635449203857204  0.6710011916894935  1.0000
  Fe  Fe34      1.0  0.23960157040950492  0.5242413712242451  0.5989250703504331  1.0000
  S   S67       1.0  0.1572569043142001  0.5150334796985327  0.6188210129587802  1.0000
  S   S68       1.0  0.26661932094328383  0.48490359231804014  0.5491676625142032  1.0000
  Fe  Fe35      1.0  0.16163121025569568  0.6104662145608613  0.6263754031299668  1.0000
  S   S69       1.0  0.08944593933315302  0.6598970254020219  0.6149463227748465  1.0000
  Fe  Fe36      1.0  0.19304216365647503  0.50922047914904  0.6713491440873657  1.0000
  S   S70       1.0  0.15614189351302601  0.4471290692450597  0.710466955437328  1.0000
  S   S71       1.0  0.24097975420383183  0.6205909531431797  0.601298899705094  1.0000
  S   S72       1.0  0.27572622096553284  0.5094311621399292  0.6507381350874276  1.0000
  Fe  Fe37      1.0  0.014283319509929004  0.5294728186368729  0.9230181881219311  1.0000
  S   S73       1.0  0.0917564282067016  0.5640968530538141  0.9400123612402121  1.0000
  S   S74       1.0  0.9824164800384593  0.4451793397162782  0.9450498470590356  1.0000
  Fe  Fe38      1.0  0.003322102734349297  0.6237365280493263  0.8686099353629974  1.0000
  S   S75       1.0  0.07962577243190805  0.6667509566663622  0.8810078811161317  1.0000
  S   S76       1.0  0.9557712823774257  0.6538399557638387  0.8238215368530649  1.0000
  Fe  Fe39      1.0  0.10950042217398637  0.5762805903718359  0.8831568295840739  1.0000
  S   S77       1.0  0.1867097375750879  0.550535598201086  0.8599418887570678  1.0000
  Fe  Fe40      1.0  0.05419447284149781  0.6505123059398735  0.9367794257991279  1.0000
  S   S78       1.0  0.06514179464246594  0.7147952172679823  0.9794870542518951  1.0000
  S   S79       1.0  0.035126282503959994  0.5346371402054285  0.8662701208122914  1.0000
  S   S80       1.0  0.9749332569555442  0.6151222395748148  0.9241097138093285  1.0000
  Fe  Fe41      1.0  0.17176877917994865  0.771126307199579  0.43396366282767507  1.0000
  S   S81       1.0  0.25061966609411435  0.7695294934678816  0.4581961653131058  1.0000
  S   S82       1.0  0.09337362218467371  0.7548530098731887  0.45981686858607373  1.0000
  Fe  Fe42      1.0  0.21532927438967964  0.8101294881274579  0.3628736187177022  1.0000
  S   S83       1.0  0.29838782135753505  0.8104828563519095  0.38020163070818164  1.0000
  S   S84       1.0  0.1913398216116481  0.8430179884883304  0.3103298332996692  1.0000
  Fe  Fe43      1.0  0.27518320921642203  0.7278210478368735  0.4084553617938952  1.0000
  S   S85       1.0  0.32435964149306507  0.6492306491891203  0.40867345972291913  1.0000
  Fe  Fe44      1.0  0.2663140015450786  0.8519280847791514  0.4280697517276071  1.0000
  S   S86       1.0  0.3014269989320272  0.9324604257893815  0.4497571497628046  1.0000
  S   S87       1.0  0.19527428583936077  0.722820365936828  0.3862744287322147  1.0000
  S   S88       1.0  0.18483630810871898  0.8576787948013559  0.40863196265754104  1.0000
  Fe  Fe45      1.0  0.8745294091643572  0.8252136230415889  0.18571950882888866  1.0000
  S   S89       1.0  0.8775387236750665  0.7305776435817994  0.19888796118892363  1.0000
  S   S90       1.0  0.7979341336152668  0.8693679482402847  0.19296522586724504  1.0000
  Fe  Fe46      1.0  0.9895216029322929  0.8334083567571976  0.16615674205024444  1.0000
  S   S91       1.0  0.0022757764704435246  0.7397480162885551  0.17748932150879143  1.0000
  S   S92       1.0  0.06084299845773522  0.8830732045865214  0.14759243808581904  1.0000
  Fe  Fe47      1.0  0.9271798745753225  0.7261062861936793  0.15024785788106076  1.0000
  S   S93       1.0  0.9212475207748674  0.6553928560724109  0.11154727741810194  1.0000
  Fe  Fe48      1.0  0.9521707708330143  0.7543330644330036  0.22470823975612958  1.0000
  S   S94       1.0  0.9750511015324091  0.7238474251806097  0.277535781221722  1.0000
  S   S95       1.0  0.9179484418117708  0.819030805227334  0.1345609470103887  1.0000
  S   S96       1.0  0.9452551301557861  0.849572839881519  0.21584016502034006  1.0000
  C   C1        1.0  0.1291839792920726  0.8140195542302463  0.3021034557370657  1.0000
  C   C2        1.0  0.1004003592162217  0.7846118965949627  0.3284822959438036  1.0000
  C   C3        1.0  0.052853470274226266  0.7570242943105947  0.32103350158760907  1.0000
  C   C4        1.0  0.033451417986911425  0.7600387160428893  0.2873427618185836  1.0000
  C   C5        1.0  0.06096020989820938  0.7920111203713394  0.26144524907216254  1.0000
  C   C6        1.0  0.10884977920853056  0.8186927290465592  0.26873586836446783  1.0000
  H   H1        1.0  0.11469597498317194  0.7827833243886749  0.354645933390987  1.0000
  H   H2        1.0  0.03141787691646858  0.733133397425293  0.34131526268444007  1.0000
  H   H3        1.0  0.04608986349845168  0.7952401704308113  0.23549125292110298  1.0000
  H   H4        1.0  0.13037895437520963  0.8415712204186789  0.2481831357692129  1.0000
  C   C7        1.0  0.026912996318565252  0.6964411057202903  0.01673700551729196  1.0000
  C   C8        1.0  0.02936085831913071  0.7311218922790415  0.0461558181700148  1.0000
  C   C9        1.0  0.9970547230252446  0.7186693321117716  0.07540870878031695  1.0000
  C   C10       1.0  0.9623009546984926  0.6712655567623639  0.07531121718217652  1.0000
  C   C11       1.0  0.9608766728771283  0.6356920834875353  0.04628272301518366  1.0000
  C   C12       1.0  0.993301460934262  0.6481263076360253  0.01715440653497713  1.0000
  H   H5        1.0  0.05638150664016006  0.7674701642302937  0.04626310661914568  1.0000
  H   H6        1.0  0.9992610455628678  0.7456556077569597  0.09799268795181142  1.0000
  H   H7        1.0  0.934423822157154  0.598700026767557  0.04614222361832265  1.0000
  H   H8        1.0  0.9919464785146221  0.6203966827597769  0.9950033950385003  1.0000
  C   C13       1.0  0.16644772719073658  0.4733573684265867  0.7523753360551975  1.0000
  C   C14       1.0  0.133159583498798  0.4556198425536894  0.7800371179638883  1.0000
  C   C15       1.0  0.13925383765498622  0.47920394536284333  0.8131410922381396  1.0000
  C   C16       1.0  0.17915605889106426  0.5199143925264907  0.8187810639581807  1.0000
  C   C17       1.0  0.2133869130818762  0.5362785191818022  0.791331374053572  1.0000
  C   C18       1.0  0.20669721729886947  0.5135331973640813  0.7580745889868234  1.0000
  H   H9        1.0  0.10217827960913327  0.4243206698328901  0.7757585719569184  1.0000
  H   H10       1.0  0.1135221981315746  0.465157836832755  0.8343403592391088  1.0000
  H   H11       1.0  0.24458001623166434  0.5673213698180455  0.7956210958125168  1.0000
  H   H12       1.0  0.23309681617730804  0.52671908049557  0.7369435361448907  1.0000
  C   C19       1.0  0.09112003169193471  0.6886937775606464  0.5723968768374881  1.0000
  C   C20       1.0  0.1387164726221556  0.7027385575208424  0.5555416105550599  1.0000
  C   C21       1.0  0.13975753482985998  0.723779854843431  0.5210934860787436  1.0000
  C   C22       1.0  0.09318200301465816  0.7306580524849593  0.5033446857646657  1.0000
  C   C23       1.0  0.04550122607471983  0.7176355289933942  0.520390519451306  1.0000
  C   C24       1.0  0.044447602380159865  0.6969682476376785  0.5549305374156089  1.0000
  H   H13       1.0  0.17471488513127675  0.698562072660328  0.5692676194329742  1.0000
  H   H14       1.0  0.1766194230011036  0.7346212080041313  0.5084954151212775  1.0000
  H   H15       1.0  0.009287309426433632  0.723138057981678  0.5068461054957466  1.0000
  H   H16       1.0  0.007489401407230646  0.6864879064381204  0.5679245221191033  1.0000
  C   C25       1.0  0.4887146839076229  0.6970279407679633  0.44167494283291064  1.0000
  C   C26       1.0  0.4457529894370243  0.7112727617214457  0.46273632661950415  1.0000
  C   C27       1.0  0.39495849185098036  0.6980175995420435  0.452153245572535  1.0000
  C   C28       1.0  0.3872918120256147  0.6685925247359318  0.4211350141467527  1.0000
  C   C29       1.0  0.43017025014739246  0.6539830822996343  0.4002041498700771  1.0000
  C   C30       1.0  0.48078727292149104  0.6690358734254671  0.41020012527294863  1.0000
  H   H17       1.0  0.4517570298220912  0.7330915145669639  0.48706126266155997  1.0000
  H   H18       1.0  0.3617917575582007  0.7094401555573557  0.46835928588903486  1.0000
  H   H19       1.0  0.42418641450523786  0.6315204475040328  0.37608296450807344  1.0000
  H   H20       1.0  0.513492469215628  0.6587840898886581  0.3934961617428165  1.0000
  C   C31       1.0  0.7557886681831553  0.8497609927847135  0.3083508203094183  1.0000
  C   C32       1.0  0.7239530683205875  0.8240617122582568  0.2836045547366603  1.0000
  C   C33       1.0  0.736308513258921  0.8310558540285315  0.24800632570802233  1.0000
  C   C34       1.0  0.7813412427336516  0.8621707795357163  0.23726871325718932  1.0000
  C   C35       1.0  0.8133522954289468  0.887430480484831  0.2620252680479412  1.0000
  C   C36       1.0  0.800108950703317  0.8820304027741085  0.2975210959640528  1.0000
  H   H21       1.0  0.6892562721540978  0.7997068735415939  0.2918105679143471  1.0000
  H   H22       1.0  0.7115666850029981  0.8112852255119819  0.2288926603328476  1.0000
  H   H23       1.0  0.8481906011725593  0.9114930578284195  0.2537611054057692  1.0000
  H   H24       1.0  0.8246302306209651  0.9021533965899851  0.3166068750804849  1.0000
  C   C37       1.0  0.21803084486952792  0.29530271256178403  0.5418605604350566  1.0000
  C   C38       1.0  0.22037556248457027  0.32076552152274673  0.5746030535243132  1.0000
  C   C39       1.0  0.23519200507425783  0.3793444164408927  0.5771841057817424  1.0000
  C   C40       1.0  0.24897894391166864  0.4116663734648431  0.5470829073924486  1.0000
  C   C41       1.0  0.24820801983887675  0.38557584366165004  0.51460389023863  1.0000
  C   C42       1.0  0.23217195778381114  0.327826611903016  0.5120044976162693  1.0000
  H   H25       1.0  0.209504905895324  0.29579043116360293  0.5977785510840099  1.0000
  H   H26       1.0  0.2361746748721449  0.3994195943296999  0.6023940578233353  1.0000
  H   H27       1.0  0.2587634393259779  0.4102597216575187  0.49122969878486406  1.0000
  H   H28       1.0  0.2307451310830899  0.30869186063613135  0.48668885002736395  1.0000
  C   C43       1.0  0.27072043148030744  0.987771945406809  0.42705381045928825  1.0000
  C   C44       1.0  0.2538993062307967  0.9778779426467583  0.3932692242301248  1.0000
  C   C45       1.0  0.21955388705946333  0.015980505020873004  0.37746416938537924  1.0000
  C   C46       1.0  0.2025144287558574  0.06447772099471294  0.39523160601321855  1.0000
  C   C47       1.0  0.22154044240690277  0.07607526929646546  0.4283351927323702  1.0000
  C   C48       1.0  0.2560604116360206  0.0379242479204549  0.4441561593852053  1.0000
  H   H29       1.0  0.2655960671563366  0.9393972191721063  0.37980779965240113  1.0000
  H   H30       1.0  0.2046031992975826  0.006308645248774836  0.3521488321506231  1.0000
  H   H31       1.0  0.20808863212300494  0.11297551910158266  0.44246548843168754  1.0000
  H   H32       1.0  0.26889465896531917  0.04548306047206463  0.470344064876639  1.0000
  C   C49       1.0  0.9465593752511371  0.21398410081958477  0.5882330242008231  1.0000
  C   C50       1.0  0.9923859830359274  0.19781403979936826  0.5708143018891774  1.0000
  C   C51       1.0  0.9986993430531634  0.20846433024089575  0.5349320298733508  1.0000
  C   C52       1.0  0.9584801914372949  0.2332776775492095  0.5160490290449615  1.0000
  C   C53       1.0  0.912298007876994  0.24837494147148012  0.5334335296112408  1.0000
  C   C54       1.0  0.9065051031599262  0.23934584638867157  0.5694980054373124  1.0000
  H   H33       1.0  0.023365219218882682  0.17777974501293506  0.5850664937563765  1.0000
  H   H34       1.0  0.03468658881853637  0.1972879528605155  0.5220093755603051  1.0000
  H   H35       1.0  0.8813438715733046  0.2679448958406417  0.519228589804122  1.0000
  H   H36       1.0  0.8709502176903288  0.2519231255868087  0.5827521002050414  1.0000
  C   C55       1.0  0.7691431733521467  0.179462059844391  0.8498460019379256  1.0000
  C   C56       1.0  0.7223888193603241  0.15716509243174848  0.8370609382125487  1.0000
  C   C57       1.0  0.708596824618887  0.16929136810233336  0.8024819438389318  1.0000
  C   C58       1.0  0.74195510318222  0.20259033144707428  0.7803282670151752  1.0000
  C   C59       1.0  0.7894121885091377  0.22335641262334405  0.7928917343034196  1.0000
  C   C60       1.0  0.8025784717789638  0.21260839916367535  0.8276824776872483  1.0000
  H   H37       1.0  0.6962528186964398  0.13179704905466028  0.8540001207618957  1.0000
  H   H38       1.0  0.6718202891183388  0.15305748673778785  0.7929095489039214  1.0000
  H   H39       1.0  0.8155198595660901  0.24846425334151498  0.7759824023262696  1.0000
  H   H40       1.0  0.8389411143645771  0.22963977727605678  0.8373746451916527  1.0000
  C   C61       1.0  0.6737876354741374  0.3934017183678399  0.3927777552433363  1.0000
  C   C62       1.0  0.7145510138731324  0.40271763203968747  0.36838096622394045  1.0000
  C   C63       1.0  0.7418184982741443  0.455820160501971  0.36681089729667077  1.0000
  C   C64       1.0  0.7275717129457302  0.5002793386084909  0.3890878821035551  1.0000
  C   C65       1.0  0.6869177850699153  0.49106497166736574  0.413549030679497  1.0000
  C   C66       1.0  0.6606281027009734  0.4373557199478633  0.4157368725175495  1.0000
  H   H41       1.0  0.7251826011264918  0.3687791023553788  0.3506921240656235  1.0000
  H   H42       1.0  0.7732806827386653  0.46286255293578005  0.3478744206408026  1.0000
  H   H43       1.0  0.6763627753996695  0.5251218226065809  0.43118503271117753  1.0000
  H   H44       1.0  0.6310203021846248  0.42996520652204945  0.4356182350554332  1.0000
  C   C67       1.0  0.577440786223891  0.34656621733897913  0.5588967633785135  1.0000
  C   C68       1.0  0.6123065807168225  0.3713047065453948  0.5342209811166463  1.0000
  C   C69       1.0  0.6651458592783356  0.3778922002920331  0.541833704454997  1.0000
  C   C70       1.0  0.6839163543300342  0.35808215997162285  0.5737032113653431  1.0000
  C   C71       1.0  0.649332676988008  0.3328502904449168  0.5984988763326858  1.0000
  C   C72       1.0  0.5958558028320157  0.32769103952941214  0.5912024048305363  1.0000
  H   H45       1.0  0.5984675182567728  0.38666408711409705  0.5094928236141874  1.0000
  H   H46       1.0  0.6914196503116539  0.3992557727574695  0.5231518434538718  1.0000
  H   H47       1.0  0.66367532598913  0.31775583460664936  0.6232790646200345  1.0000
  H   H48       1.0  0.568988130428858  0.3082923672958528  0.6103372069278062  1.0000
  C   C73       1.0  0.346642978987125  0.4314388970537295  0.3985014626479711  1.0000
  C   C74       1.0  0.31160927167107266  0.4740139254055784  0.3885261446964599  1.0000
  C   C75       1.0  0.25773673306611616  0.46161618263954196  0.3890143785743956  1.0000
  C   C76       1.0  0.23876660460026736  0.40701676660496483  0.40004217992616153  1.0000
  C   C77       1.0  0.2740808421988291  0.36477281321331334  0.40991935594660933  1.0000
  C   C78       1.0  0.32782308057350945  0.3766697310880686  0.4088297355775619  1.0000
  H   H49       1.0  0.3260011644443365  0.5165963808204819  0.3804803747944341  1.0000
  H   H50       1.0  0.23081914784992974  0.49442365514687364  0.38086053794192154  1.0000
  H   H51       1.0  0.2603619375576536  0.32278959792389084  0.41821323321989184  1.0000
  H   H52       1.0  0.35456768759226764  0.3431590682736765  0.4157151809742911  1.0000
  C   C79       1.0  0.5874506088819292  0.05690187819977943  0.1210213998262013  1.0000
  C   C80       1.0  0.5512574879069507  0.021238075503576592  0.10460962960894449  1.0000
  C   C81       1.0  0.5536316007451587  0.015697382870134557  0.06825771746286136  1.0000
  C   C82       1.0  0.5920866643721077  0.04585250834535204  0.048289850775705245  1.0000
  C   C83       1.0  0.6294869491693641  0.07960379434934839  0.06489390149509822  1.0000
  C   C84       1.0  0.6270185438082441  0.08528722995082649  0.1011867756585656  1.0000
  H   H53       1.0  0.5211016158334901  0.9985405056586485  0.11984081726659634  1.0000
  H   H54       1.0  0.5252786068608805  0.9885160807850258  0.055576868461234774  1.0000
  H   H55       1.0  0.6591208397620313  0.10313884424636677  0.049638501328131746  1.0000
  H   H56       1.0  0.6551585709440166  0.11284509961705824  0.11382106954905313  1.0000
  C   C85       1.0  0.45717669723546395  0.12191899507716066  0.3999219137199988  1.0000
  C   C86       1.0  0.5103546898406833  0.1326065357736479  0.3932699452662982  1.0000
  C   C87       1.0  0.5376697396722842  0.09879497755715017  0.36936005876095834  1.0000
  C   C88       1.0  0.5113883510947914  0.055933736226077  0.3510002865735649  1.0000
  C   C89       1.0  0.4579110732305535  0.0458329626706937  0.3571615095530618  1.0000
  C   C90       1.0  0.4310879471690903  0.07793909050088543  0.3822644104957317  1.0000
  H   H57       1.0  0.5307349625630025  0.16639957155293938  0.40689405477495394  1.0000
  H   H58       1.0  0.5790381350401319  0.1065507740596201  0.36471629843094266  1.0000
  H   H59       1.0  0.43756332104702544  0.012450823207378336  0.3431849965889169  1.0000
  H   H60       1.0  0.3901440082605132  0.06905403988369407  0.3878442788804793  1.0000
  C   C91       1.0  0.4731771572313861  0.7772864201601278  0.23101218077443436  1.0000
  C   C92       1.0  0.46842015465080644  0.718518663363088  0.2236609037386195  1.0000
  C   C93       1.0  0.49752947530918257  0.6780215923317869  0.2420709490298782  1.0000
  C   C94       1.0  0.5314302926132789  0.6961239660893198  0.2679311772355352  1.0000
  C   C95       1.0  0.5359393595024299  0.754928833310563  0.275529711167441  1.0000
  C   C96       1.0  0.5065526486523193  0.7955258854147588  0.25719876441424666  1.0000
  H   H61       1.0  0.4426936279355522  0.7043005080658178  0.20342660463449372  1.0000
  H   H62       1.0  0.4940342032004511  0.6326405468629166  0.2360599179776205  1.0000
  H   H63       1.0  0.5626468904939599  0.7692836471732569  0.2950010019483314  1.0000
  H   H64       1.0  0.5100783210625879  0.840803633934481  0.26317316175801  1.0000
  C   C97       1.0  0.7885919112224772  0.5849513192075548  0.8334715798063839  1.0000
  C   C98       1.0  0.8066080471256744  0.6131353383981011  0.8031303175765971  1.0000
  C   C99       1.0  0.8583128177905318  0.6331358905875696  0.8000229117652199  1.0000
  C   C100      1.0  0.8925851432122947  0.6238546649178952  0.8271384853110337  1.0000
  C   C101      1.0  0.8754348203833465  0.5924414476586557  0.8568257085084354  1.0000
  C   C102      1.0  0.8232114612898109  0.5734613092887336  0.8601930282758538  1.0000
  H   H65       1.0  0.7805611603477343  0.6186616408445  0.7818924962122239  1.0000
  H   H66       1.0  0.8718025494072333  0.655430869027422  0.7764695589968937  1.0000
  H   H67       1.0  0.9019148500223568  0.5832942415139094  0.8774216599573503  1.0000
  H   H68       1.0  0.8095809833605979  0.5508596052921997  0.8836512825398465  1.0000
  C   C103      1.0  0.7852381549971236  0.6003010461893599  0.6808647304570883  1.0000
  C   C104      1.0  0.7899766802691816  0.552360061107167  0.6594021482260071  1.0000
  C   C105      1.0  0.8207507191654193  0.5056891232972122  0.6696817628366876  1.0000
  C   C106      1.0  0.8475720725945846  0.5076855879832743  0.701036176971699  1.0000
  C   C107      1.0  0.8443021565296429  0.556567026324943  0.721640393648494  1.0000
  C   C108      1.0  0.8132195419023236  0.6028192038985468  0.7115309529180353  1.0000
  H   H69       1.0  0.7686865661571052  0.5504926301206882  0.6354575389399972  1.0000
  H   H70       1.0  0.8234335033400133  0.46818768014044987  0.6533975329928865  1.0000
  H   H71       1.0  0.8645188782226837  0.5577207222149755  0.7459628528849088  1.0000
  H   H72       1.0  0.8103012699745281  0.6406247604894049  0.7274608145611645  1.0000
  C   C109      1.0  0.6242806430614978  0.8191252110932474  0.8275040097573212  1.0000
  C   C110      1.0  0.6279379719375116  0.8774851911992516  0.8364367488807944  1.0000
  C   C111      1.0  0.6608080111370968  0.8948627182787966  0.8633175181248303  1.0000
  C   C112      1.0  0.6893409967193904  0.853699446391146  0.8815831300685746  1.0000
  C   C113      1.0  0.683642694327018  0.7951303808733838  0.873631899634488  1.0000
  C   C114      1.0  0.6516831888758204  0.7779355316979947  0.8464399422748539  1.0000
  H   H73       1.0  0.6069116628396394  0.9095032273043177  0.821753448126398  1.0000
  H   H74       1.0  0.6654643337524424  0.9402080545239985  0.8689581264084429  1.0000
  H   H75       1.0  0.7046896961299807  0.7629310552433028  0.888126690950884  1.0000
  H   H76       1.0  0.6484290843416426  0.7326961274767377  0.840108941759233  1.0000
  C   C115      1.0  0.4735052459954557  0.5638144687708422  0.7122335789417086  1.0000
  C   C116      1.0  0.4818620265434534  0.6147616150921636  0.6927047472764839  1.0000
  C   C117      1.0  0.43956021247133503  0.6444639403238973  0.6792496411569998  1.0000
  C   C118      1.0  0.3888130249713001  0.6226160388682781  0.6846812111291649  1.0000
  C   C119      1.0  0.380414710249758  0.5703241462059268  0.7029303781780244  1.0000
  C   C120      1.0  0.422871305892446  0.5407857978415752  0.7166302564957076  1.0000
  H   H77       1.0  0.5207546760433119  0.6316442618055642  0.6880173924292952  1.0000
  H   H78       1.0  0.4460907081206144  0.6846549894688098  0.6648382022139631  1.0000
  H   H79       1.0  0.34111621967670963  0.5537830592330241  0.7076965327784119  1.0000
  H   H80       1.0  0.41623547742262745  0.5012814159390706  0.7317092988033601  1.0000
  C   C121      1.0  0.05604426056590306  0.07448803358516987  0.17138178814415375  1.0000
  C   C122      1.0  0.012236463006855436  0.03921496617651532  0.1790568441780511  1.0000
  C   C123      1.0  0.013369665306236289  0.9800544150501406  0.17182334766960292  1.0000
  C   C124      1.0  0.05856677502233021  0.9563089977602497  0.1573959366214145  1.0000
  C   C125      1.0  0.10270744102024132  0.9913444179279126  0.15057192578643236  1.0000
  C   C126      1.0  0.10155861178771564  0.050310016646672784  0.15783932808390674  1.0000
  H   H81       1.0  0.9769529171059192  0.05797289039362563  0.18949124889996177  1.0000
  H   H82       1.0  0.9789817195402212  0.9532410175500272  0.17677500059515922  1.0000
  H   H83       1.0  0.1378028935771871  0.9729871818426351  0.1395898417439398  1.0000
  H   H84       1.0  0.1360702651460799  0.07707338215206927  0.1531097445905842  1.0000
  C   C127      1.0  0.8996960055905654  0.06536448735998657  0.025550520835348367  1.0000
  C   C128      1.0  0.9309162914734403  0.0828870542009299  0.053063628978120114  1.0000
  C   C129      1.0  0.978596756731332  0.11214477751042007  0.04625481416319044  1.0000
  C   C130      1.0  0.995350924022152  0.1234243373194186  0.011882989293370283  1.0000
  C   C131      1.0  0.9647241026986604  0.1047715478036646  0.9843943136512636  1.0000
  C   C132      1.0  0.9166427340409534  0.07646867094538723  0.9912156904840745  1.0000
  H   H85       1.0  0.9180729792514039  0.07433917483976193  0.07970979193172223  1.0000
  H   H86       1.0  0.0023452209107688304  0.12588429814404956  0.06763474437046924  1.0000
  H   H87       1.0  0.9780398701224216  0.1126009400914243  0.9577877580007285  1.0000
  H   H88       1.0  0.89330606199934  0.0622706085420206  0.9698666614709482  1.0000
  C   C133      1.0  0.29139169087901307  0.15926332300167978  0.13113361052403819  1.0000
  C   C134      1.0  0.34302683536657846  0.14704317550981982  0.13943659546125087  1.0000
  C   C135      1.0  0.3541344323662139  0.11991839510382452  0.1712992205080568  1.0000
  C   C136      1.0  0.31365782717002905  0.10559410228837018  0.19510982454713682  1.0000
  C   C137      1.0  0.26213298388993056  0.11857586913602391  0.1870667441803091  1.0000
  C   C138      1.0  0.25099964665241525  0.1449643108630434  0.15502154999690199  1.0000
  H   H89       1.0  0.37446375617187133  0.15908808789923312  0.12146285094925213  1.0000
  H   H90       1.0  0.39411940386317496  0.11092072265115749  0.1776195834709844  1.0000
  H   H91       1.0  0.23063130122976863  0.10781641267365227  0.2052694338427844  1.0000
  H   H92       1.0  0.2110581144293475  0.1540650987490777  0.148797670757508  1.0000
  C   C139      1.0  0.06513833759602372  0.41271696195193275  0.04697618120443314  1.0000
  C   C140      1.0  0.045080646680818015  0.3663512603397993  0.028226650450116963  1.0000
  C   C141      1.0  0.018457371119767307  0.37642348705418166  0.9973556609987457  1.0000
  C   C142      1.0  0.0117123813623774  0.4329368187642675  0.9851407367496609  1.0000
  C   C143      1.0  0.03171366062311631  0.4792960113909975  0.003823437961137044  1.0000
  C   C144      1.0  0.05916797964359399  0.469207169044058  0.034374610068545364  1.0000
  H   H93       1.0  0.05032840153581941  0.3225591921090141  0.037233812642398334  1.0000
  H   H94       1.0  0.004352636343873728  0.340312422428478  0.9826690172412387  1.0000
  H   H95       1.0  0.025732692931282886  0.5230958630543994  0.9948907369781391  1.0000
  H   H96       1.0  0.07588411857243105  0.5052984433937939  0.04798160659219208  1.0000
  N   N1        1.0  0.004466293501927954  0.515845973381567  0.1490815611994363  1.0000
  C   C145      1.0  0.03409413126643446  0.46595706879919024  0.1620805400758345  1.0000
  C   C146      1.0  0.014089894852460594  0.5229058595761154  0.11123190175954299  1.0000
  C   C147      1.0  0.021677483389827  0.5689563820051238  0.16672072026220125  1.0000
  C   C148      1.0  0.9480463858005862  0.5056112357916026  0.1559862855932788  1.0000
  H   H97       1.0  0.02817872810320221  0.4591606134854367  0.19062931824565274  1.0000
  H   H98       1.0  0.07677384110488572  0.47197093219744846  0.15664437509338508  1.0000
  H   H99       1.0  0.022176697027074255  0.425305402503002  0.14900002540021343  1.0000
  H   H100      1.0  0.05627614888056809  0.5308359362412605  0.10511546370323449  1.0000
  H   H101      1.0  0.0016065810909358103  0.4836306730288188  0.09706225382190618  1.0000
  H   H102      1.0  0.9923815166463569  0.5599091719524396  0.1003215079082991  1.0000
  H   H103      1.0  0.06404963281485698  0.5780951538138329  0.16194584042319365  1.0000
  H   H104      1.0  0.014627144378324575  0.5655768062193443  0.195369918094554  1.0000
  H   H105      1.0  0.0002618754934062828  0.6073329615407211  0.15707948760735754  1.0000
  H   H106      1.0  0.9337548872616186  0.46606804164927335  0.1428257418182207  1.0000
  H   H107      1.0  0.9247340467981661  0.5424838781680238  0.1461896010795864  1.0000
  H   H108      1.0  0.939195127463554  0.5003289553499318  0.18434511518243776  1.0000
  N   N2        1.0  0.007941175738788164  0.9187659997308698  0.04438011778613382  1.0000
  C   C149      1.0  0.01487262604053763  0.9614344758104056  0.015501252573365099  1.0000
  C   C150      1.0  0.9746355513634675  0.8700148711162985  0.03305647865386807  1.0000
  C   C151      1.0  0.9828137540359321  0.9466771659072207  0.07457058346170897  1.0000
  C   C152      1.0  0.059435895340677496  0.8969259933139745  0.05439825042208124  1.0000
  H   H109      1.0  0.039048732065744884  0.9993963253487568  0.023318655865498306  1.0000
  H   H110      1.0  0.9766557346615132  0.9780827311095496  0.007013787812007566  1.0000
  H   H111      1.0  0.03431083477139363  0.9421049148740587  0.9924008255904326  1.0000
  H   H112      1.0  0.9674812700714586  0.8377599193619628  0.054560842112537866  1.0000
  H   H113      1.0  0.9358986311011575  0.8850811192860979  0.024411946637622695  1.0000
  H   H114      1.0  0.9931804323488196  0.8467086630019379  0.010980066427762836  1.0000
  H   H115      1.0  0.9787587293516882  0.9163052527526305  0.09726619177125362  1.0000
  H   H116      1.0  0.943138369413536  0.9620226832968909  0.06825185964446745  1.0000
  H   H117      1.0  0.006199314189326172  0.9846734522794345  0.08323944031865271  1.0000
  H   H118      1.0  0.08027354466347236  0.8771456612791589  0.031966571900632124  1.0000
  H   H119      1.0  0.0553695009432209  0.8630648450701821  0.07526576614501845  1.0000
  H   H120      1.0  0.0848168115846133  0.9320883110641165  0.06457401109246219  1.0000
  N   N3        1.0  0.12652016836768554  0.027457060477255935  0.27072180178593885  1.0000
  C   C153      1.0  0.12438093503589509  0.9846117659965893  0.24271079362517312  1.0000
  C   C154      1.0  0.09725878460292847  0.0045699679840687235  0.30173395144080783  1.0000
  C   C155      1.0  0.1030586701988323  0.0819659368328145  0.2586251878984192  1.0000
  C   C156      1.0  0.18150396458448137  0.038518790310975826  0.2798681840766426  1.0000
  H   H121      1.0  0.14101809437740775  0.9427936890932994  0.25119558651519647  1.0000
  H   H122      1.0  0.1466098499423345  0.000163190232146615  0.21906685452851332  1.0000
  H   H123      1.0  0.08345112238489194  0.9757027322534004  0.23481318232420134  1.0000
  H   H124      1.0  0.09828076841337707  0.03573674629605206  0.3235243101837635  1.0000
  H   H125      1.0  0.055551706745869955  0.9957478411051484  0.29580451524930595  1.0000
  H   H126      1.0  0.11395677614143085  0.9632658761184079  0.3114388214979731  1.0000
  H   H127      1.0  0.12426559718037455  0.10053859641980423  0.2352526076384893  1.0000
  H   H128      1.0  0.1035726235074208  0.11527133290528391  0.2791914780187083  1.0000
  H   H129      1.0  0.0616800294822939  0.07520356780079451  0.2510695200088228  1.0000
  H   H130      1.0  0.2049672963318927  0.055662130754708494  0.2571340938809674  1.0000
  H   H131      1.0  0.20031764863096746  0.9981901179649846  0.28907013175402674  1.0000
  H   H132      1.0  0.18430946865679565  0.07071398606843404  0.30099384948178914  1.0000
  N   N4        1.0  0.031138144876737387  0.5874688606117097  0.7268566310252587  1.0000
  C   C157      1.0  0.97453276794151  0.5811277854723121  0.7343667973104534  1.0000
  C   C158      1.0  0.04201871472213203  0.6436022522523923  0.7089298793884535  1.0000
  C   C159      1.0  0.047989744563706735  0.5400956756470878  0.7041770654090018  1.0000
  C   C160      1.0  0.05978707179561083  0.5849846892471129  0.759842918442057  1.0000
  H   H133      1.0  0.9647328490933895  0.5390335081602096  0.7476785950644232  1.0000
  H   H134      1.0  0.9517724402908128  0.5829950621760304  0.7100282141765194  1.0000
  H   H135      1.0  0.96031944626707  0.615923486152542  0.7515912692991564  1.0000
  H   H136      1.0  0.029190736273938082  0.6803334357423027  0.7251441191651828  1.0000
  H   H137      1.0  0.08444774463029603  0.6500107894913633  0.7029367994815883  1.0000
  H   H138      1.0  0.021594042216049207  0.6465966192222571  0.6836533481839129  1.0000
  H   H139      1.0  0.09026920941794445  0.5442244330443069  0.6973889152507134  1.0000
  H   H140      1.0  0.026469724948623867  0.5402108573295213  0.6793122242918813  1.0000
  H   H141      1.0  0.04146771087587031  0.497100199074404  0.7171812205797337  1.0000
  H   H142      1.0  0.051640953508329535  0.5436039942120072  0.7743138951391528  1.0000
  H   H143      1.0  0.04829793501620538  0.6205434469835346  0.7774617318537095  1.0000
  H   H144      1.0  0.10280042455728644  0.5884684548119952  0.755149149172168  1.0000
  N   N5        1.0  0.7827316131860609  0.3163772909445869  0.46543820996901497  1.0000
  C   C161      1.0  0.7258721277887293  0.30526937395863657  0.4694713557573455  1.0000
  C   C162      1.0  0.8098406680066762  0.26081848221154885  0.4620952433527197  1.0000
  C   C163      1.0  0.8019090743327352  0.3469579519928133  0.49624194232788693  1.0000
  C   C164      1.0  0.7933983481157413  0.3524491065134665  0.4338848882320447  1.0000
  H   H145      1.0  0.7038547985440858  0.34626325691552734  0.46968956522310173  1.0000
  H   H146      1.0  0.7160193332273239  0.28126321226595347  0.4942039224247764  1.0000
  H   H147      1.0  0.7105652259563994  0.2794586692522352  0.44760083651393  1.0000
  H   H148      1.0  0.8528665798150971  0.26758158535559506  0.45868582142397263  1.0000
  H   H149      1.0  0.8031014770505541  0.23268128957235648  0.48564087053050353  1.0000
  H   H150      1.0  0.7961575220064167  0.23644057948086075  0.4392085316577875  1.0000
  H   H151      1.0  0.795268472766581  0.3205721871754946  0.5205192588328911  1.0000
  H   H152      1.0  0.7816444323559109  0.38857786542260253  0.5000539146516472  1.0000
  H   H153      1.0  0.8445468822622892  0.35682937323234154  0.49387620377934843  1.0000
  H   H154      1.0  0.7740998599254671  0.39508137023407475  0.43570581208988723  1.0000
  H   H155      1.0  0.778675204097683  0.33097422451034336  0.41022976918789406  1.0000
  H   H156      1.0  0.836016250934877  0.36102944116913127  0.42977877459342334  1.0000
  N   N6        1.0  0.5470405711956635  0.4823048860345235  0.33001600406426884  1.0000
  C   C165      1.0  0.5390364956399694  0.42378523839226684  0.3453709880138234  1.0000
  C   C166      1.0  0.6033670654107237  0.497382791557491  0.32955416017888123  1.0000
  C   C167      1.0  0.5178982658418849  0.5242584438098437  0.3511591105010037  1.0000
  C   C168      1.0  0.5277000837383347  0.4835173444382188  0.29405449420861535  1.0000
  H   H157      1.0  0.49683703901203263  0.4113428990064752  0.3465316455582951  1.0000
  H   H158      1.0  0.5537935435205124  0.42140518165302965  0.37238777143416923  1.0000
  H   H159      1.0  0.5601554177875753  0.39066036384918873  0.3301556547003205  1.0000
  H   H160      1.0  0.611235050830359  0.5407703985096705  0.31741650822239015  1.0000
  H   H161      1.0  0.6188468639602693  0.49823344237105166  0.3563160521420039  1.0000
  H   H162      1.0  0.6266228358279329  0.46563918901888046  0.31467084479111673  1.0000
  H   H163      1.0  0.47507894504849646  0.5154224580999333  0.35079475907546337  1.0000
  H   H164      1.0  0.5242771494005728  0.5692240590220633  0.34115420988767947  1.0000
  H   H165      1.0  0.5297726908385727  0.5228928743729249  0.3788379593770833  1.0000
  H   H166      1.0  0.5490194294054441  0.4527155476299731  0.27727894210558884  1.0000
  H   H167      1.0  0.5328471677882036  0.5273601942626577  0.28187771875203965  1.0000
  H   H168      1.0  0.48532724746582295  0.4721362004263186  0.29348693137227144  1.0000
  N   N7        1.0  0.8295693888332489  0.8055204678897586  0.8243956264862432  1.0000
  C   C169      1.0  0.8683057361229533  0.842376358993466  0.8419514105993959  1.0000
  C   C170      1.0  0.8539990261121672  0.7798077088704795  0.7932806198634186  1.0000
  C   C171      1.0  0.785050843808891  0.8410068825115761  0.8137026211434066  1.0000
  C   C172      1.0  0.8110931738743453  0.7589291858552196  0.8487256426598111  1.0000
  H   H169      1.0  0.8508235634314045  0.8622521528560203  0.8656530109099891  1.0000
  H   H170      1.0  0.8830682084331177  0.8781960255900306  0.8245015873240937  1.0000
  H   H171      1.0  0.9023946796859406  0.8168369649742313  0.850389799888616  1.0000
  H   H172      1.0  0.8679413108085893  0.8136099139002815  0.7741622296875643  1.0000
  H   H173      1.0  0.8883195185681322  0.753539001231251  0.8003748267018806  1.0000
  H   H174      1.0  0.8257878238123045  0.7510961684468744  0.7798323315790228  1.0000
  H   H175      1.0  0.7968719765456619  0.8739061060712826  0.7934589762810114  1.0000
  H   H176      1.0  0.768540466960979  0.8649822975453512  0.8360289673791416  1.0000
  H   H177      1.0  0.7528566691737931  0.8140090890095065  0.8030866276821587  1.0000
  H   H178      1.0  0.7801624168399955  0.7313806124738998  0.8370803989807544  1.0000
  H   H179      1.0  0.7945767022975074  0.7769886368438018  0.8731735926916102  1.0000
  H   H180      1.0  0.8434347781305108  0.7299932719122996  0.8561912595151397  1.0000
  N   N8        1.0  0.059389578023306244  0.3332870967771805  0.6354852523645791  1.0000
  C   C173      1.0  0.021059150519171954  0.34871607012683015  0.6088037400392945  1.0000
  C   C174      1.0  0.08120130944611215  0.2760512872547918  0.6279047833894258  1.0000
  C   C175      1.0  0.033278504649757235  0.3314304709164242  0.6702156777103153  1.0000
  C   C176      1.0  0.10208437602161924  0.3770518850318667  0.635049794145049  1.0000
  H   H181      1.0  0.005056314184781696  0.3924693178182138  0.6130925149236429  1.0000
  H   H182      1.0  0.9873256139009235  0.31779963829208935  0.6093706152247027  1.0000
  H   H183      1.0  0.03869811093259967  0.3481274920023781  0.5820674433266898  1.0000
  H   H184      1.0  0.11166574930156759  0.2640920966303179  0.6467830706134511  1.0000
  H   H185      1.0  0.050352383970720505  0.24163598051944837  0.6296145026530202  1.0000
  H   H186      1.0  0.09922387773420405  0.27503840477558356  0.6012487423843557  1.0000
  H   H187      1.0  0.06131937701710277  0.32118703016757527  0.6910822545918434  1.0000
  H   H188      1.0  0.0013817513813925153  0.29795503997194006  0.6716171622330088  1.0000
  H   H189      1.0  0.015396277979766948  0.3736024435140348  0.6764870021938209  1.0000
  H   H190      1.0  0.1325009609986516  0.3660730402180382  0.6542417395100971  1.0000
  H   H191      1.0  0.08726621690278868  0.42032333772099983  0.6420087560315564  1.0000
  H   H192      1.0  0.12171072230337643  0.38084443654633465  0.6089392599217679  1.0000
  N   N9        1.0  0.3581406629499234  0.18633064349005868  0.5297609572682251  1.0000
  C   C177      1.0  0.4130132692442097  0.20685219512122044  0.5315507394784829  1.0000
  C   C178      1.0  0.33152498708345496  0.19459144354469615  0.5637872490443129  1.0000
  C   C179      1.0  0.35685621818147284  0.12433000243553427  0.5210748046186432  1.0000
  C   C180      1.0  0.3310509088679262  0.2195358399707378  0.5025877436887284  1.0000
  H   H193      1.0  0.4343697622867926  0.20089886695165252  0.5063434962831266  1.0000
  H   H194      1.0  0.4345942415298261  0.18289675535743435  0.5518864804510787  1.0000
  H   H195      1.0  0.4156096758881866  0.2535895682654664  0.5379691786834985  1.0000
  H   H196      1.0  0.3515396315232632  0.17134302363782974  0.5851275714439432  1.0000
  H   H197      1.0  0.33037825070240956  0.24120887386806758  0.5705305953231811  1.0000
  H   H198      1.0  0.29034724638092674  0.1783937777849485  0.5636046158242952  1.0000
  H   H199      1.0  0.3764772851324605  0.11681642410939384  0.4954036507712721  1.0000
  H   H200      1.0  0.31602464454610946  0.10747964864317107  0.5194681387777125  1.0000
  H   H201      1.0  0.3770692289646486  0.09782600317609402  0.5409174349451872  1.0000
  H   H202      1.0  0.2898618469753236  0.20440901770504755  0.500178070616433  1.0000
  H   H203      1.0  0.35024196659920476  0.2149052387369636  0.47659981795783307  1.0000
  H   H204      1.0  0.33038094110808325  0.26642558198344846  0.5085202946145446  1.0000
  N   N10       1.0  0.8682718922989945  0.7214960623246642  0.35778258003543767  1.0000
  C   C181      1.0  0.8313325880738258  0.7212804940389858  0.3878418640790258  1.0000
  C   C182      1.0  0.8396594475580834  0.7086198529642967  0.325749923734845  1.0000
  C   C183      1.0  0.9079447390886883  0.6769418487690608  0.3635128769143726  1.0000
  C   C184      1.0  0.8938633822541616  0.779114686785411  0.35409962897127034  1.0000
  H   H205      1.0  0.8515669784563479  0.7303936190905219  0.41252283607566476  1.0000
  H   H206      1.0  0.8107833370932891  0.678697953849689  0.39118265892989956  1.0000
  H   H207      1.0  0.8010647395352937  0.7546269908296582  0.3845027141923051  1.0000
  H   H208      1.0  0.866428684141497  0.7084190288480133  0.3025251624080767  1.0000
  H   H209      1.0  0.8196253384529745  0.6655109314716989  0.3276909093323434  1.0000
  H   H210      1.0  0.8095065965915734  0.7415249442980868  0.32058270637694813  1.0000
  H   H211      1.0  0.9361534060948977  0.6753271242561417  0.34114250882241154  1.0000
  H   H212      1.0  0.8894553699187873  0.6331333637702838  0.36668956766148225  1.0000
  H   H213      1.0  0.9307546656600965  0.6856106699096807  0.38723430516648694  1.0000
  H   H214      1.0  0.9214234614346214  0.78123235569059  0.33132092838621147  1.0000
  H   H215      1.0  0.9164267616000867  0.7900035719408702  0.3775758651114931  1.0000
  H   H216      1.0  0.8645612061524548  0.8134781631663734  0.3501458767963832  1.0000
  N   N11       1.0  0.2814055103278743  0.8526052683478782  0.21861493697619844  1.0000
  C   C185      1.0  0.3153416898594146  0.8311031691143729  0.24646771170957663  1.0000
  C   C186      1.0  0.3118831951376726  0.8589661673951363  0.18562057467805607  1.0000
  C   C187      1.0  0.2606515380016856  0.9094358189859593  0.2283246399664122  1.0000
  C   C188      1.0  0.2377972972811595  0.8108740533388717  0.21408610606461084  1.0000
  H   H217      1.0  0.293402138234522  0.8252914304546602  0.2716781531700197  1.0000
  H   H218      1.0  0.34854771799756956  0.8615057819766365  0.25079402753911845  1.0000
  H   H219      1.0  0.33250192594887396  0.7887181431480444  0.23975575422295517  1.0000
  H   H220      1.0  0.2871629981597912  0.8736895908847263  0.1638552216613446  1.0000
  H   H221      1.0  0.3445250731349154  0.8910290826925612  0.1879549603180182  1.0000
  H   H222      1.0  0.3298051567103282  0.8173766888988178  0.17804459784313892  1.0000
  H   H223      1.0  0.2348404398749464  0.9269397761137801  0.20790291376074907  1.0000
  H   H224      1.0  0.2927895641962659  0.9417938237068755  0.23191124395466234  1.0000
  H   H225      1.0  0.23771647896152714  0.906258669013972  0.25318902808317656  1.0000
  H   H226      1.0  0.20977511731760767  0.8266212557968289  0.19446134700600468  1.0000
  H   H227      1.0  0.21566694596200908  0.8028311504900614  0.23900609255212638  1.0000
  H   H228      1.0  0.25226378358844137  0.7682907459587914  0.20539325326936686  1.0000
  N   N12       1.0  0.7682958955230678  0.40391070046641714  0.7979031714741321  1.0000
  C   C189      1.0  0.7611914752189709  0.4556298544929399  0.7755454720947468  1.0000
  C   C190      1.0  0.8201705818110211  0.37960766527153694  0.7904453854322809  1.0000
  C   C191      1.0  0.7271244047016804  0.3603289049144613  0.7907964228074971  1.0000
  C   C192      1.0  0.7647132411739664  0.4202902269138704  0.8348693259051606  1.0000
  H   H229      1.0  0.7916618052591604  0.48937448869405503  0.7801984840322779  1.0000
  H   H230      1.0  0.7227489366684704  0.4754872308690923  0.7809117562816698  1.0000
  H   H231      1.0  0.763620192593085  0.44507626365820097  0.7474200644662271  1.0000
  H   H232      1.0  0.8276397636435892  0.3415331334680508  0.807537824838604  1.0000
  H   H233      1.0  0.8235699177546139  0.3654577268073163  0.7629833778063068  1.0000
  H   H234      1.0  0.8519583986800618  0.4122377155696951  0.7942577435742242  1.0000
  H   H235      1.0  0.7301471471243134  0.32147686815763277  0.8080689711952092  1.0000
  H   H236      1.0  0.7297387793689333  0.34517449571892006  0.7634702538498606  1.0000
  H   H237      1.0  0.6874210149795279  0.3780104408875056  0.7949871513438028  1.0000
  H   H238      1.0  0.7701287663232448  0.38240491085325734  0.8525535925221772  1.0000
  H   H239      1.0  0.7259692111635003  0.43888558852595827  0.8413562890112797  1.0000
  H   H240      1.0  0.7947691756419202  0.4537371517594662  0.84100572814457  1.0000
  N   N13       1.0  0.4696925647270137  0.8654294039291381  0.3947786403237722  1.0000
  C   C193      1.0  0.42543056417174935  0.9026075685063144  0.40421495061157353  1.0000
  C   C194      1.0  0.4496501654911259  0.811099103602318  0.37990373177736453  1.0000
  C   C195      1.0  0.4998250926117098  0.8522115063247234  0.4262095787844721  1.0000
  C   C196      1.0  0.5040527719539069  0.8958805057200885  0.3688241386464221  1.0000
  H   H241      1.0  0.4390952790024319  0.9444130196447036  0.4150858216261015  1.0000
  H   H242      1.0  0.39918816842765226  0.8811830516357436  0.42422950993414593  1.0000
  H   H243      1.0  0.40128326619137017  0.9128860491889474  0.3812761894659572  1.0000
  H   H244      1.0  0.48197420658883744  0.7814605678118125  0.37320380038717677  1.0000
  H   H245      1.0  0.4228507339594592  0.7874911798564831  0.398617954443837  1.0000
  H   H246      1.0  0.4276427150057276  0.8193418192770267  0.3557189114002482  1.0000
  H   H247      1.0  0.5152892099042737  0.8922460614893308  0.43823871753538807  1.0000
  H   H248      1.0  0.5338304313576824  0.8246298701978473  0.4200129421295993  1.0000
  H   H249      1.0  0.4754484147042001  0.828600367244013  0.44632458510440887  1.0000
  H   H250      1.0  0.5374610220764817  0.8688234932710647  0.3606509085196118  1.0000
  H   H251      1.0  0.5208063672599751  0.9364328569794719  0.3795071637017749  1.0000
  H   H252      1.0  0.48261541942106273  0.9077866994329007  0.3449371290235104  1.0000
  N   N14       1.0  0.6202873978242393  0.5034354145540171  0.6406590981718596  1.0000
  C   C197      1.0  0.6449348234467605  0.5054176521616648  0.6055312859362733  1.0000
  C   C198      1.0  0.5681760140174015  0.475132624709448  0.6392653667693546  1.0000
  C   C199      1.0  0.6147658048060537  0.5629885985118528  0.6532405560027833  1.0000
  C   C200      1.0  0.6533456971622097  0.47034701978917803  0.664655650713094  1.0000
  H   H253      1.0  0.6847650222362842  0.525499714546033  0.605892869032891  1.0000
  H   H254      1.0  0.6215030368457073  0.5307594728490775  0.5868418245168494  1.0000
  H   H255      1.0  0.6491067481374986  0.46137118787186143  0.5950272970601188  1.0000
  H   H256      1.0  0.5709257249989926  0.42992608850968533  0.6300326436761277  1.0000
  H   H257      1.0  0.5484861074089027  0.4734220911618817  0.6654485579416367  1.0000
  H   H258      1.0  0.5421219850240789  0.4987601126441549  0.621383225074555  1.0000
  H   H259      1.0  0.5977727351862505  0.5631452041853222  0.6800400079327252  1.0000
  H   H260      1.0  0.5889808630441137  0.5889052355144268  0.6363463086603914  1.0000
  H   H261      1.0  0.6532054045072929  0.5859684646937104  0.6538723548386033  1.0000
  H   H262      1.0  0.6924462582829922  0.4914202361822058  0.6672055538124658  1.0000
  H   H263      1.0  0.6597102594499262  0.4256785890183376  0.655281152426946  1.0000
  H   H264      1.0  0.635130664983611  0.46684959801345755  0.6912257365263951  1.0000
  N   N15       1.0  0.43984801142331825  0.13145529664125322  0.03749708559746301  1.0000
  C   C201      1.0  0.38510766578428995  0.14916235137102318  0.04260309684392238  1.0000
  C   C202      1.0  0.4668555568930142  0.1335259652972396  0.07110034360292161  1.0000
  C   C203      1.0  0.4668490320498467  0.1710921214889105  0.012132806475723568  1.0000
  C   C204      1.0  0.440657321967337  0.07198679084289661  0.024079557272658203  1.0000
  H   H265      1.0  0.3634975877804667  0.14905232852571926  0.017803000601621877  1.0000
  H   H266      1.0  0.38261593768059526  0.19350249503646322  0.05328898002373639  1.0000
  H   H267      1.0  0.36342180656511686  0.1195551749772279  0.061223002877909494  1.0000
  H   H268      1.0  0.46454672059507895  0.17707138856568627  0.08282617890919486  1.0000
  H   H269      1.0  0.44961889777567854  0.1017023246360611  0.0903761921215811  1.0000
  H   H270      1.0  0.5090101163004995  0.12374115445740763  0.06782898811563176  1.0000
  H   H271      1.0  0.44757347043363377  0.17072550519355012  0.9864543252092052  1.0000
  H   H272      1.0  0.5082340613950947  0.1583225964628776  0.007574635193069668  1.0000
  H   H273      1.0  0.46730660941293806  0.2163682093860093  0.021450899738292284  1.0000
  H   H274      1.0  0.4812454791238086  0.0581947597866137  0.018356185191740204  1.0000
  H   H275      1.0  0.41901853728088784  0.06852054488573978  0.9993812954559339  1.0000
  H   H276      1.0  0.42281220106096995  0.040291788264676054  0.04316419685901751  1.0000
  N   N16       1.0  0.7459940356851238  0.916991841911093  0.0955039133615041  1.0000
  C   C205      1.0  0.7158579226163546  0.8763634909023484  0.11866580722044939  1.0000
  C   C206      1.0  0.7631476785187221  0.88668011190469  0.0638145962369252  1.0000
  C   C207      1.0  0.7922600133058482  0.9387992598861474  0.1138704509287054  1.0000
  C   C208      1.0  0.7128585932269528  0.9660833338306078  0.08572884360315092  1.0000
  H   H277      1.0  0.7026964058100059  0.8976516590669793  0.14300784412598477  1.0000
  H   H278      1.0  0.7399047877027823  0.8389636788261362  0.12671994848458246  1.0000
  H   H279      1.0  0.6805947626841198  0.8590191895091941  0.1056966699187718  1.0000
  H   H280      1.0  0.7876698679558235  0.8489239533688675  0.07030793393646961  1.0000
  H   H281      1.0  0.7292435785531212  0.8705016863595982  0.04889852595186572  1.0000
  H   H282      1.0  0.7867699450320587  0.9158847713872094  0.0460408601235871  1.0000
  H   H283      1.0  0.8152813210198876  0.9706715418752258  0.09760692703036744  1.0000
  H   H284      1.0  0.8187723363081215  0.9030532980517519  0.12085835509310927  1.0000
  H   H285      1.0  0.7809214859856659  0.9604758867736243  0.13844621136037727  1.0000
  H   H286      1.0  0.6988796650782226  0.989588626274192  0.10905957411956635  1.0000
  H   H287      1.0  0.6777800611535182  0.9514849566080344  0.07141265381091255  1.0000
  H   H288      1.0  0.7346339664884052  0.9979125475003959  0.06852746136417753  1.0000
  N   N17       1.0  0.4110510245150387  0.5244985239385475  0.49589702338784347  1.0000
  C   C209      1.0  0.444215494047785  0.5056098757311784  0.5248249680455527  1.0000
  C   C210      1.0  0.44435136517758617  0.5431519068675895  0.46574399498810787  1.0000
  C   C211      1.0  0.37872746726070977  0.5733212127323627  0.5071378095673797  1.0000
  C   C212      1.0  0.37677667168239337  0.4758954259052183  0.4857381495685675  1.0000
  H   H289      1.0  0.4200643781364374  0.49198747266732973  0.5481280561686994  1.0000
  H   H290      1.0  0.47116278721176824  0.5410074132164229  0.5327894208374072  1.0000
  H   H291      1.0  0.4683771784529287  0.46800219551337857  0.5174031726261755  1.0000
  H   H292      1.0  0.47031207175209655  0.5080475847377008  0.4570395164077932  1.0000
  H   H293      1.0  0.4202282229260285  0.5551647977149329  0.4430560718301727  1.0000
  H   H294      1.0  0.4695073836912901  0.5811702909413676  0.47192474573681925  1.0000
  H   H295      1.0  0.3530463138157979  0.5609138694535841  0.5298995570961406  1.0000
  H   H296      1.0  0.3532034637568907  0.5883448218506656  0.4858270992199156  1.0000
  H   H297      1.0  0.403347266836798  0.6109474263496091  0.5147886402981336  1.0000
  H   H298      1.0  0.3493358939282702  0.4893283550460326  0.4651573388384065  1.0000
  H   H299      1.0  0.35322107852937956  0.4583990453959695  0.5082509472955596  1.0000
  H   H300      1.0  0.3998200664827755  0.4396941906983421  0.47528320042453737  1.0000
  N   N18       1.0  0.17104731252863276  0.4072687560602263  0.9366675308259169  1.0000
  C   C213      1.0  0.16155653074569962  0.35321805435261344  0.9571252787573745  1.0000
  C   C214      1.0  0.17986212490537476  0.4555679829352073  0.9606574803157945  1.0000
  C   C215      1.0  0.12515774144291905  0.4192615774595229  0.915247193159294  1.0000
  C   C216      1.0  0.21747723660781454  0.4013260837573795  0.9135810661115766  1.0000
  H   H301      1.0  0.15418503085808213  0.31579223863295425  0.9399883513739408  1.0000
  H   H302      1.0  0.12688747762675592  0.3567971919181792  0.9749110012857913  1.0000
  H   H303      1.0  0.19538130894800942  0.3426971906851497  0.9736415223841867  1.0000
  H   H304      1.0  0.144994470399662  0.46225709988673314  0.9778841830162336  1.0000
  H   H305      1.0  0.213476642519197  0.4474436306749197  0.9778101760532412  1.0000
  H   H306      1.0  0.18826918263120554  0.49686770743447345  0.9460505220884671  1.0000
  H   H307      1.0  0.1309721460599914  0.45978026328715865  0.8995200382700754  1.0000
  H   H308      1.0  0.0894971592026721  0.424542077508131  0.9317313976227375  1.0000
  H   H309      1.0  0.11711045747346693  0.38377833226234326  0.8968541012972431  1.0000
  H   H310      1.0  0.22509978936072939  0.44152889823543673  0.8976322175905257  1.0000
  H   H311      1.0  0.21219593048375118  0.36529887493467955  0.8950931896796515  1.0000
  H   H312      1.0  0.2531031910159788  0.3928379287675267  0.9287603878815403  1.0000
  N   N19       1.0  0.4234270561104503  0.7188956462344297  0.7818625752549864  1.0000
  C   C217      1.0  0.38876351128094544  0.7055845144133831  0.812314309665601  1.0000
  C   C218      1.0  0.46021038805733105  0.6711322548928795  0.7769492338224213  1.0000
  C   C219      1.0  0.45319436637899285  0.7730514419236992  0.7877453960904698  1.0000
  C   C220      1.0  0.3916384115028888  0.7256825926472782  0.7504599115062037  1.0000
  H   H313      1.0  0.3602585324254554  0.7405837201595374  0.8167050807874803  1.0000
  H   H314      1.0  0.41152046172906276  0.7003786632454589  0.8365032420659876  1.0000
  H   H315      1.0  0.36603331223573515  0.6646745054635774  0.808698359135839  1.0000
  H   H316      1.0  0.4393506684835897  0.6296847326078973  0.7716263538844523  1.0000
  H   H317      1.0  0.4878339044653237  0.6803244572191011  0.7546996138310744  1.0000
  H   H318      1.0  0.4840722321963232  0.6641253610984567  0.8004401784998829  1.0000
  H   H319      1.0  0.4799461278366171  0.7841842368986806  0.7652527740542863  1.0000
  H   H320      1.0  0.47808781896761826  0.7693195630787583  0.8110829829308742  1.0000
  H   H321      1.0  0.42697940514566946  0.8102555315999997  0.7916505449452128  1.0000
  H   H322      1.0  0.41652443989987875  0.7347799124008484  0.7268138270821142  1.0000
  H   H323      1.0  0.3638092594297126  0.7617710900384578  0.7529575605258337  1.0000
  H   H324      1.0  0.36820638085257085  0.6857787719533661  0.7454586857677344  1.0000
  N   N20       1.0  0.8920497724898209  0.2571543715382807  0.9553353555991648  1.0000
  C   C221      1.0  0.9043973326922863  0.2109108535170663  0.9305758835602873  1.0000
  C   C222      1.0  0.8349393610282111  0.2586476732439267  0.9614946131805422  1.0000
  C   C223      1.0  0.910634893594473  0.31342535852928455  0.9405260742975206  1.0000
  C   C224      1.0  0.9181030560026487  0.24560536733619553  0.9886557173626287  1.0000
  H   H325      1.0  0.9472803050147378  0.20643779753482772  0.9266509637835303  1.0000
  H   H326      1.0  0.8873471496816933  0.2196604699608251  0.904645226564683  1.0000
  H   H327      1.0  0.888106762788047  0.16830645892886054  0.9398974293646718  1.0000
  H   H328      1.0  0.819371170931194  0.21636528462891502  0.9719272020080122  1.0000
  H   H329      1.0  0.8241690481863804  0.2925916541074087  0.9803534627867612  1.0000
  H   H330      1.0  0.8140851596935867  0.267596960325895  0.9368948458503698  1.0000
  H   H331      1.0  0.953276181247176  0.31334804082821344  0.9344093148458893  1.0000
  H   H332      1.0  0.9035356299066871  0.3493313922793104  0.9588928805958717  1.0000
  H   H333      1.0  0.8905902275050022  0.32436231134736104  0.9159338555780141  1.0000
  H   H334      1.0  0.9611306454932319  0.24171636816089248  0.9848453199243105  1.0000
  H   H335      1.0  0.9034175672626297  0.20449114798198376  0.0011437194353995928  1.0000
  H   H336      1.0  0.9114354878081499  0.28080158842429404  0.00752544131034627  1.0000
  N   N21       1.0  0.17389240274657664  0.562892023820086  0.4700199900751355  1.0000
  C   C225      1.0  0.15465598125608393  0.6145504436036292  0.45155292365329147  1.0000
  C   C226      1.0  0.14778757460339464  0.5106042976879046  0.45659161243561136  1.0000
  C   C227      1.0  0.1622426146910526  0.567473027637819  0.5077254541221686  1.0000
  C   C228      1.0  0.23092089439812438  0.5589823908965889  0.46405799825056965  1.0000
  H   H337      1.0  0.17431722685092985  0.6546570979087909  0.4605657184721992  1.0000
  H   H338      1.0  0.11190188875980822  0.6198212199806822  0.4559196705282498  1.0000
  H   H339      1.0  0.1619620302848246  0.6119527750114612  0.42297010814895303  1.0000
  H   H340      1.0  0.1048431883549059  0.5111624434867063  0.4614103319326646  1.0000
  H   H341      1.0  0.1545907725593031  0.5067414323720427  0.42801395492635347  1.0000
  H   H342      1.0  0.1627474322014864  0.47042886514678534  0.4689779391988815  1.0000
  H   H343      1.0  0.1728193021251693  0.5273994239408  0.5221178383614717  1.0000
  H   H344      1.0  0.1199984647951271  0.5748085494121216  0.513022478823533  1.0000
  H   H345      1.0  0.18439113090240625  0.6039754957831832  0.5192618841582615  1.0000
  H   H346      1.0  0.24664479414325427  0.5198858584383816  0.47707649822575526  1.0000
  H   H347      1.0  0.2520086837595956  0.5974282707435289  0.47417618533002076  1.0000
  H   H348      1.0  0.24111584599780356  0.5566117680007331  0.4358001961620733  1.0000
  N   N22       1.0  0.6826183933022466  0.018297353305273045  0.2556236737374727  1.0000
  C   C229      1.0  0.6856050735265643  0.9923833025136838  0.22073734860234048  1.0000
  C   C230      1.0  0.734668879828081  0.04136894684233794  0.2646561198344525  1.0000
  C   C231      1.0  0.6658020414252667  0.9737637394035146  0.2817562070422469  1.0000
  C   C232      1.0  0.6446399956127157  0.06565005077032171  0.2554441994963521  1.0000
  H   H349      1.0  0.6471417223376529  0.9742491596930744  0.2130847553295172  1.0000
  H   H350      1.0  0.7140695250750837  0.9566205677791697  0.21988859584063505  1.0000
  H   H351      1.0  0.6975427658957564  0.02507726419595646  0.2003636686203065  1.0000
  H   H352      1.0  0.7339053067922918  0.0608665423105319  0.29094751123380425  1.0000
  H   H353      1.0  0.7641586678351735  0.0065391659865139395  0.26494123147062637  1.0000
  H   H354      1.0  0.748649546385631  0.07524903666985017  0.24557483740158503  1.0000
  H   H355      1.0  0.6270919053016021  0.9544765942013416  0.2756942876346357  1.0000
  H   H356      1.0  0.6622711596426197  0.9919919860793973  0.30832391470035003  1.0000
  H   H357      1.0  0.6939412939056873  0.9379960281060922  0.28302674499661756  1.0000
  H   H358      1.0  0.6409730642558058  0.08586843346206674  0.28145402021624966  1.0000
  H   H359      1.0  0.6050010509839951  0.049626588369575675  0.24876942530533855  1.0000
  H   H360      1.0  0.6557473794721644  0.09996058380582973  0.23585759867912687  1.0000
  N   N23       1.0  0.11688309615575342  0.958990199548895  0.4917518792088205  1.0000
  C   C233      1.0  0.11706191167099521  0.9785777290915587  0.4549055897761781  1.0000
  C   C234      1.0  0.11190574636552042  0.8952073956334083  0.49378203229203194  1.0000
  C   C235      1.0  0.07233763508809886  0.9847628558610617  0.5105913420178314  1.0000
  C   C236      1.0  0.16628783057067886  0.9775088046229423  0.507728807981907  1.0000
  H   H361      1.0  0.08167251353271965  0.9628768920980963  0.4413961870037385  1.0000
  H   H362      1.0  0.15173951850239958  0.9626760401916561  0.4403505650522659  1.0000
  H   H363      1.0  0.11834161157905254  0.02661605042283477  0.45246653154824973  1.0000
  H   H364      1.0  0.11050158763101114  0.8788407545395456  0.5212202647052029  1.0000
  H   H365      1.0  0.07577472598517641  0.8792204757125935  0.4811788944231962  1.0000
  H   H366      1.0  0.14544232455104747  0.8741746841473863  0.4805768091669312  1.0000
  H   H367      1.0  0.07081767307662235  0.9708526999095045  0.5384952316359018  1.0000
  H   H368      1.0  0.03447483216503855  0.9717571700238216  0.4990586597997793  1.0000
  H   H369      1.0  0.07489903742391135  0.03290957875840772  0.5097209929128578  1.0000
  H   H370      1.0  0.16733482980380945  0.9640675821407629  0.5356582875236285  1.0000
  H   H371      1.0  0.17176785503656605  0.02535614814144127  0.5061432465452009  1.0000
  H   H372      1.0  0.2006427241105872  0.9580665030586029  0.49434807042595413  1.0000
  N   N24       1.0  0.31287025003882696  0.17677365409666002  0.3291592953006033  1.0000
  C   C237      1.0  0.3534325957554807  0.20268051351961947  0.3511370947909376  1.0000
  C   C238      1.0  0.31429461927913876  0.11307605326474368  0.33248383431117084  1.0000
  C   C239      1.0  0.3227524312131  0.1942854076615863  0.29237758424592397  1.0000
  C   C240      1.0  0.26102364421360247  0.19697673433813678  0.34077134666116493  1.0000
  H   H373      1.0  0.39312723503295705  0.18754189005207245  0.3437684893617581  1.0000
  H   H374      1.0  0.34649197373127966  0.19087177599787686  0.3790904389048012  1.0000
  H   H375      1.0  0.3540124406759625  0.250741670642721  0.3490742975858664  1.0000
  H   H376      1.0  0.28421105113845385  0.09207573512988843  0.3162483930143237  1.0000
  H   H377      1.0  0.3528743531977695  0.09639805179781247  0.323806317038986  1.0000
  H   H378      1.0  0.3071186222986705  0.09833224872915314  0.3599497351262661  1.0000
  H   H379      1.0  0.3613004264678666  0.17893496795169828  0.28266789797758474  1.0000
  H   H380      1.0  0.3224204675971666  0.24211541844627038  0.28884547211974054  1.0000
  H   H381      1.0  0.2926971907583796  0.1756179303404244  0.27508027364500365  1.0000
  H   H382      1.0  0.2585599645475421  0.24494738896619883  0.33892260554173936  1.0000
  H   H383      1.0  0.25232320899648464  0.18407276614713441  0.3683790462171461  1.0000
  H   H384      1.0  0.2292216297132447  0.1783122955736225  0.3249293773693476  1.0000
