data_image0
_chemical_formula_structural       FeS2FeS2FeSFeS3FeS2FeS2FeSFeS3FeS2FeS2FeSFeS3FeS2FeS2FeSFeS3FeS2FeS2FeSFeS3FeS2FeS2FeSFeS3FeS2FeS2FeSFeS3FeS2FeS2FeSFeS3FeS2FeS2FeSFeS3FeS2FeS2FeSFeS3FeS2FeS2FeSFeS3FeS2FeS2FeSFeS3FeS2FeS2FeSFeS3FeS2FeS2FeSFeS3FeS2FeS2FeSFeS3FeS2FeS2FeSFeS3C6H4C6H4C6H4C6H4C6H4C6H4C6H4C6H4C6H4C6H4C6H4C6H4C6H4C6H4C6H4C6H4C6H4C6H4C6H4C6H4C6H4C6H4C6H4C6H4C6H4C6H4C6H4C6H4C6H4C6H4C6H4C6H4NC4H12NC4H12NC4H12NC4H12NC4H12NC4H12NC4H12NC4H12NC4H12NC4H12NC4H12NC4H12NC4H12NC4H12NC4H12NC4H12NC4H12NC4H12NC4H12NC4H12NC4H12NC4H12NC4H12NC4H12NC4H12NC4H12NC4H12NC4H12NC4H12NC4H12NC4H12NC4H12
_chemical_formula_sum              "Fe64 S128 C320 H512 N32"
_cell_length_a       44.46101415525344
_cell_length_b       59.24518424685897
_cell_length_c       29.55987269328569
_cell_angle_alpha    90.102326791097
_cell_angle_beta     108.84994278781168
_cell_angle_gamma    89.74000184541055

_space_group_name_H-M_alt    "P 1"
_space_group_IT_number       1

loop_
  _space_group_symop_operation_xyz
  'x, y, z'

loop_
  _atom_site_type_symbol
  _atom_site_label
  _atom_site_symmetry_multiplicity
  _atom_site_fract_x
  _atom_site_fract_y
  _atom_site_fract_z
  _atom_site_occupancy
  Fe  Fe1       1.0  0.07837047132757906  0.6915431112728841  0.8374245537432335  1.0000
  S   S1        1.0  0.09371528350117644  0.7183103594102046  0.7964358068324462  1.0000
  S   S2        1.0  0.028890925559066735  0.6763681165053129  0.8098279117899  1.0000
  Fe  Fe2       1.0  0.1440946237170092  0.6893329927643698  0.9158266619314012  1.0000
  S   S3        1.0  0.16306180634343492  0.7163976267589621  0.8788736736431997  1.0000
  S   S4        1.0  0.181968478758064  0.6805749902823107  0.9867064166882279  1.0000
  Fe  Fe3       1.0  0.1162914631627351  0.7338996164026591  0.8689170041625847  1.0000
  S   S5        1.0  0.11330881808388626  0.7713649511860524  0.8835893258998424  1.0000
  Fe  Fe4       1.0  0.13891094653500816  0.6978497655644419  0.810731955148546  1.0000
  S   S6        1.0  0.15660483986790602  0.6869831299419156  0.7492485008846271  1.0000
  S   S7        1.0  0.09863730573509936  0.7080270746324716  0.9093004749373967  1.0000
  S   S8        1.0  0.12211342651776455  0.6698058860361418  0.8477728441830926  1.0000
  Fe  Fe5       1.0  0.14175098084509524  0.24394546893316482  0.8594421459465051  1.0000
  S   S9        1.0  0.169843465197348  0.21202043625418132  0.865909061002371  1.0000
  S   S10       1.0  0.17168771136721847  0.27334286966922944  0.8988751509615218  1.0000
  Fe  Fe6       1.0  0.08597349903795867  0.22376589554018247  0.7789528235117615  1.0000
  S   S11       1.0  0.11158710418124639  0.19095920902179805  0.7790964701126442  1.0000
  S   S12       1.0  0.03686889622551152  0.2286110353293519  0.7243341726174736  1.0000
  Fe  Fe7       1.0  0.12428440454562223  0.19401774075404754  0.8586524500268874  1.0000
  S   S13       1.0  0.12585633552377481  0.16272765625264837  0.9030409202906408  1.0000
  Fe  Fe8       1.0  0.15473982825968494  0.21224320408123185  0.7858564999999471  1.0000
  S   S14       1.0  0.19540860100528734  0.2039586941984029  0.7573831201853485  1.0000
  S   S15       1.0  0.09682970195776626  0.22597962321336712  0.858865755931552  1.0000
  S   S16       1.0  0.12824225700777725  0.24494680573977265  0.7790964836121037  1.0000
  Fe  Fe9       1.0  0.2512152252292841  0.5836696939010161  0.17050831701900446  1.0000
  S   S17       1.0  0.28346956461126943  0.608636033687122  0.22040483121231655  1.0000
  S   S18       1.0  0.20241008020018447  0.5929761213881093  0.11928228604492014  1.0000
  Fe  Fe10      1.0  0.2998400646901784  0.5448786064155832  0.19809777090516867  1.0000
  S   S19       1.0  0.3358456290440238  0.5674126284245188  0.24888354070151136  1.0000
  S   S20       1.0  0.3203575394326391  0.510123023447507  0.1901477185752726  1.0000
  Fe  Fe11      1.0  0.2961097507485036  0.5801979057233093  0.2737614565238302  1.0000
  S   S21       1.0  0.3103491995159487  0.5813543934215384  0.35546034089496326  1.0000
  Fe  Fe12      1.0  0.32053920367113387  0.5938473629988602  0.19229482737891462  1.0000
  S   S22       1.0  0.3536022879610378  0.6167980100457959  0.1703187486887934  1.0000
  S   S23       1.0  0.26063969954384303  0.5558423206718539  0.2262775226840428  1.0000
  S   S24       1.0  0.2877185134215299  0.5707508804083474  0.13912802797169074  1.0000
  Fe  Fe13      1.0  0.31537463480049427  0.6670806446487986  0.6845077575055813  1.0000
  S   S25       1.0  0.2877572303732127  0.6432878303846006  0.6271700319053586  1.0000
  S   S26       1.0  0.2974561436013314  0.6877743458515168  0.7359238098574747  1.0000
  Fe  Fe14      1.0  0.3798234431189275  0.6494311614077813  0.6799483519901349  1.0000
  S   S27       1.0  0.356826937754748  0.6236564895606685  0.6231906626450304  1.0000
  S   S28       1.0  0.4330772630087925  0.6473823599142945  0.7183419940491056  1.0000
  Fe  Fe15      1.0  0.322822278682564  0.6514840463548379  0.5887807132396182  1.0000
  S   S29       1.0  0.30436291485093275  0.6562906058846323  0.5076525555526012  1.0000
  Fe  Fe16      1.0  0.3239237890036688  0.6174484765094098  0.6652671585804054  1.0000
  S   S30       1.0  0.30551646876844585  0.5835480219157916  0.6772941396284597  1.0000
  S   S31       1.0  0.3478643207172175  0.6780876744997302  0.6432993861854256  1.0000
  S   S32       1.0  0.3493999523295637  0.6404846822152716  0.7248213198216507  1.0000
  Fe  Fe17      1.0  0.4670395543562148  0.59644086698178  0.9516572943355028  1.0000
  S   S33       1.0  0.45694288819556883  0.5676672326753915  0.8994844989556907  1.0000
  S   S34       1.0  0.47595834950592236  0.6304065130126868  0.9231570466307756  1.0000
  Fe  Fe18      1.0  0.45687669445471984  0.5674013509778909  0.030183470390409962  1.0000
  S   S35       1.0  0.44697350352869275  0.5361427945297789  0.9846946569493858  1.0000
  S   S36       1.0  0.45551883548462724  0.5626310002937228  0.10530700697476036  1.0000
  Fe  Fe19      1.0  0.48740017397388075  0.5471410036599216  0.960952540816238  1.0000
  S   S37       1.0  0.52342144110171  0.5252452796238861  0.9430685477363787  1.0000
  Fe  Fe20      1.0  0.4172910279000315  0.5590746317756766  0.92744700883118  1.0000
  S   S38       1.0  0.36982191811252046  0.5447652623059801  0.8851258800274644  1.0000
  S   S39       1.0  0.5006756277407343  0.5765475449536288  0.011597092697215816  1.0000
  S   S40       1.0  0.42398674486695537  0.5896661876129434  0.9741573916084673  1.0000
  Fe  Fe21      1.0  0.24584436826959952  0.3296765783435562  0.14976224988048942  1.0000
  S   S41       1.0  0.29131237229963525  0.31605108994095255  0.2012401405256067  1.0000
  S   S42       1.0  0.20512234327330175  0.3055285428069437  0.11533072849885767  1.0000
  Fe  Fe22      1.0  0.26926864491568897  0.3788960866519354  0.1668741615809322  1.0000
  S   S43       1.0  0.31686486936326375  0.36857098559386264  0.21762599032234292  1.0000
  S   S44       1.0  0.2499233649296419  0.4148672115312978  0.15287498569084762  1.0000
  Fe  Fe23      1.0  0.3146111269327905  0.34059489560661155  0.1652846836066205  1.0000
  S   S45       1.0  0.35494777774277536  0.32517043540968793  0.1452053620598675  1.0000
  Fe  Fe24      1.0  0.28955963628444914  0.3449248122624496  0.24942718536330327  1.0000
  S   S46       1.0  0.3027171304770252  0.34686577943323893  0.3305022395295307  1.0000
  S   S47       1.0  0.2692409124855229  0.35274430569595555  0.11102504070631639  1.0000
  S   S48       1.0  0.24193562372744867  0.35666547567015827  0.201360986155337  1.0000
  Fe  Fe25      1.0  0.37205230003586665  0.2502524366215737  0.6571326186445902  1.0000
  S   S49       1.0  0.3852567341597279  0.2753230496236575  0.6099720900444591  1.0000
  S   S50       1.0  0.4075872925317688  0.22950656270967237  0.7148991771779454  1.0000
  Fe  Fe26      1.0  0.3028993335814425  0.26751621766666234  0.6299644857268326  1.0000
  S   S51       1.0  0.31200000684977225  0.2948157931346903  0.5830669446604703  1.0000
  S   S52       1.0  0.2515932305519293  0.2672432888116095  0.6300970823959582  1.0000
  Fe  Fe27      1.0  0.3373634581007234  0.2681253934178747  0.5556776351739371  1.0000
  S   S53       1.0  0.32479343753710405  0.26365673897324615  0.47491028739257474  1.0000
  Fe  Fe28      1.0  0.35845784256609176  0.299808251359061  0.640623575323134  1.0000
  S   S54       1.0  0.381432430778483  0.3332646151088872  0.6646763172846317  1.0000
  S   S55       1.0  0.3263610136180055  0.24022022810789  0.600145952871836  1.0000
  S   S56       1.0  0.34730247890640237  0.2753291211894654  0.690425272384214  1.0000
  Fe  Fe29      1.0  0.48233449286286045  0.3938052110246294  0.9367404488688871  1.0000
  S   S57       1.0  0.5058622386840415  0.37275586747918205  0.0022623682762919115  1.0000
  S   S58       1.0  0.5064809930072293  0.41996756043812344  0.9051966319986219  1.0000
  Fe  Fe30      1.0  0.4205209275901095  0.36783077127541686  0.91151112429856  1.0000
  S   S59       1.0  0.43858797916441505  0.34502483735703693  0.9746057547741411  1.0000
  S   S60       1.0  0.37030666153718406  0.36275418771818985  0.8633933973183332  1.0000
  Fe  Fe31      1.0  0.458667749223659  0.37643049507607357  0.015056245497306942  1.0000
  S   S61       1.0  0.44958391005992404  0.3874381166351032  0.08287271368879394  1.0000
  Fe  Fe32      1.0  0.4836540286991364  0.3430153350906458  0.9555719365626697  1.0000
  S   S62       1.0  0.4997713061245074  0.30689254071070493  0.9499809602354747  1.0000
  S   S63       1.0  0.43700726323708466  0.39959601549659296  0.9527319307026081  1.0000
  S   S64       1.0  0.4637929673882159  0.36375742770522573  0.8893343476587974  1.0000
  Fe  Fe33      1.0  0.5819835126506946  0.7215312511670281  0.82589868015207  1.0000
  S   S65       1.0  0.608447985525622  0.6891701262302817  0.8278855358214304  1.0000
  S   S66       1.0  0.5341306095648503  0.7271493887888839  0.7686807846483088  1.0000
  Fe  Fe34      1.0  0.6373944769491808  0.7423363830894304  0.907344078037878  1.0000
  S   S67       1.0  0.6674733453735843  0.7110225312159861  0.9142644651618763  1.0000
  S   S68       1.0  0.6560188790722179  0.7759141704689394  0.9428465526575294  1.0000
  Fe  Fe35      1.0  0.6510488681306894  0.7109519487746062  0.8336409084812572  1.0000
  S   S69       1.0  0.6783373158466777  0.7032937114605139  0.7816719691925733  1.0000
  Fe  Fe36      1.0  0.621640478295183  0.692665381938887  0.907389666601473  1.0000
  S   S70       1.0  0.6171183217731873  0.6627968453116332  0.9525173590910353  1.0000
  S   S71       1.0  0.623633708977843  0.7431918336399223  0.8270580562972123  1.0000
  S   S72       1.0  0.5926016856950465  0.7240615454617507  0.9054619121117263  1.0000
  Fe  Fe37      1.0  0.5902410420270476  0.20454967971652513  0.7943328806814911  1.0000
  S   S73       1.0  0.626626381902903  0.23166692432256594  0.8022944273138707  1.0000
  S   S74       1.0  0.5483271449673013  0.2027438172625546  0.7258697302368432  1.0000
  Fe  Fe38      1.0  0.6244377085732665  0.18488554941128174  0.8933335342754205  1.0000
  S   S75       1.0  0.66243205974965  0.21125084048576268  0.9098652938418339  1.0000
  S   S76       1.0  0.6157537086836948  0.15725586782807546  0.9410024983725926  1.0000
  Fe  Fe39      1.0  0.6230132956358669  0.2360740546171951  0.875847873083833  1.0000
  S   S77       1.0  0.6209988644965483  0.2724795329955163  0.8988987188551542  1.0000
  Fe  Fe40      1.0  0.6631319074818277  0.2049224446911541  0.8347568975278705  1.0000
  S   S78       1.0  0.7129968038340337  0.2025455506510032  0.8288414628829849  1.0000
  S   S79       1.0  0.5847326516870177  0.2103938125633848  0.8659819727751884  1.0000
  S   S80       1.0  0.6270625107557738  0.17698362941815185  0.8201529410772012  1.0000
  Fe  Fe41      1.0  0.7496313476950529  0.08164677014712388  0.1467910403212189  1.0000
  S   S81       1.0  0.7824984421947181  0.107533407341175  0.1921621375773274  1.0000
  S   S82       1.0  0.6985058399881462  0.09044036624957254  0.10387429156135046  1.0000
  Fe  Fe42      1.0  0.7944016726535055  0.04168967390101028  0.19219338064542635  1.0000
  S   S83       1.0  0.8297570769929745  0.06528325029149659  0.24118296697658453  1.0000
  S   S84       1.0  0.8127053215782791  0.005320254238485446  0.20106551170600215  1.0000
  Fe  Fe43      1.0  0.7885692300382773  0.08345089814035925  0.2532997370873063  1.0000
  S   S85       1.0  0.7783589311751065  0.09026190342126174  0.3232536388473493  1.0000
  Fe  Fe44      1.0  0.8205661395790151  0.08703270502603831  0.1757089876040919  1.0000
  S   S86       1.0  0.8629177323424304  0.10201345042372226  0.1603385153258382  1.0000
  S   S87       1.0  0.753726589416836  0.058189075518933736  0.20871559680379867  1.0000
  S   S88       1.0  0.7873158761015389  0.06263347107432872  0.12599801619592818  1.0000
  Fe  Fe45      1.0  0.8722118513197076  0.16693194185221844  0.678389130359289  1.0000
  S   S89       1.0  0.8685440456109378  0.13571822315475707  0.6339674801870252  1.0000
  S   S90       1.0  0.918684002118496  0.17232232354246724  0.7386397734584174  1.0000
  Fe  Fe46      1.0  0.7998305498257154  0.17533858356302032  0.6399514198503891  1.0000
  S   S91       1.0  0.7910971484144365  0.14492875764363888  0.5916024920515396  1.0000
  S   S92       1.0  0.7556052201575084  0.19391506983803533  0.6430775368272125  1.0000
  Fe  Fe47      1.0  0.8256026128234968  0.12788925889038452  0.6548498391947606  1.0000
  S   S93       1.0  0.8160604211036194  0.09621135222982945  0.6886033636617274  1.0000
  Fe  Fe48      1.0  0.8345199360530565  0.1555514642009998  0.5739215996525386  1.0000
  S   S94       1.0  0.8426653291056779  0.15538749734099225  0.5012893612054051  1.0000
  S   S95       1.0  0.8316202538752079  0.1573503297143085  0.7038518570711639  1.0000
  S   S96       1.0  0.8409169575942295  0.1878465805211781  0.617400092171456  1.0000
  Fe  Fe49      1.0  0.9898267445939491  0.09959325177470922  0.9625604510020738  1.0000
  S   S97       1.0  0.00668265105615708  0.0664304401026863  0.941744127637298  1.0000
  S   S98       1.0  0.009865051858024776  0.13500179098417842  0.9715484906752541  1.0000
  Fe  Fe50      1.0  0.9233738824333749  0.0817735012246896  0.9516189220221999  1.0000
  S   S99       1.0  0.9337117072626954  0.047370956312356174  0.9284671216132596  1.0000
  S   S100      1.0  0.8743099786527072  0.09085885360819955  0.9529667935132262  1.0000
  Fe  Fe51      1.0  0.9802839477122891  0.05063887912009487  0.9872429039344627  1.0000
  S   S101      1.0  0.9939567281150267  0.02105077984514931  0.03776606367596526  1.0000
  Fe  Fe52      1.0  0.9588366265366337  0.06542117380942727  0.8848264714729809  1.0000
  S   S102      1.0  0.9517923908763809  0.059300267641027526  0.8073101305101085  1.0000
  S   S103      1.0  0.9680061624058441  0.08395185025243894  0.013982163706243502  1.0000
  S   S104      1.0  0.9440616740621927  0.09943664220890966  0.9019590225888675  1.0000
  Fe  Fe53      1.0  0.7623413053887473  0.877148585252065  0.21120556555421655  1.0000
  S   S105      1.0  0.814615148395124  0.8692050100988283  0.23808869372321673  1.0000
  S   S106      1.0  0.7405084892195749  0.9124724330589888  0.19918636578438298  1.0000
  Fe  Fe54      1.0  0.7438991391781423  0.8271506332637005  0.19008984236003368  1.0000
  S   S107      1.0  0.7948048343903047  0.8160647630108138  0.2157219745131883  1.0000
  S   S108      1.0  0.710091769684524  0.7976642279942134  0.16552046089843359  1.0000
  Fe  Fe55      1.0  0.8004410752904386  0.840155612158323  0.27669080653734834  1.0000
  S   S109      1.0  0.8311598214873432  0.8291268228740187  0.3511719704169364  1.0000
  Fe  Fe56      1.0  0.8037482956279232  0.845659558831691  0.175054696387872  1.0000
  S   S110      1.0  0.8232911299981645  0.8410178732245793  0.11407616307672742  1.0000
  S   S111      1.0  0.7486835391714761  0.8495699438687823  0.2538669977772236  1.0000
  S   S112      1.0  0.7523800401389624  0.8553602746280309  0.14565232898993358  1.0000
  Fe  Fe57      1.0  0.809091879960942  0.7666823712342933  0.6857687869934053  1.0000
  S   S113      1.0  0.8123885927010417  0.7964744608703594  0.6401888319061917  1.0000
  S   S114      1.0  0.7799055423270812  0.7679339465130517  0.736930504877769  1.0000
  Fe  Fe58      1.0  0.8634793057556136  0.7417556344821271  0.6641300597425314  1.0000
  S   S115      1.0  0.8707967124536581  0.7688652731076165  0.615571885379518  1.0000
  S   S116      1.0  0.8894949018300786  0.7083616551150984  0.6855532932361927  1.0000
  Fe  Fe59      1.0  0.8650999547971213  0.7923930812799128  0.671895545667166  1.0000
  S   S117      1.0  0.8989312342822083  0.8211012461716088  0.6979522061410431  1.0000
  Fe  Fe60      1.0  0.8174020066766228  0.771202368449863  0.5860122369528786  1.0000
  S   S118      1.0  0.7875986070594527  0.7765313528765339  0.5076432439187775  1.0000
  S   S119      1.0  0.86196692834837  0.7652078427850142  0.7225279104848406  1.0000
  S   S120      1.0  0.8100251373095573  0.7414602529044514  0.6293425557278797  1.0000
  Fe  Fe61      1.0  0.9974623484571109  0.8441647030478873  0.987496658255828  1.0000
  S   S121      1.0  0.9781941485132827  0.865535518900229  0.9218447912442226  1.0000
  S   S122      1.0  0.019167277516785132  0.8091882827621777  0.9887978440902686  1.0000
  Fe  Fe62      1.0  0.9658442782263114  0.8737354501161432  0.044939222478286835  1.0000
  S   S123      1.0  0.9441950239640069  0.8973438961612541  0.9839037559960557  1.0000
  S   S124      1.0  0.9558175660368433  0.8796932889178641  0.11420942911741627  1.0000
  Fe  Fe63      1.0  0.9327900431058527  0.8661182534202501  0.9393143346040183  1.0000
  S   S125      1.0  0.8840855888942963  0.861524884303896  0.8862782413297259  1.0000
  Fe  Fe64      1.0  0.991358427094347  0.8952716724822206  0.9720498792555614  1.0000
  S   S126      1.0  0.009419328915128755  0.9265760364286868  0.945651880630815  1.0000
  S   S127      1.0  0.9505335778995182  0.8424906178571838  0.0010513511960608124  1.0000
  S   S128      1.0  0.014672595728687066  0.8738838252155403  0.03710183113604251  1.0000
  C   C1        1.0  0.8920680301695613  0.8344301589717577  0.7465600054275948  1.0000
  C   C2        1.0  0.8670925265876978  0.8274796802856923  0.7622734312706196  1.0000
  C   C3        1.0  0.86401656746604  0.8364283103613144  0.8045003898314752  1.0000
  C   C4        1.0  0.8862988507423069  0.851931270021283  0.8314587212772939  1.0000
  C   C5        1.0  0.9107109878780265  0.8593317641468539  0.8150027609775249  1.0000
  C   C6        1.0  0.913387324084823  0.8507970504025936  0.7722845617771482  1.0000
  H   H1        1.0  0.850340026337544  0.8150054367148338  0.7422877652079649  1.0000
  H   H2        1.0  0.8449193763883638  0.8308160210699641  0.8169468000091651  1.0000
  H   H3        1.0  0.9275435892145217  0.8715966136148932  0.8352027832215743  1.0000
  H   H4        1.0  0.9324801073229595  0.8563982508516971  0.7598469805238154  1.0000
  C   C7        1.0  0.8184860440639303  0.8166196175503627  0.3965364490605907  1.0000
  C   C8        1.0  0.8413944631673785  0.8075095843006104  0.43715742515102357  1.0000
  C   C9        1.0  0.832326184617758  0.7960384095616173  0.47245596270642287  1.0000
  C   C10       1.0  0.8001410318649229  0.7932669971747957  0.4671955599749787  1.0000
  C   C11       1.0  0.7772058699712314  0.8027701174168642  0.4269923475298886  1.0000
  C   C12       1.0  0.7863285471157571  0.8147201564536499  0.3922467914674675  1.0000
  H   H5        1.0  0.8663501425862451  0.8090674569680258  0.44108276544849334  1.0000
  H   H6        1.0  0.8502442541268403  0.7888271519309042  0.5031126873646521  1.0000
  H   H7        1.0  0.7522677531618897  0.8009514613560936  0.4229033686149014  1.0000
  H   H8        1.0  0.7685488773261073  0.8222750147361723  0.3619480301482948  1.0000
  C   C13       1.0  0.8603653067244341  0.8518300555729517  0.1156876595102977  1.0000
  C   C14       1.0  0.8817063053371033  0.8609037250753191  0.15741016974766955  1.0000
  C   C15       1.0  0.9109570825567027  0.8696046290332959  0.15672935150332404  1.0000
  C   C16       1.0  0.9188978992595545  0.8692083173076927  0.11445463980592606  1.0000
  C   C17       1.0  0.8971914582413498  0.8605235430553606  0.07267656765531456  1.0000
  C   C18       1.0  0.8681034965379042  0.8517676687010002  0.0733577048366689  1.0000
  H   H9        1.0  0.8759714647713611  0.8609034761014124  0.1903054305317507  1.0000
  H   H10       1.0  0.9277235391203795  0.8763054978255577  0.18914650770391775  1.0000
  H   H11       1.0  0.9028403337819837  0.8605061305048881  0.03977088293450686  1.0000
  H   H12       1.0  0.851607692238148  0.8449603474004388  0.04084986773074923  1.0000
  C   C19       1.0  0.9975062540813154  0.9948394583699778  0.011406697455544264  1.0000
  C   C20       1.0  0.0033943777630980328  0.9938062313325697  0.9677399243105754  1.0000
  C   C21       1.0  0.007587995571570301  0.9727824515903318  0.948392822792768  1.0000
  C   C22       1.0  0.004870611835134264  0.9526541076490102  0.9717212003911331  1.0000
  C   C23       1.0  0.9980581863018466  0.953659977292105  0.014689917175128749  1.0000
  C   C24       1.0  0.9948722672224425  0.9747161678858549  0.03483175551497869  1.0000
  H   H13       1.0  0.00563698203960006  0.009223306588232715  0.9495567588007853  1.0000
  H   H14       1.0  0.01294712114793928  0.9721184560314873  0.9152225062911663  1.0000
  H   H15       1.0  0.9960572409749446  0.9382256363457565  0.033035680312389015  1.0000
  H   H16       1.0  0.9905242262605838  0.9753614378413468  0.0687516486333195  1.0000
  C   C25       1.0  0.8530650322567951  0.08454994781585044  0.7206964305155007  1.0000
  C   C26       1.0  0.8769356891491  0.08278846418008264  0.6995215252325288  1.0000
  C   C27       1.0  0.907034605910397  0.07441586359501226  0.725866063223964  1.0000
  C   C28       1.0  0.9135130050578241  0.06832396985008447  0.7737699578880096  1.0000
  C   C29       1.0  0.8896995989479942  0.07023202936780804  0.7950782555358455  1.0000
  C   C30       1.0  0.8593287141557121  0.07802479977276536  0.7683288503364503  1.0000
  H   H17       1.0  0.8720113846744597  0.08751544511385306  0.6625231035323699  1.0000
  H   H18       1.0  0.9253629569049069  0.072898157910368  0.7092806103013747  1.0000
  H   H19       1.0  0.8945333902916237  0.0654553562017751  0.8320201913636512  1.0000
  H   H20       1.0  0.8409353448770903  0.0793748904463281  0.7848322217448497  1.0000
  C   C31       1.0  0.7918978316229717  0.979926528927126  0.20127812013238147  1.0000
  C   C32       1.0  0.758776608020308  0.9786657163269158  0.18272599920488589  1.0000
  C   C33       1.0  0.7433955343610174  0.9579261912278048  0.18289246913392443  1.0000
  C   C34       1.0  0.7609067173308738  0.938304891143366  0.20158143220342417  1.0000
  C   C35       1.0  0.7939763712408038  0.9397249649696406  0.22110195132184146  1.0000
  C   C36       1.0  0.8093863352631683  0.9603829056197982  0.22050880530930095  1.0000
  H   H21       1.0  0.7450218507428453  0.9935584503676511  0.16766200918049973  1.0000
  H   H22       1.0  0.71776277203379  0.9570010286371162  0.16793160793103926  1.0000
  H   H23       1.0  0.8076484562870168  0.9249058450409463  0.23682615334303395  1.0000
  H   H24       1.0  0.8350251214571555  0.9612360945638788  0.23527319891004356  1.0000
  C   C37       1.0  0.7973084751591297  0.1082108917891548  0.37259362550606134  1.0000
  C   C38       1.0  0.7876555188654585  0.10722789481388202  0.4134595857934637  1.0000
  C   C39       1.0  0.8014504697506034  0.1213497633810792  0.45322829424739647  1.0000
  C   C40       1.0  0.8249328428251529  0.13684292626606454  0.4524597837537215  1.0000
  C   C41       1.0  0.8345848268806786  0.13784661026579215  0.4115562847845079  1.0000
  C   C42       1.0  0.8209638106462872  0.12357838353035208  0.3719017140411542  1.0000
  H   H25       1.0  0.7693264484728103  0.09547665595892663  0.4144356913269237  1.0000
  H   H26       1.0  0.7936938881533485  0.12038602203497871  0.4842949281131914  1.0000
  H   H27       1.0  0.8526282629411049  0.14980832565594818  0.4104032924891355  1.0000
  H   H28       1.0  0.8286182259340009  0.12461777138415626  0.3407482631895618  1.0000
  C   C43       1.0  0.864827253276644  0.10028986154405879  0.10174804185405474  1.0000
  C   C44       1.0  0.8388847889304949  0.09304913340471514  0.06337860098941973  1.0000
  C   C45       1.0  0.8417739398815288  0.09066647207971167  0.017595908636201  1.0000
  C   C46       1.0  0.8707119331141523  0.0952031154034271  0.010053124087990743  1.0000
  C   C47       1.0  0.896493436030406  0.10276830545608907  0.04822438062791214  1.0000
  C   C48       1.0  0.89349029523153  0.10542492447701639  0.09383049221413209  1.0000
  H   H29       1.0  0.8165419390034532  0.08938501820747773  0.06884460237687334  1.0000
  H   H30       1.0  0.8216378037751638  0.0849718770979896  0.9881559577970154  1.0000
  H   H31       1.0  0.9186700303116165  0.10684621039563602  0.042603653600304124  1.0000
  H   H32       1.0  0.9135582841430987  0.11124222621452315  0.1232500613935886  1.0000
  C   C49       1.0  0.7239064924339912  0.19972701719176233  0.7764754726948054  1.0000
  C   C50       1.0  0.7556496945823761  0.19439156484839065  0.7812467400301437  1.0000
  C   C51       1.0  0.7655917965283439  0.192211634223323  0.7407439148397712  1.0000
  C   C52       1.0  0.7439826062826503  0.19583890585894587  0.6950071427036975  1.0000
  C   C53       1.0  0.7122877882329263  0.2013322983305921  0.6902571336192851  1.0000
  C   C54       1.0  0.7021824279928928  0.20307157366665757  0.7307341962356622  1.0000
  H   H33       1.0  0.7726616994241499  0.19198295218431724  0.8165404246971794  1.0000
  H   H34       1.0  0.7901189545849832  0.1883048832936052  0.7449635729246079  1.0000
  H   H35       1.0  0.6954419402167539  0.20429038532109786  0.6550248322886334  1.0000
  H   H36       1.0  0.6777269245823265  0.2073152901667728  0.726535350573723  1.0000
  C   C55       1.0  0.6414867228368676  0.13971359824510166  0.986080504258117  1.0000
  C   C56       1.0  0.6269405843997784  0.12401223985254854  0.0075125892412085315  1.0000
  C   C57       1.0  0.6450789054352539  0.10931188692120951  0.04299935143086705  1.0000
  C   C58       1.0  0.6783058789867626  0.10988114120250196  0.058172939041825175  1.0000
  C   C59       1.0  0.6933696773507938  0.1257299438424625  0.03736146426200805  1.0000
  C   C60       1.0  0.6749250987692171  0.14063751039765438  0.0011705755464823664  1.0000
  H   H37       1.0  0.6012887162409615  0.12308303391116648  0.9964274803482637  1.0000
  H   H38       1.0  0.6331291630847643  0.09723331472852391  0.05863787605229085  1.0000
  H   H39       1.0  0.719042620061327  0.1263890785671  0.04875379012192993  1.0000
  H   H40       1.0  0.6865028043831075  0.1527036098619604  0.984951786231529  1.0000
  C   C61       1.0  0.7061700889560623  0.721615286494359  0.7690958841488259  1.0000
  C   C62       1.0  0.7190360275285934  0.7157300968939082  0.7329335017679732  1.0000
  C   C63       1.0  0.7411081047184691  0.7298880302242098  0.7217576622861778  1.0000
  C   C64       1.0  0.7508067921071132  0.7499893085006553  0.7470829043825726  1.0000
  C   C65       1.0  0.7378202203538844  0.7558807047097866  0.7830676870011055  1.0000
  C   C66       1.0  0.7155148176660461  0.741867769932227  0.7938843389051692  1.0000
  H   H41       1.0  0.7117751000738584  0.7001698983992236  0.7133014339640117  1.0000
  H   H42       1.0  0.750476287521463  0.7253276025287404  0.6934618466023232  1.0000
  H   H43       1.0  0.7450899207344674  0.771430464654318  0.8027582754475965  1.0000
  H   H44       1.0  0.7057449366611342  0.7466697100588502  0.8216431401304559  1.0000
  C   C67       1.0  0.6691028677510246  0.7814875943385099  0.005021813002755948  1.0000
  C   C68       1.0  0.6725346025225406  0.764459376554852  0.039072458374613775  1.0000
  C   C69       1.0  0.6846604779115991  0.7696538471768193  0.08823112875143398  1.0000
  C   C70       1.0  0.6939886304506929  0.7917773910548924  0.10363051379134317  1.0000
  C   C71       1.0  0.6904606972239524  0.8087721187183071  0.06952695937803953  1.0000
  C   C72       1.0  0.6777795728100066  0.8036586895186381  0.02053132659964141  1.0000
  H   H45       1.0  0.665820391415128  0.747326737773387  0.027537741496332573  1.0000
  H   H46       1.0  0.6870421804113716  0.7564275577748014  0.11434334088959508  1.0000
  H   H47       1.0  0.696997716035178  0.8259298494456941  0.0809064730520812  1.0000
  H   H48       1.0  0.6746294798873534  0.8169798296585447  0.9943949755249639  1.0000
  C   C73       1.0  0.5331919087933283  0.29813380320285127  0.9342163223589125  1.0000
  C   C74       1.0  0.5374487650968034  0.27496772488061  0.9280233337187476  1.0000
  C   C75       1.0  0.5638940649679866  0.2670226978321292  0.91638515084654  1.0000
  C   C76       1.0  0.5866072265981986  0.2821570794371857  0.9112203139594729  1.0000
  C   C77       1.0  0.5821919341551914  0.3053930108588149  0.916852401496788  1.0000
  C   C78       1.0  0.5554649586099742  0.31339286456551185  0.9279990739921026  1.0000
  H   H49       1.0  0.5204034715265778  0.2630531773498593  0.9329537102352676  1.0000
  H   H50       1.0  0.5671047649463228  0.24913053337290703  0.9127591291219962  1.0000
  H   H51       1.0  0.5996399268236272  0.31725642682188115  0.9130656190331475  1.0000
  H   H52       1.0  0.5524662693267878  0.33128142377786546  0.9327734923160023  1.0000
  C   C79       1.0  0.447332937065788  0.22492796718072883  0.7169065191078353  1.0000
  C   C80       1.0  0.47108159116713777  0.22272805467680917  0.7615785698330736  1.0000
  C   C81       1.0  0.5025019261062091  0.21718725821665397  0.7646866241253224  1.0000
  C   C82       1.0  0.510188514772712  0.21284135407721913  0.7231747957254813  1.0000
  C   C83       1.0  0.48653252830384347  0.21536776635459404  0.6784995020340453  1.0000
  C   C84       1.0  0.4553289962779745  0.22173440867831007  0.6753093445972973  1.0000
  H   H53       1.0  0.4650636182183413  0.22518124092572997  0.7939092876361272  1.0000
  H   H54       1.0  0.520539077591795  0.21576064262296782  0.7991764326511852  1.0000
  H   H55       1.0  0.4922438251218596  0.21208134966963507  0.6461759066136424  1.0000
  H   H56       1.0  0.4371780294452713  0.2232012150261858  0.6407144419808204  1.0000
  C   C85       1.0  0.37611923478681114  0.34274915291595603  0.7177197291550524  1.0000
  C   C86       1.0  0.35251577139954643  0.3335356635386278  0.7338771048946641  1.0000
  C   C87       1.0  0.35000560107163803  0.3402654921643554  0.7780535399508409  1.0000
  C   C88       1.0  0.3713308747712793  0.3560176362183392  0.8062136814283639  1.0000
  C   C89       1.0  0.39427499965369595  0.365715548343832  0.7893540776445337  1.0000
  C   C90       1.0  0.3965680896703998  0.35916963518724526  0.7450376954837887  1.0000
  H   H57       1.0  0.3360792634371027  0.3213447839103546  0.7122405364861172  1.0000
  H   H58       1.0  0.33206105323529045  0.332882232409831  0.7908309818728696  1.0000
  H   H59       1.0  0.4101538938395028  0.37840104229225513  0.8103127769229724  1.0000
  H   H60       1.0  0.41455236852671207  0.3665649378973735  0.7323084020480793  1.0000
  C   C91       1.0  0.3080558228746717  0.323418619668495  0.3697544902065759  1.0000
  C   C92       1.0  0.31735572894287795  0.3273126092424076  0.4192931655037131  1.0000
  C   C93       1.0  0.32246225552598673  0.3092141162004581  0.4518421595099167  1.0000
  C   C94       1.0  0.31845788050590973  0.2869615156853795  0.43516454277050354  1.0000
  C   C95       1.0  0.3090395799946541  0.2830445240643625  0.38557881588909465  1.0000
  C   C96       1.0  0.3037829986836447  0.30116506472449983  0.35297760532337796  1.0000
  H   H61       1.0  0.32080062339480186  0.3444336157165435  0.43272067291967814  1.0000
  H   H62       1.0  0.32980355302548403  0.31250126931582706  0.4898823345316037  1.0000
  H   H63       1.0  0.30580513437781964  0.2658897327367439  0.3723249400265276  1.0000
  H   H64       1.0  0.29641400790449324  0.29789662858971944  0.31494830305305416  1.0000
  C   C97       1.0  0.4256580191551213  0.36969295256880585  0.10437086717188025  1.0000
  C   C98       1.0  0.40693155951327503  0.3790008371963109  0.1299515646113103  1.0000
  C   C99       1.0  0.3850094036818801  0.36552365562418526  0.14276152967666833  1.0000
  C   C100      1.0  0.38251883586501734  0.3425675864679989  0.1311622016493491  1.0000
  C   C101      1.0  0.4022929255469553  0.3330787779009179  0.107633610153271  1.0000
  C   C102      1.0  0.4236339105102716  0.3466325290885649  0.0939074639741813  1.0000
  H   H65       1.0  0.4086767785479606  0.396824057679299  0.1384604831201351  1.0000
  H   H66       1.0  0.3700226698937548  0.3729100932133384  0.16133564632595984  1.0000
  H   H67       1.0  0.40070482265580787  0.31525621987318453  0.09910951379195787  1.0000
  H   H68       1.0  0.4384725920671164  0.33925080031397525  0.07508459305095215  1.0000
  C   C103      1.0  0.5185958323762835  0.4957528537232917  0.9363382220152281  1.0000
  C   C104      1.0  0.5334494468714509  0.4847864710359373  0.9073844434214694  1.0000
  C   C105      1.0  0.5297439037874934  0.4615581354312791  0.8992303800610695  1.0000
  C   C106      1.0  0.511555637973742  0.4488031665527305  0.9204954619151303  1.0000
  C   C107      1.0  0.49694097149133404  0.45956978120482433  0.950365292458846  1.0000
  C   C108      1.0  0.500355967201522  0.48314833168470844  0.9581028805555621  1.0000
  H   H69       1.0  0.5477581824770608  0.4943011352502297  0.8907587537330834  1.0000
  H   H70       1.0  0.541113990593058  0.45337098832084394  0.8762209910244461  1.0000
  H   H71       1.0  0.48301480175327444  0.44977271718843903  0.9671811303232032  1.0000
  H   H72       1.0  0.48936084844588107  0.4914724077638299  0.9813818563050573  1.0000
  C   C109      1.0  0.5152693404105563  0.6399592898348522  0.9336210027648543  1.0000
  C   C110      1.0  0.5210632715061767  0.6565364459664237  0.9035746452536935  1.0000
  C   C111      1.0  0.5521153038182031  0.6640387043711745  0.9100770302187237  1.0000
  C   C112      1.0  0.5777640289688015  0.6548898179802367  0.9463956443717831  1.0000
  C   C113      1.0  0.5720279850270145  0.6384947109390174  0.9768373552554701  1.0000
  C   C114      1.0  0.5408640708709826  0.6310697612510814  0.97055087274303  1.0000
  H   H73       1.0  0.5017286631743129  0.6633441690310473  0.8744199943167795  1.0000
  H   H74       1.0  0.5563090291942017  0.6766991262293102  0.8865396766840714  1.0000
  H   H75       1.0  0.591771308475647  0.6315337507214088  0.005354534779613118  1.0000
  H   H76       1.0  0.5366921923657411  0.6185563202827987  0.9944049908115234  1.0000
  C   C115      1.0  0.46046405894648657  0.6699666537526303  0.7314380917532908  1.0000
  C   C116      1.0  0.452616786519868  0.6913467042878292  0.7108409770863388  1.0000
  C   C117      1.0  0.4753232307307465  0.7087941052872448  0.7226422102974753  1.0000
  C   C118      1.0  0.5059404951181474  0.7050175650378263  0.755111372376962  1.0000
  C   C119      1.0  0.5136436997934988  0.6836574825327352  0.7757223270757205  1.0000
  C   C120      1.0  0.4910474486231897  0.666232602490302  0.7638664746246746  1.0000
  H   H77       1.0  0.4291797251342818  0.6943971394078942  0.6856377404571853  1.0000
  H   H78       1.0  0.46917022913354023  0.7252651483486416  0.7064579128050017  1.0000
  H   H79       1.0  0.5371165110160164  0.6804873942071531  0.8005336167228664  1.0000
  H   H80       1.0  0.49732647684750375  0.6497646903069957  0.7800195638204946  1.0000
  C   C121      1.0  0.3247695011607386  0.572543541731919  0.7344867856068001  1.0000
  C   C122      1.0  0.35387614593202604  0.5812173167440405  0.7635772169349992  1.0000
  C   C123      1.0  0.36806369028333263  0.5727758227626715  0.8100653738168195  1.0000
  C   C124      1.0  0.35311848502050563  0.5556391919187148  0.8272966111177227  1.0000
  C   C125      1.0  0.32418761867064105  0.5468959871776525  0.7980558498582326  1.0000
  C   C126      1.0  0.31009429453656073  0.5552838284512465  0.7517300194099797  1.0000
  H   H81       1.0  0.36574090149934524  0.5941666793399363  0.7500762254093163  1.0000
  H   H82       1.0  0.39046595745681  0.579575436931271  0.8324779648714583  1.0000
  H   H83       1.0  0.3125630606767403  0.533652691714007  0.811297555327507  1.0000
  H   H84       1.0  0.2876142353541261  0.5485321331640837  0.7293828934164245  1.0000
  C   C127      1.0  0.30037200932232494  0.4837940000344651  0.18105928432171514  1.0000
  C   C128      1.0  0.2672863187134985  0.4823512632140273  0.1678474073224952  1.0000
  C   C129      1.0  0.2523178611929753  0.4611219013512635  0.1588417460855737  1.0000
  C   C130      1.0  0.2702080784897893  0.44109565335953155  0.1636575513516969  1.0000
  C   C131      1.0  0.30335044788677396  0.4424966848500265  0.17750168659776594  1.0000
  C   C132      1.0  0.31829585387301446  0.46376440062103325  0.18577019980802395  1.0000
  H   H85       1.0  0.2531794838201489  0.4976132599940448  0.16375095069204196  1.0000
  H   H86       1.0  0.2266543766188553  0.46023601469906616  0.14801489899825776  1.0000
  H   H87       1.0  0.3174310125725093  0.42725959294349636  0.18120537577708917  1.0000
  H   H88       1.0  0.34391621495208907  0.46472082288217226  0.1958742650673993  1.0000
  C   C133      1.0  0.3104797183446482  0.6035835191733556  0.39588921336028743  1.0000
  C   C134      1.0  0.3284033378010212  0.6007893885242086  0.44434948309866623  1.0000
  C   C135      1.0  0.3280209247547559  0.6172807219313602  0.4785443609701522  1.0000
  C   C136      1.0  0.3090809192134605  0.6366173235093173  0.46488253924237505  1.0000
  C   C137      1.0  0.29186131924583986  0.639759877752017  0.4161387704182131  1.0000
  C   C138      1.0  0.2925606705523816  0.6233527669321351  0.3817424031406339  1.0000
  H   H89       1.0  0.34256045769693444  0.585653403914206  0.4556140508851983  1.0000
  H   H90       1.0  0.34198848185265507  0.6148009166304281  0.5156294245864883  1.0000
  H   H91       1.0  0.27720915720643835  0.654689983250863  0.40509685680120566  1.0000
  H   H92       1.0  0.2785375482052921  0.6257098629821398  0.34459383523936615  1.0000
  C   C139      1.0  0.38275410066569776  0.6023269371675306  0.15326266914868444  1.0000
  C   C140      1.0  0.3887097063604869  0.6084819600675798  0.11122145432356195  1.0000
  C   C141      1.0  0.4113037583236668  0.5965979610714814  0.09640938667627287  1.0000
  C   C142      1.0  0.4286665302148381  0.5789488802098333  0.12433445660918471  1.0000
  C   C143      1.0  0.4236276112837905  0.5734611358429071  0.16746924172576416  1.0000
  C   C144      1.0  0.4002775139913481  0.5848084725657705  0.18146732190486467  1.0000
  H   H93       1.0  0.37541480663658755  0.622196286580761  0.08960979456848765  1.0000
  H   H94       1.0  0.41545864555018863  0.6012693551681939  0.06368451835919058  1.0000
  H   H95       1.0  0.4373959407982  0.5600828703188767  0.18965645661558644  1.0000
  H   H96       1.0  0.39602890130262375  0.580094991814312  0.21419561047932437  1.0000
  C   C145      1.0  0.09301032927219899  0.1552003729372057  0.9206933860786571  1.0000
  C   C146      1.0  0.09113304716775987  0.13314110655619743  0.9367671322009163  1.0000
  C   C147      1.0  0.06562264971327038  0.12668857868769168  0.9521250637952824  1.0000
  C   C148      1.0  0.042110793166437066  0.14241025241307922  0.9522499397824202  1.0000
  C   C149      1.0  0.04416955832059299  0.16454832635158376  0.936652715634005  1.0000
  C   C150      1.0  0.06933270324110893  0.17087370346120556  0.9203260215694415  1.0000
  H   H97       1.0  0.10952549147984558  0.12098875345196403  0.9374404017023816  1.0000
  H   H98       1.0  0.06441364250491023  0.10966190094765665  0.9646235863068447  1.0000
  H   H99       1.0  0.026069473420590406  0.17680277477906817  0.9367923435791661  1.0000
  H   H100      1.0  0.07057517919125308  0.18792930563253324  0.9081002468972391  1.0000
  C   C151      1.0  0.00394853372344639  0.21335304338218472  0.7293137387436813  1.0000
  C   C152      1.0  0.00677498013248834  0.1991619036618348  0.7682544224024006  1.0000
  C   C153      1.0  0.9801712867164585  0.18717999639754407  0.7710653875454347  1.0000
  C   C154      1.0  0.9507551702327902  0.18882459522442216  0.7345666129655581  1.0000
  C   C155      1.0  0.9477368008459198  0.20322485886667582  0.6959410622339707  1.0000
  C   C156      1.0  0.9742586379438313  0.2154678560241732  0.6933785544154977  1.0000
  H   H101      1.0  0.029371568942938353  0.19768387073792573  0.7964991282789845  1.0000
  H   H102      1.0  0.9823628154518386  0.17671513820721962  0.8018661503664022  1.0000
  H   H103      1.0  0.9249182349066413  0.20514793715980315  0.6684794967374835  1.0000
  H   H104      1.0  0.9717979640801983  0.22673484913918804  0.6636143245882052  1.0000
  C   C157      1.0  0.23633955399419834  0.24926350348663934  0.6652464206427776  1.0000
  C   C158      1.0  0.20534924156717127  0.2530455483071457  0.6664681890750255  1.0000
  C   C159      1.0  0.19255082922757705  0.23948938208893272  0.6948592058483017  1.0000
  C   C160      1.0  0.21042046794917546  0.22166771284887124  0.7214509877693505  1.0000
  C   C161      1.0  0.24123159742722633  0.21769320161426628  0.7196670677843198  1.0000
  C   C162      1.0  0.2542754931366082  0.23152938049375932  0.6920511736835766  1.0000
  H   H105      1.0  0.19124468565096514  0.2666742533763549  0.6456938893065289  1.0000
  H   H106      1.0  0.16871382620938158  0.24260427269274415  0.6956069751582626  1.0000
  H   H107      1.0  0.25515257058033813  0.20385083531908488  0.7399055118681749  1.0000
  H   H108      1.0  0.27809178219033603  0.22835322651328233  0.6912607938505753  1.0000
  C   C163      1.0  0.1804890439424173  0.2816655778725202  0.9593254666080435  1.0000
  C   C164      1.0  0.20667317141417402  0.2958406714098276  0.9795391143416307  1.0000
  C   C165      1.0  0.21449761042701895  0.30317603333428017  0.027237162148307827  1.0000
  C   C166      1.0  0.19600739255017866  0.29657066782846936  0.055170400787100955  1.0000
  C   C167      1.0  0.16973084549842135  0.28241023146552435  0.03495335951262964  1.0000
  C   C168      1.0  0.16194563688196054  0.2749927442707532  0.9871635949006339  1.0000
  H   H109      1.0  0.22098109940069158  0.30128710275382453  0.9582268586283849  1.0000
  H   H110      1.0  0.2347212299233932  0.3140638188206326  0.04233192674401049  1.0000
  H   H111      1.0  0.15509958494185452  0.2774493111656514  0.05620223648616357  1.0000
  H   H112      1.0  0.14129032375220413  0.2645508306968048  0.9716077875021301  1.0000
  C   C169      1.0  0.08662463668703664  0.7818677036892684  0.9120322890353294  1.0000
  C   C170      1.0  0.06979095575934684  0.767321444710562  0.9322119155951544  1.0000
  C   C171      1.0  0.04970556254214273  0.7760899547061371  0.9561884104610074  1.0000
  C   C172      1.0  0.045406479910076555  0.7994644570080739  0.9590631233503172  1.0000
  C   C173      1.0  0.06169412214663386  0.8140998663142303  0.9381099260857927  1.0000
  C   C174      1.0  0.08248573843443412  0.805301092997833  0.9150908488198325  1.0000
  H   H113      1.0  0.07210573923474395  0.7492989101879708  0.929459373731698  1.0000
  H   H114      1.0  0.03709202171229399  0.7646677179938571  0.9721869538556184  1.0000
  H   H115      1.0  0.0586515650309197  0.8321614786297651  0.9402991963794676  1.0000
  H   H116      1.0  0.09538429666313496  0.8167144158915977  0.899561787333395  1.0000
  C   C175      1.0  0.9907439848337618  0.6875945892725039  0.7780139003669345  1.0000
  C   C176      1.0  0.9659987962844175  0.672067037565986  0.7616160395484374  1.0000
  C   C177      1.0  0.9355619118587382  0.6790299453876485  0.7337452942571017  1.0000
  C   C178      1.0  0.928880068341175  0.7017654693398431  0.7219993936362276  1.0000
  C   C179      1.0  0.9533479039238621  0.7177178002553596  0.7389371348219911  1.0000
  C   C180      1.0  0.9843847820639536  0.7106038955644841  0.7668500635522173  1.0000
  H   H117      1.0  0.9704983159790341  0.6543278065140753  0.7699649372174171  1.0000
  H   H118      1.0  0.9170130616205153  0.6665613659111245  0.720918957911714  1.0000
  H   H119      1.0  0.9484976353906286  0.7353239602062095  0.7297749803304454  1.0000
  H   H120      1.0  0.003339079235374909  0.7227677271359525  0.7793090929465023  1.0000
  C   C181      1.0  0.19611199661795328  0.6871892056371522  0.7469323220155032  1.0000
  C   C182      1.0  0.22131510404351182  0.6971891223242138  0.7826049982101392  1.0000
  C   C183      1.0  0.2520849349494401  0.6974000744201377  0.7784662210748161  1.0000
  C   C184      1.0  0.2581303837749074  0.6874057971822786  0.7390078075999865  1.0000
  C   C185      1.0  0.23303579024792434  0.6770906813554517  0.7037365133665561  1.0000
  C   C186      1.0  0.20222989827368568  0.6770881520314792  0.7076234481885489  1.0000
  H   H121      1.0  0.2169901871771594  0.705102903326483  0.8129582682251945  1.0000
  H   H122      1.0  0.27125728533057786  0.705499971363707  0.8059083450700253  1.0000
  H   H123      1.0  0.23721379101536738  0.6694853674078837  0.6730033970676281  1.0000
  H   H124      1.0  0.182910412743371  0.6694028064015545  0.6797154166916319  1.0000
  C   C187      1.0  0.1873745334452282  0.655357450972555  0.02098726695360642  1.0000
  C   C188      1.0  0.21644261571285092  0.6519450074722835  0.05764023972802401  1.0000
  C   C189      1.0  0.22155140065038792  0.6327044151959205  0.08718375037901703  1.0000
  C   C190      1.0  0.19737815235273817  0.6168039326533288  0.08100112910474824  1.0000
  C   C191      1.0  0.16829289277545573  0.6201757118999897  0.04426871684301535  1.0000
  C   C192      1.0  0.1633621364454416  0.639261143730319  0.014122312185136154  1.0000
  H   H125      1.0  0.23517500321835688  0.6642643892612368  0.06329623672796858  1.0000
  H   H126      1.0  0.24403664993578422  0.6303445654295002  0.1152174978147855  1.0000
  H   H127      1.0  0.14943592607261366  0.6079987905344998  0.03925710437991764  1.0000
  H   H128      1.0  0.14080976476861637  0.6417066013400359  0.9862849536380076  1.0000
  N   N1        1.0  0.17327323031836403  0.7502143115963351  0.024647934601734756  1.0000
  C   C193      1.0  0.14316755511412682  0.7375232543927089  0.010236930556470236  1.0000
  C   C194      1.0  0.18892614196896662  0.747513572368157  0.9877981587693233  1.0000
  C   C195      1.0  0.1943430623097968  0.7413068589745241  0.07071458196660352  1.0000
  C   C196      1.0  0.16645169799865372  0.774393388659745  0.029461173530430873  1.0000
  H   H129      1.0  0.1303086638890345  0.7394093775695052  0.03667634314020618  1.0000
  H   H130      1.0  0.1473153365625647  0.7191495346599382  0.006527273620791085  1.0000
  H   H131      1.0  0.12709794320623324  0.7436474296484841  0.9752869724132354  1.0000
  H   H132      1.0  0.21179406319379734  0.7568145302956005  0.9974109182474272  1.0000
  H   H133      1.0  0.19413349210624498  0.7294157236612601  0.9829334063506043  1.0000
  H   H134      1.0  0.17359672056056602  0.7540306586016527  0.9524913197000603  1.0000
  H   H135      1.0  0.21740990404676927  0.7504052037152769  0.0827311577346248  1.0000
  H   H136      1.0  0.19964807510697127  0.7230218917283746  0.06768270769661999  1.0000
  H   H137      1.0  0.18316766968865578  0.7429255256312508  0.0992728071838167  1.0000
  H   H138      1.0  0.18858662977151808  0.7845930129799651  0.040246432316044745  1.0000
  H   H139      1.0  0.1542602996801344  0.7770749579145606  0.05655599364234232  1.0000
  H   H140      1.0  0.15054429706818165  0.7814198539970377  0.9949403035637373  1.0000
  N   N2        1.0  0.04044363504417081  0.6784624607637898  0.6756598017707972  1.0000
  C   C197      1.0  0.014375037990094874  0.6629666311374245  0.6752315948307962  1.0000
  C   C198      1.0  0.03298001708354947  0.7014214067046608  0.6886708633663448  1.0000
  C   C199      1.0  0.04415747001671777  0.6790122033895765  0.6277620177293567  1.0000
  C   C200      1.0  0.0703705492488036  0.6705194010688188  0.7111102226294557  1.0000
  H   H141      1.0  0.01891280946449636  0.6455797896206369  0.6646612116456299  1.0000
  H   H142      1.0  0.9911462077622759  0.6688315259648454  0.650155521415931  1.0000
  H   H143      1.0  0.011651664504270132  0.6617317077740003  0.7112728357000455  1.0000
  H   H144      1.0  0.05174651076532677  0.7136954762593251  0.688062776551043  1.0000
  H   H145      1.0  0.00986951178516593  0.7076960788629492  0.6639882145741948  1.0000
  H   H146      1.0  0.03135281451976035  0.7017316298889958  0.7253814723495015  1.0000
  H   H147      1.0  0.06393034531881936  0.6904071210585168  0.6272324655759096  1.0000
  H   H148      1.0  0.022091943855149676  0.6851803463863495  0.6002332255762709  1.0000
  H   H149      1.0  0.049706270441450595  0.6619484807443742  0.6166853204592717  1.0000
  H   H150      1.0  0.06828655442196085  0.6695777261250572  0.7476103094285069  1.0000
  H   H151      1.0  0.09037145417760528  0.6821168512737401  0.7131377145423494  1.0000
  H   H152      1.0  0.07726625536575304  0.6534315256097243  0.7022086141352745  1.0000
  N   N3        1.0  0.27188001219339686  0.4176439025122934  0.3042333472287112  1.0000
  C   C201      1.0  0.2995809100849349  0.41178861441980086  0.2892345334890047  1.0000
  C   C202      1.0  0.2810057178452088  0.4161301673154946  0.35685499923771097  1.0000
  C   C203      1.0  0.24576749305221846  0.4016772774591614  0.28228488042305044  1.0000
  C   C204      1.0  0.26121091009589725  0.44085098226262576  0.28841715097226955  1.0000
  H   H153      1.0  0.29329773875782306  0.41218743208301745  0.24966293707001844  1.0000
  H   H154      1.0  0.3085735708585824  0.39451687589501633  0.3013487323066869  1.0000
  H   H155      1.0  0.31950506512653054  0.4238159314087449  0.3040142826158013  1.0000
  H   H156      1.0  0.2606672572960802  0.4203684936943399  0.3695466947265594  1.0000
  H   H157      1.0  0.2891057278434115  0.39870868996240777  0.3695563187170811  1.0000
  H   H158      1.0  0.30078284834539937  0.4278830714987164  0.3745882434546375  1.0000
  H   H159      1.0  0.2244873985875384  0.4054414155296235  0.2929964335006639  1.0000
  H   H160      1.0  0.25313352706282277  0.38393741205753895  0.2929595330724115  1.0000
  H   H161      1.0  0.23815804221843284  0.40250429707097524  0.2425003973078013  1.0000
  H   H162      1.0  0.2805644558277316  0.45335587931690857  0.3029871423735729  1.0000
  H   H163      1.0  0.24064612078755165  0.4460302452530014  0.29974951525287236  1.0000
  H   H164      1.0  0.2535123653826372  0.4422439120296763  0.24872545806697685  1.0000
  N   N4        1.0  0.7705161757410997  0.794701106033592  0.016186611465554068  1.0000
  C   C205      1.0  0.7571077821338218  0.817656856687305  0.004586174337792037  1.0000
  C   C206      1.0  0.7699941456021011  0.7881847384732412  0.06419541462184915  1.0000
  C   C207      1.0  0.8036698232522116  0.7944449262830322  0.01569802981689467  1.0000
  C   C208      1.0  0.7512632950036469  0.7785727133461423  0.9802938197338892  1.0000
  H   H165      1.0  0.7571282286415716  0.8231270374924842  0.9686066445954888  1.0000
  H   H166      1.0  0.7709095628124951  0.8302457695764747  0.031087848778807672  1.0000
  H   H167      1.0  0.7321650398901572  0.8184687855196083  0.004708974755195392  1.0000
  H   H168      1.0  0.7807308462782228  0.7712170858160303  0.07473604504513787  1.0000
  H   H169      1.0  0.7833585931667881  0.8004340915254291  0.0920113774404785  1.0000
  H   H170      1.0  0.7452962274353248  0.7875587138835841  0.06543735913817497  1.0000
  H   H171      1.0  0.8145251238620134  0.7773605604140861  0.02398804449096411  1.0000
  H   H172      1.0  0.8188423001643746  0.8062911488703213  0.04281175489008651  1.0000
  H   H173      1.0  0.8050625725370196  0.7996023565560891  0.9802318696720118  1.0000
  H   H174      1.0  0.7603786865792377  0.7610031468960611  0.9880865809116747  1.0000
  H   H175      1.0  0.7510518797243225  0.7829325318440686  0.9435754219718957  1.0000
  H   H176      1.0  0.7260468334365517  0.778510062278778  0.9795599747600449  1.0000
  N   N5        1.0  0.7962152296313683  0.009386002026166245  0.3361639777345452  1.0000
  C   C209      1.0  0.7989596569719121  0.033812215317066165  0.346985903737182  1.0000
  C   C210      1.0  0.7692436934433097  0.005494685693098901  0.2920131421606018  1.0000
  C   C211      1.0  0.7907111285349046  0.9970449407554787  0.37616960650774445  1.0000
  C   C212      1.0  0.8259213526394825  0.001183635880823397  0.3293551055113128  1.0000
  H   H177      1.0  0.8190927303094573  0.03752487054163189  0.37998677873468445  1.0000
  H   H178      1.0  0.7769418248986596  0.04074232228667015  0.3520646988860913  1.0000
  H   H179      1.0  0.80305876937489  0.04358968798885337  0.3173781738541939  1.0000
  H   H180      1.0  0.7662343306796477  0.9871985946918939  0.2829297995387232  1.0000
  H   H181      1.0  0.7464816101701598  0.011851584557290224  0.2953979920261169  1.0000
  H   H182      1.0  0.7729110185649711  0.014237487235330833  0.26094953997558823  1.0000
  H   H183      1.0  0.788699962263637  0.978533425683704  0.36906706389301314  1.0000
  H   H184      1.0  0.7683556045733713  0.002735979124695164  0.38204333344231656  1.0000
  H   H185      1.0  0.8105194807733687  0.9996852168239199  0.41018668254930973  1.0000
  H   H186      1.0  0.824100446924373  0.9830974243098503  0.31844407011481546  1.0000
  H   H187      1.0  0.8465996701832657  0.002934877653255626  0.36257390510348597  1.0000
  H   H188      1.0  0.831544512904335  0.010885617997787778  0.3008891979988829  1.0000
  N   N6        1.0  0.7586299058921259  0.7640367938288196  0.2930673299938877  1.0000
  C   C213      1.0  0.757849223869672  0.7577711333636298  0.24427151704204986  1.0000
  C   C214      1.0  0.7457316721891665  0.745354636990766  0.31422130187422287  1.0000
  C   C215      1.0  0.7390396027991473  0.7845018731780932  0.29074065217977485  1.0000
  C   C216      1.0  0.7918048128422482  0.7685236326161812  0.3230037988057223  1.0000
  H   H189      1.0  0.7673577766127938  0.7715824565346768  0.22738812016345583  1.0000
  H   H190      1.0  0.7330919810906908  0.7545942900519598  0.2204934187744338  1.0000
  H   H191      1.0  0.7721855813010372  0.7423383824950215  0.24435648554858164  1.0000
  H   H192      1.0  0.746058058238845  0.7496119641123243  0.3511582247353026  1.0000
  H   H193      1.0  0.7206756140710525  0.7416164942637569  0.29260162823838765  1.0000
  H   H194      1.0  0.7599171329286113  0.729620279500364  0.3165569409151971  1.0000
  H   H195      1.0  0.7376812602069307  0.789099124995631  0.3265125998827005  1.0000
  H   H196      1.0  0.7142742541377942  0.7821396571439425  0.2662789921260396  1.0000
  H   H197      1.0  0.7489233207255823  0.7992289943145039  0.2770124643912688  1.0000
  H   H198      1.0  0.7935517859072538  0.7719260470277263  0.36080943836485374  1.0000
  H   H199      1.0  0.8017108699647525  0.7835198963052009  0.3100419728499425  1.0000
  H   H200      1.0  0.8076774125748912  0.7539266289421128  0.32334953830397917  1.0000
  N   N7        1.0  0.240208837005462  0.2749277049209058  0.8254354693983864  1.0000
  C   C217      1.0  0.2233512020169859  0.25370358124903114  0.827537230988673  1.0000
  C   C218      1.0  0.24188498357906205  0.27802765857353945  0.7767222380403107  1.0000
  C   C219      1.0  0.2727396827108899  0.273807091594814  0.8599903128713638  1.0000
  C   C220      1.0  0.22283560588800957  0.2941283378610281  0.8374634101352527  1.0000
  H   H201      1.0  0.2205264737235721  0.2512218925543658  0.8632601874958946  1.0000
  H   H202      1.0  0.23619716217845793  0.23872037545937735  0.8200150666949659  1.0000
  H   H203      1.0  0.19909262252405435  0.25357243704034643  0.8007209656978612  1.0000
  H   H204      1.0  0.2551380595962762  0.29356040370878217  0.7738834386556329  1.0000
  H   H205      1.0  0.25409042941839144  0.2635294757408211  0.7659817926466758  1.0000
  H   H206      1.0  0.2177214975738843  0.27943697507999793  0.7499118605232463  1.0000
  H   H207      1.0  0.28611266807365127  0.2896073625418736  0.8596063097527497  1.0000
  H   H208      1.0  0.28646865742603494  0.25955732406959703  0.8514915028850261  1.0000
  H   H209      1.0  0.2722987045544321  0.27121228480410453  0.8970814979917057  1.0000
  H   H210      1.0  0.22260945897035056  0.2929526222946936  0.8749092175315752  1.0000
  H   H211      1.0  0.19750771734203623  0.2944816168768206  0.814075500666758  1.0000
  H   H212      1.0  0.23372493826051477  0.3105624893732166  0.8335739386244885  1.0000
  N   N8        1.0  0.7026074150324364  0.13187482071900453  0.22288785063485317  1.0000
  C   C221      1.0  0.7020056934159397  0.14045062207221662  0.17561578319178142  1.0000
  C   C222      1.0  0.6747858304867765  0.1407628900531532  0.23427724446909537  1.0000
  C   C223      1.0  0.7321273029202834  0.13923595797947594  0.26000487895386243  1.0000
  C   C224      1.0  0.701408286606509  0.10695771448840981  0.22165186174538537  1.0000
  H   H213      1.0  0.7223609784429996  0.1337953012266657  0.16538832349604937  1.0000
  H   H214      1.0  0.7030859311284253  0.1591955858945704  0.1750377730062579  1.0000
  H   H215      1.0  0.680055620609544  0.13509362847315518  0.14681919399798418  1.0000
  H   H216      1.0  0.67490303307915  0.1595486267851892  0.23543611979933843  1.0000
  H   H217      1.0  0.652143952688106  0.13544163645627944  0.20697057692565082  1.0000
  H   H218      1.0  0.674489806812228  0.13456195812102784  0.2696759152463398  1.0000
  H   H219      1.0  0.7334815447235156  0.1328149382830488  0.29604180509611505  1.0000
  H   H220      1.0  0.7339694616870378  0.15795203286043896  0.2621083251324358  1.0000
  H   H221      1.0  0.7536257496048546  0.13270513675629111  0.25277654140745087  1.0000
  H   H222      1.0  0.6795445514150394  0.10069428554646738  0.19392929977308035  1.0000
  H   H223      1.0  0.7023800406970844  0.09975477802604941  0.2568604251110853  1.0000
  H   H224      1.0  0.721861150418329  0.09982719210022771  0.21261680055131535  1.0000
  N   N9        1.0  0.28021860489700806  0.6238650591635718  0.8056769916064899  1.0000
  C   C225      1.0  0.27794076407665114  0.6220454277022074  0.7548120744222513  1.0000
  C   C226      1.0  0.2883084148283277  0.6015191350287361  0.8287316012992347  1.0000
  C   C227      1.0  0.24943088657681606  0.6317002995187334  0.8092351053193612  1.0000
  C   C228      1.0  0.3053249344417066  0.6402063031271424  0.8298534917688608  1.0000
  H   H225      1.0  0.2727762183672171  0.638691757115113  0.7365012484882357  1.0000
  H   H226      1.0  0.2589664524500432  0.6101190936286407  0.735031724690221  1.0000
  H   H227      1.0  0.30055643758281886  0.6157593683300676  0.7509612315886636  1.0000
  H   H228      1.0  0.28973457886044557  0.6021137122775216  0.8670183864499923  1.0000
  H   H229      1.0  0.27032887189757415  0.5885967224096118  0.8106176880141823  1.0000
  H   H230      1.0  0.311723923553547  0.5953699301459551  0.8274010098943491  1.0000
  H   H231      1.0  0.2503073645546667  0.6335057974139001  0.8471467260115086  1.0000
  H   H232      1.0  0.22989587972305436  0.6197925782360056  0.7914052593895317  1.0000
  H   H233      1.0  0.24260352304431634  0.6484685908184605  0.7919177395657254  1.0000
  H   H234      1.0  0.3080436149008782  0.6417894509032822  0.8685013437119328  1.0000
  H   H235      1.0  0.29972274457695214  0.6573280972461373  0.8137540446239976  1.0000
  H   H236      1.0  0.3287330010186415  0.6350528283422988  0.826874983977196  1.0000
  N   N10       1.0  0.9188623080632445  0.93350747726951  0.843720848942346  1.0000
  C   C229      1.0  0.894042509886338  0.9178420296810389  0.8476596580715041  1.0000
  C   C230      1.0  0.906052127009142  0.9476325899595291  0.8005392012897231  1.0000
  C   C231      1.0  0.9464003498607477  0.9204007856263102  0.8402601411866412  1.0000
  C   C232      1.0  0.9290577801941048  0.9481288447081415  0.8865247489101638  1.0000
  H   H237      1.0  0.8726858325195983  0.9270190645467624  0.8498356674897505  1.0000
  H   H238      1.0  0.9029177464867073  0.9071889447189114  0.8803061636400288  1.0000
  H   H239      1.0  0.8862024563630706  0.9061259174640602  0.816566469175336  1.0000
  H   H240      1.0  0.897948824344454  0.9370808240809625  0.7676207944406953  1.0000
  H   H241      1.0  0.8854048133869107  0.9579160555601202  0.8021389444073467  1.0000
  H   H242      1.0  0.924380728693569  0.959501624060406  0.7964677867300598  1.0000
  H   H243      1.0  0.9663646947156486  0.9316150596835797  0.8398450335740255  1.0000
  H   H244      1.0  0.9399821883829252  0.9097420705054496  0.8075140016002781  1.0000
  H   H245      1.0  0.9558813388893375  0.9089767778204172  0.8715058167664469  1.0000
  H   H246      1.0  0.947651777693514  0.960263311631673  0.8846176407023562  1.0000
  H   H247      1.0  0.9395108247210638  0.9380207477223059  0.9196864608663837  1.0000
  H   H248      1.0  0.908898228205158  0.9580553663235895  0.8909002761394248  1.0000
  N   N11       1.0  0.39345452531485353  0.3124608187072051  0.2926583376381162  1.0000
  C   C233      1.0  0.4247511043334121  0.3058939154035823  0.32646618242206854  1.0000
  C   C234      1.0  0.3964954849383953  0.33394854824954184  0.2691761058842374  1.0000
  C   C235      1.0  0.3704479163492764  0.3153299721517941  0.3188925523254162  1.0000
  C   C236      1.0  0.3820987731412674  0.2946671664875407  0.2560106348685946  1.0000
  H   H249      1.0  0.42331062219258464  0.28973200432178364  0.34484103687990975  1.0000
  H   H250      1.0  0.4339726739183408  0.31895829654706115  0.35463448723724483  1.0000
  H   H251      1.0  0.4426575802250161  0.30361143524222545  0.3077608284682864  1.0000
  H   H252      1.0  0.37324469878720784  0.33943073020217496  0.24377373206001668  1.0000
  H   H253      1.0  0.4052832885081562  0.34777558739622244  0.29561341682714004  1.0000
  H   H254      1.0  0.41307269869781743  0.3322929995491018  0.24798582724128942  1.0000
  H   H255      1.0  0.34651731882862863  0.3201255021284214  0.2943783239348047  1.0000
  H   H256      1.0  0.3778538836324843  0.3288287651427436  0.34649516594282265  1.0000
  H   H257      1.0  0.3675956494184902  0.29950364460157963  0.33735000878446114  1.0000
  H   H258      1.0  0.39835489735981766  0.29250875606472615  0.23444717091061643  1.0000
  H   H259      1.0  0.358312089203132  0.29894382687291216  0.23031450044904178  1.0000
  H   H260      1.0  0.37995059626208716  0.27810002943437323  0.27234183234571163  1.0000
  N   N12       1.0  0.8097411183643553  0.9142551935768295  0.09911270555911154  1.0000
  C   C237      1.0  0.7870590922880603  0.8996633605780824  0.06363058455348829  1.0000
  C   C238      1.0  0.8396536219017322  0.915891460366636  0.08759820385122624  1.0000
  C   C239      1.0  0.8164655465788444  0.9043403317836973  0.14713296610887883  1.0000
  C   C240      1.0  0.795729018189125  0.9369918365915588  0.09841974071525461  1.0000
  H   H261      1.0  0.76449825795515  0.8976977527615358  0.072018277394395  1.0000
  H   H262      1.0  0.7970847433595054  0.8824226955803919  0.06318268641737258  1.0000
  H   H263      1.0  0.7810564309526261  0.906681089446527  0.026889949850961978  1.0000
  H   H264      1.0  0.8574680444792449  0.9265342563301369  0.11407556392018274  1.0000
  H   H265      1.0  0.8508055653422647  0.8989770802304197  0.0879920762502167  1.0000
  H   H266      1.0  0.8355703099846641  0.923261370758335  0.05151786944065973  1.0000
  H   H267      1.0  0.8267069939762606  0.88711251273781  0.14889708470811808  1.0000
  H   H268      1.0  0.7943832249164957  0.9028892989676195  0.15695992268667586  1.0000
  H   H269      1.0  0.8337737336805257  0.9146663493408943  0.17499929586728313  1.0000
  H   H270      1.0  0.8121830914361479  0.9484017778613704  0.12501250307699902  1.0000
  H   H271      1.0  0.7732708147902536  0.9362657370076283  0.1074945735249022  1.0000
  H   H272      1.0  0.7900978074105902  0.94503636527835  0.06266172545548555  1.0000
  N   N13       1.0  0.9718186600357186  0.7933334799165183  0.8226443202809209  1.0000
  C   C241      1.0  0.9400573189538584  0.7827990494647743  0.8058928820142857  1.0000
  C   C242      1.0  0.9775801691160553  0.8056222027365045  0.7827684551088848  1.0000
  C   C243      1.0  0.996348398528788  0.775638185870443  0.8400169375691424  1.0000
  C   C244      1.0  0.9733642306005839  0.8092699671824674  0.8618863689028685  1.0000
  H   H273      1.0  0.9351567178898225  0.7731846590024443  0.8350125664099957  1.0000
  H   H274      1.0  0.9376820948755932  0.771084694622407  0.7754690882436608  1.0000
  H   H275      1.0  0.920996591966794  0.7957454955757303  0.7931523958279253  1.0000
  H   H276      1.0  0.0016595635865546132  0.8133362540815429  0.7939152997654604  1.0000
  H   H277      1.0  0.9754435596029781  0.7943120402295282  0.7517828684946488  1.0000
  H   H278      1.0  0.9600844502997037  0.8194858909267294  0.7695345016262973  1.0000
  H   H279      1.0  0.02060339084822216  0.7830383443487507  0.8513554470002107  1.0000
  H   H280      1.0  0.9952388147790182  0.762944809228622  0.8117476846284978  1.0000
  H   H281      1.0  0.993627369766113  0.7665494449152123  0.8713959841760625  1.0000
  H   H282      1.0  0.9966715314211676  0.8180438686027899  0.8746400238323735  1.0000
  H   H283      1.0  0.9701617197559863  0.8005105952571124  0.8933286502406697  1.0000
  H   H284      1.0  0.9545494596929218  0.8224667798983785  0.8504149600340898  1.0000
  N   N14       1.0  0.17812706326821662  0.20312496314835118  0.017176909767490804  1.0000
  C   C245      1.0  0.1450719310802734  0.20894733566900772  0.9886737798584819  1.0000
  C   C246      1.0  0.1994592762226271  0.2218451958208331  0.014778394704698905  1.0000
  C   C247      1.0  0.1879014803126328  0.18233835778649166  0.9978186809151062  1.0000
  C   C248      1.0  0.17999197970648795  0.19933929880364112  0.0674256596632667  1.0000
  H   H285      1.0  0.1428003794411346  0.21175214226680789  0.9505522048385993  1.0000
  H   H286      1.0  0.13684162706847147  0.22460309989834204  0.0020301054804010847  1.0000
  H   H287      1.0  0.1283228096774889  0.19510677506960902  0.9893431605482279  1.0000
  H   H288      1.0  0.22481787607418824  0.2175251028977342  0.03345861339785273  1.0000
  H   H289      1.0  0.19700918699859576  0.2262319206062528  0.9770845038353981  1.0000
  H   H290      1.0  0.19408797352267532  0.23739371862807696  0.031935305546842485  1.0000
  H   H291      1.0  0.21266074663051684  0.17729409569567278  0.018406846590475767  1.0000
  H   H292      1.0  0.18661134011345445  0.1845627684904599  0.9598187290612351  1.0000
  H   H293      1.0  0.17207840421362802  0.16790767037064455  0.9986240962960766  1.0000
  H   H294      1.0  0.16416814280339134  0.1852749684000962  0.0703692022086661  1.0000
  H   H295      1.0  0.17258399952141085  0.21469260395738615  0.08301984351164592  1.0000
  H   H296      1.0  0.204630425903437  0.1949865303540227  0.09007162266335096  1.0000
  N   N15       1.0  0.8755903150167904  0.14921602492111194  0.865772974734367  1.0000
  C   C249      1.0  0.8757481535835068  0.1292305127417444  0.8357708261017164  1.0000
  C   C250      1.0  0.8463099357777888  0.14914370003360808  0.8792100775599747  1.0000
  C   C251      1.0  0.8766907479324543  0.1699691370910535  0.8386342196611615  1.0000
  C   C252      1.0  0.903591977720273  0.1485000516522627  0.909608729950557  1.0000
  H   H297      1.0  0.8749335166377563  0.11323846650285728  0.8551886978382224  1.0000
  H   H298      1.0  0.8974493591002964  0.12867691157049688  0.824776457059338  1.0000
  H   H299      1.0  0.8549382165708094  0.12921499537385273  0.8023961677613862  1.0000
  H   H300      1.0  0.8246424111576315  0.14967089647780063  0.8471233623157698  1.0000
  H   H301      1.0  0.8449466421650337  0.13363449504936442  0.8998534516298571  1.0000
  H   H302      1.0  0.8453778975973614  0.1639139221359338  0.9020572799027894  1.0000
  H   H303      1.0  0.8772847410493911  0.18539238919879786  0.860442453285622  1.0000
  H   H304      1.0  0.8556276438155276  0.1713721185532727  0.8058462680318426  1.0000
  H   H305      1.0  0.8981836417792292  0.17025450987235002  0.826997474064948  1.0000
  H   H306      1.0  0.9034400080361712  0.13312738443243236  0.9312175518693526  1.0000
  H   H307      1.0  0.9041895442079262  0.16332089896657392  0.9330537327000074  1.0000
  H   H308      1.0  0.9262468062985222  0.1484675734421429  0.9011042509960827  1.0000
  N   N16       1.0  0.9386834125824972  0.1652447723399733  0.5703322552028688  1.0000
  C   C253      1.0  0.9561210226214601  0.15973112472410905  0.6208293336128203  1.0000
  C   C254      1.0  0.9229817319934881  0.14471882166416744  0.545220508118985  1.0000
  C   C255      1.0  0.9611753783952107  0.17384926596579292  0.5470255248368063  1.0000
  C   C256      1.0  0.9144163339942911  0.1827193505448468  0.5681739742792092  1.0000
  H   H309      1.0  0.9698418020390319  0.17449303061338745  0.6400423935495068  1.0000
  H   H310      1.0  0.9733957186073392  0.14573046339994025  0.6237877049555249  1.0000
  H   H311      1.0  0.9395970919654616  0.15460184178550126  0.6403920444537985  1.0000
  H   H312      1.0  0.9092792510950204  0.14832817398154585  0.5070959544403967  1.0000
  H   H313      1.0  0.9404457079019867  0.13114176493400864  0.5457795211379135  1.0000
  H   H314      1.0  0.9057016991486233  0.13785547748007865  0.5617567398816194  1.0000
  H   H315      1.0  0.9487144097938031  0.17817274954235401  0.5088598736763756  1.0000
  H   H316      1.0  0.9798962596436163  0.16113753988883678  0.5480448578577134  1.0000
  H   H317      1.0  0.9733687139511314  0.1894026558314444  0.5650678339297164  1.0000
  H   H318      1.0  0.8972369659476489  0.17689103171391893  0.5858761114488588  1.0000
  H   H319      1.0  0.9002035733500654  0.18687693421664708  0.5305480889859298  1.0000
  H   H320      1.0  0.9253709136120395  0.19861136301988003  0.5860329977694966  1.0000
  N   N17       1.0  0.596167554336213  0.7332209127460921  0.6800958536587096  1.0000
  C   C257      1.0  0.595517833973071  0.711680122371111  0.7048674178264555  1.0000
  C   C258      1.0  0.5744225503420459  0.7495787370072948  0.6914846039194632  1.0000
  C   C259      1.0  0.5858011445638752  0.7292675590495379  0.6279647625198397  1.0000
  C   C260      1.0  0.6288925238229413  0.7422606070694467  0.6960523473141418  1.0000
  H   H321      1.0  0.5711148797920178  0.7045042110991436  0.6946393703483594  1.0000
  H   H322      1.0  0.6034967160979707  0.7141167833344175  0.744119070461397  1.0000
  H   H323      1.0  0.6117460231314432  0.698875810290788  0.697464360804911  1.0000
  H   H324      1.0  0.574165533419359  0.7660680169494332  0.6734557091081909  1.0000
  H   H325      1.0  0.5495953348626106  0.7431166442856207  0.6806029860119098  1.0000
  H   H326      1.0  0.5814294937074405  0.7528746771273123  0.7305941440422947  1.0000
  H   H327      1.0  0.5860193954640134  0.7451827457053606  0.6081116770649294  1.0000
  H   H328      1.0  0.5612194700753432  0.7223864905053757  0.6148853522176289  1.0000
  H   H329      1.0  0.6017241276919968  0.7169526564017975  0.6182892812359584  1.0000
  H   H330      1.0  0.6304351135962788  0.758563246010094  0.6783488127527596  1.0000
  H   H331      1.0  0.645945059471732  0.7302345282831884  0.6883107032691056  1.0000
  H   H332      1.0  0.6376446577039494  0.7452235202031913  0.7353545200415424  1.0000
  N   N18       1.0  0.3398780683146924  0.3772989777889986  0.981359143625402  1.0000
  C   C261      1.0  0.3662538730578423  0.3609154026374656  0.9899452596325555  1.0000
  C   C262      1.0  0.3470721511103723  0.39750026898207613  0.9574550321204623  1.0000
  C   C263      1.0  0.3361670857624527  0.3839205763040112  0.027516322862920814  1.0000
  C   C264      1.0  0.3102254515657814  0.3668103068290193  0.9505493143533705  1.0000
  H   H333      1.0  0.36304359574796335  0.3461734655332554  0.011189310156664006  1.0000
  H   H334      1.0  0.38940319570499454  0.3688567865769908  0.009604979196880222  1.0000
  H   H335      1.0  0.36834181719549264  0.35428380129032766  0.9558876161730784  1.0000
  H   H336      1.0  0.32778151789585475  0.41032578478062975  0.9505445878032026  1.0000
  H   H337      1.0  0.36965187650629766  0.4055655556374039  0.9796112799732796  1.0000
  H   H338      1.0  0.35007001867413523  0.39306937337512393  0.922528156786638  1.0000
  H   H339      1.0  0.3158914592527214  0.39579989604400545  0.022489164125628423  1.0000
  H   H340      1.0  0.35794040055580983  0.3924137943220088  0.05089006531789253  1.0000
  H   H341      1.0  0.33189711116045084  0.36896763053168347  0.04744437437292867  1.0000
  H   H342      1.0  0.28971916606940273  0.37865668297167787  0.9433621723626404  1.0000
  H   H343      1.0  0.3043979647947818  0.3514214184148286  0.9676050308472425  1.0000
  H   H344      1.0  0.31243201416256666  0.36171494316361674  0.9153938675110612  1.0000
  N   N19       1.0  0.7283415401379115  0.12381159123484729  0.7014218183209877  1.0000
  C   C265      1.0  0.6981258953836548  0.11365966584981024  0.6715895776916125  1.0000
  C   C266      1.0  0.7500455727231493  0.10586020749056951  0.7281204022555718  1.0000
  C   C267      1.0  0.7219777304132412  0.13995673013539697  0.7354629818482269  1.0000
  C   C268      1.0  0.7432362255350071  0.13577931697765638  0.6703593461189553  1.0000
  H   H345      1.0  0.6811832433706198  0.12682978778614223  0.6512299798315998  1.0000
  H   H346      1.0  0.6863286090366504  0.10430422913174583  0.6937889914392905  1.0000
  H   H347      1.0  0.7021009560352097  0.10158469838192581  0.6451250644588454  1.0000
  H   H348      1.0  0.754587292556083  0.09300987630041616  0.7034811889137699  1.0000
  H   H349      1.0  0.7736416067017637  0.11282891049405162  0.7492592058869484  1.0000
  H   H350      1.0  0.740174670151741  0.09691618650798084  0.7532193797995289  1.0000
  H   H351      1.0  0.7443396815069088  0.14763243747661128  0.7590775902305821  1.0000
  H   H352      1.0  0.7101235889926625  0.13168420810783898  0.7589255480422447  1.0000
  H   H353      1.0  0.7063014516562841  0.15403794796245815  0.716468780244334  1.0000
  H   H354      1.0  0.7654302986457598  0.1444238158854607  0.6917102371639329  1.0000
  H   H355      1.0  0.7271963104768018  0.14899149205536047  0.6483336514676511  1.0000
  H   H356      1.0  0.7496421406732756  0.12393957985275435  0.6455827286164082  1.0000
  N   N20       1.0  0.7009609214489576  0.2785466766027885  0.8511277907511406  1.0000
  C   C269      1.0  0.7065623060144861  0.26346623329677143  0.8146679739024656  1.0000
  C   C270      1.0  0.7272777360084706  0.2948799365027544  0.8676207560552526  1.0000
  C   C271      1.0  0.6993969533581775  0.26496425887185326  0.8921534677430673  1.0000
  C   C272      1.0  0.67058956378907  0.29084657277215276  0.8303075559491407  1.0000
  H   H357      1.0  0.6872217166167099  0.25084786875975934  0.801536136193678  1.0000
  H   H358      1.0  0.729051380809022  0.2536449178625933  0.8293880615609897  1.0000
  H   H359      1.0  0.7079404101358279  0.273056522667126  0.783088695178268  1.0000
  H   H360      1.0  0.723702338964889  0.306496244674153  0.8951436654642383  1.0000
  H   H361      1.0  0.7504791034898376  0.28610439743403543  0.883813930125724  1.0000
  H   H362      1.0  0.7292106794433362  0.3054104372832205  0.8375367006076038  1.0000
  H   H363      1.0  0.6954156818875934  0.2757240563424142  0.9206748384405687  1.0000
  H   H364      1.0  0.7214137277167039  0.2548193741535405  0.9081206885644877  1.0000
  H   H365      1.0  0.6792423252435543  0.2530094238853809  0.8809541467782811  1.0000
  H   H366      1.0  0.6652701177470774  0.3019465968294823  0.8572909935047782  1.0000
  H   H367      1.0  0.6501970841903459  0.2790119702637484  0.8174694757823817  1.0000
  H   H368      1.0  0.6708171797983755  0.3014929764415248  0.7994755234296811  1.0000
  N   N21       1.0  0.9238446192171189  0.035179136790246535  0.09614433129262423  1.0000
  C   C273      1.0  0.9107332233604423  0.03589838182983929  0.043385439709265006  1.0000
  C   C274      1.0  0.9492855293353559  0.052179843362814005  0.11295077674539855  1.0000
  C   C275      1.0  0.9371347358710489  0.01247885320856934  0.1115585117905582  1.0000
  C   C276      1.0  0.8982838482981746  0.04017496092882733  0.11663757756784898  1.0000
  H   H369      1.0  0.9292826106160357  0.03185945413117386  0.026776003665038628  1.0000
  H   H370      1.0  0.9011375034468981  0.052918778015068835  0.030397771849292266  1.0000
  H   H371      1.0  0.8911080008954695  0.023589561572117557  0.02936988405006069  1.0000
  H   H372      1.0  0.9596803140505329  0.05220676978405914  0.1526013438800764  1.0000
  H   H373      1.0  0.9690075684931183  0.048862813548616435  0.09822838692808578  1.0000
  H   H374      1.0  0.9401982479115075  0.06949163357153187  0.1016963482419111  1.0000
  H   H375      1.0  0.9472218223139802  0.011319140356238266  0.15118371658841867  1.0000
  H   H376      1.0  0.9566489737732978  0.00827578393313999  0.09690312560239711  1.0000
  H   H377      1.0  0.9187352124043293  0.9991651918175882  0.0990898876848556  1.0000
  H   H378      1.0  0.8873373548887362  0.056964255647735884  0.10482345818755912  1.0000
  H   H379      1.0  0.9073931157683259  0.04043102465880288  0.15642052889259217  1.0000
  H   H380      1.0  0.8788840538187825  0.027497614558292804  0.10544312269475209  1.0000
  N   N22       1.0  0.5226930094365736  0.15487923966543546  0.8443806347024182  1.0000
  C   C277      1.0  0.49021445606522945  0.15523142484485125  0.8094686806761007  1.0000
  C   C278      1.0  0.5290440454508827  0.13281920556831237  0.8690281419278556  1.0000
  C   C279      1.0  0.5257176503122974  0.17298777693670228  0.8800561081368212  1.0000
  C   C280      1.0  0.5459628354618533  0.15851013092398622  0.8190197102209268  1.0000
  H   H381      1.0  0.48499428695507585  0.17164108039234927  0.7899576869013346  1.0000
  H   H382      1.0  0.4719045558833356  0.15278763086178987  0.8272632168053253  1.0000
  H   H383      1.0  0.48704171579928834  0.1417445274764587  0.7820726935602599  1.0000
  H   H384      1.0  0.5273091933206124  0.11874555721501687  0.8433356509043491  1.0000
  H   H385      1.0  0.5534648127101752  0.13223251990829626  0.8956670430411973  1.0000
  H   H386      1.0  0.5119662618925869  0.12942515008989242  0.8886105203715787  1.0000
  H   H387      1.0  0.5501423558756082  0.17345268067833952  0.9065157987801913  1.0000
  H   H388      1.0  0.5088422174443571  0.17058563903258145  0.9003891070650618  1.0000
  H   H389      1.0  0.5208130620314212  0.18988020106025583  0.8627992972158657  1.0000
  H   H390      1.0  0.5421983653177046  0.1750943909180912  0.8004990434210776  1.0000
  H   H391      1.0  0.5441443918049453  0.14536390560448756  0.7913577585795343  1.0000
  H   H392      1.0  0.5707538637569883  0.15813518000839352  0.8441627289341603  1.0000
  N   N23       1.0  0.24757638003103125  0.5946380656335647  0.508691264288198  1.0000
  C   C281      1.0  0.23201872198793466  0.6167880293468909  0.5083690964738939  1.0000
  C   C282      1.0  0.27982438940352616  0.5950983826894796  0.544126938833068  1.0000
  C   C283      1.0  0.24964116041487264  0.5899437027255456  0.4606271707796437  1.0000
  C   C284      1.0  0.2288724964171299  0.5767510023699812  0.5218459560551455  1.0000
  H   H393      1.0  0.20762702941111244  0.6171752466770546  0.4820107129516244  1.0000
  H   H394      1.0  0.24571337770156626  0.6306523532677024  0.49866085782692393  1.0000
  H   H395      1.0  0.2303010861786066  0.6209907823070687  0.5441769335715643  1.0000
  H   H396      1.0  0.2933410234940768  0.5793204865344677  0.543410835514503  1.0000
  H   H397      1.0  0.29382269232530983  0.6094850262777878  0.5377192619834404  1.0000
  H   H398      1.0  0.27893016934038717  0.5971313247790976  0.5810318545092288  1.0000
  H   H399      1.0  0.2627012600902481  0.5739407612878809  0.45984996258660515  1.0000
  H   H400      1.0  0.26240667209877117  0.603602399873136  0.4488404171590267  1.0000
  H   H401      1.0  0.22569991242271645  0.5886910982974141  0.43322989369563497  1.0000
  H   H402      1.0  0.22704113602798126  0.5797411108141551  0.5581022946143249  1.0000
  H   H403      1.0  0.24016099632630697  0.5598808062796592  0.5224818968473838  1.0000
  H   H404      1.0  0.20430424192974259  0.5759258571957788  0.4960593562051445  1.0000
  N   N24       1.0  0.3767136491526628  0.6377352149932326  0.311254168466483  1.0000
  C   C285      1.0  0.35707459134896957  0.6509841273428552  0.2697790006276281  1.0000
  C   C286      1.0  0.4011502269515043  0.6524534087680348  0.3434237058762316  1.0000
  C   C287      1.0  0.39235466885820114  0.6189466104238075  0.29441430028895565  1.0000
  C   C288      1.0  0.35621708493223153  0.6285216612654936  0.3373565890730577  1.0000
  H   H405      1.0  0.3453214048214124  0.6655592423486939  0.2810587662557047  1.0000
  H   H406      1.0  0.33798565632918637  0.6404692346794083  0.24529061193323823  1.0000
  H   H407      1.0  0.3714899095729626  0.6575141687817553  0.24807192129985645  1.0000
  H   H408      1.0  0.4163014377996807  0.6429545750153105  0.3751517265408724  1.0000
  H   H409      1.0  0.41702161969744916  0.659643194643197  0.3247270582021718  1.0000
  H   H410      1.0  0.3901277371047017  0.666802067853675  0.3568334493849495  1.0000
  H   H411      1.0  0.40722935774424823  0.6251535322001769  0.27310617797775927  1.0000
  H   H412      1.0  0.3745188493673841  0.6073748476305904  0.2707465326495346  1.0000
  H   H413      1.0  0.4076839981695848  0.6086880656163821  0.3246605526672503  1.0000
  H   H414      1.0  0.337304414265495  0.6175245698506107  0.3138957115650506  1.0000
  H   H415      1.0  0.344173389170707  0.6421617201813682  0.35106565436996373  1.0000
  H   H416      1.0  0.36994636211123655  0.6180065345246624  0.3684253295516983  1.0000
  N   N25       1.0  0.4169157118737087  0.4908633622446803  0.8423673972779961  1.0000
  C   C289      1.0  0.38567603270981027  0.4932195877443797  0.8047571710267272  1.0000
  C   C290      1.0  0.4352069770191942  0.47239499443395305  0.8296599873812593  1.0000
  C   C291      1.0  0.4120935387923751  0.4856992652649874  0.8884500146261378  1.0000
  C   C292      1.0  0.43464048347434775  0.5122358630226972  0.8466782258225264  1.0000
  H   H417      1.0  0.3717687749475954  0.4773185136244294  0.8001386918672253  1.0000
  H   H418      1.0  0.3883532061150789  0.49755928598824123  0.769636783847424  1.0000
  H   H419      1.0  0.3712081940814251  0.5068816617466388  0.8137132536218389  1.0000
  H   H420      1.0  0.4593312955722036  0.47078532200686835  0.8564096843944394  1.0000
  H   H421      1.0  0.42332136854922164  0.45576851481332514  0.8280915146025845  1.0000
  H   H422      1.0  0.43848750545827486  0.47535576922531925  0.7943980507527258  1.0000
  H   H423      1.0  0.3988502441325239  0.46965265131890127  0.8866151554955264  1.0000
  H   H424      1.0  0.3985323689806627  0.49939166001529317  0.8992056242337662  1.0000
  H   H425      1.0  0.4351386691390597  0.4838675959493388  0.91767027436071  1.0000
  H   H426      1.0  0.4579506759683136  0.5113521219176547  0.8757637127711048  1.0000
  H   H427      1.0  0.42107871960950105  0.5265795203714798  0.855018382031123  1.0000
  H   H428      1.0  0.4394423628029934  0.5164391268838552  0.8130054962484221  1.0000
  N   N26       1.0  0.5576617655689527  0.5803492864198698  0.8849625193332272  1.0000
  C   C293      1.0  0.589790543966096  0.5808991899091095  0.8803836283216131  1.0000
  C   C294      1.0  0.5604541254055626  0.5783454723331872  0.9360021212187941  1.0000
  C   C295      1.0  0.539956925874387  0.5607655447725046  0.8585145385282806  1.0000
  C   C296      1.0  0.5404730710614093  0.6013843303738666  0.8650742829810713  1.0000
  H   H429      1.0  0.6035097643488103  0.5653396229898447  0.8953804415820574  1.0000
  H   H430      1.0  0.6036421934788504  0.595606833765867  0.8999453874572886  1.0000
  H   H431      1.0  0.5886488654119837  0.5823843634098806  0.8423384188363693  1.0000
  H   H432      1.0  0.5367185985477407  0.5788999120755045  0.9410339141337786  1.0000
  H   H433      1.0  0.5718764307409865  0.5621060012771137  0.9515687682670272  1.0000
  H   H434      1.0  0.57494936551608  0.5922227901445417  0.9575870362989382  1.0000
  H   H435      1.0  0.5372125425939864  0.5616680864038326  0.8198064001066675  1.0000
  H   H436      1.0  0.515763761928715  0.5598292700881911  0.8619128546632657  1.0000
  H   H437      1.0  0.5522191284787896  0.544579993053181  0.8727556447363422  1.0000
  H   H438      1.0  0.5166230099480198  0.6020995080476523  0.8698677605994347  1.0000
  H   H439      1.0  0.5368647581970774  0.6030892649293017  0.8261987869339318  1.0000
  H   H440      1.0  0.5538863025310533  0.6165105814391525  0.8829267664317403  1.0000
  N   N27       1.0  0.4209048820422678  0.6839240633602001  0.8448295548434499  1.0000
  C   C297      1.0  0.4387763091555149  0.6859048931328334  0.896398592009353  1.0000
  C   C298      1.0  0.38723812986875294  0.6901378071835497  0.8360855398195834  1.0000
  C   C299      1.0  0.42272686393687836  0.6604142068053432  0.8291330810348746  1.0000
  C   C300      1.0  0.4348204523932806  0.6991863552562996  0.817472353181718  1.0000
  H   H441      1.0  0.42959802472423486  0.6740711354708991  0.9180416138794143  1.0000
  H   H442      1.0  0.4375502403304522  0.7033318514064573  0.9097687023797587  1.0000
  H   H443      1.0  0.4643338638199704  0.6816421741240721  0.904010542573214  1.0000
  H   H444      1.0  0.37598053146317006  0.6789141506519917  0.8560655631581287  1.0000
  H   H445      1.0  0.3848649787619799  0.7078348610021636  0.8472122286927017  1.0000
  H   H446      1.0  0.3730625026369264  0.6887922045435523  0.7973997936211288  1.0000
  H   H447      1.0  0.4082501155299224  0.6580983617995477  0.791108026881684  1.0000
  H   H448      1.0  0.41426957080784166  0.6481685345425903  0.8507916537016667  1.0000
  H   H449      1.0  0.44749806323017366  0.655496492088379  0.8322137097172255  1.0000
  H   H450      1.0  0.43422111546698194  0.7170890733590475  0.828562641878437  1.0000
  H   H451      1.0  0.42170327828439236  0.698156581649449  0.7784554363158992  1.0000
  H   H452      1.0  0.46010932294406165  0.6947676466882106  0.8225903482173856  1.0000
  N   N28       1.0  0.36186066235946357  0.524837950053874  0.08277049434411961  1.0000
  C   C301      1.0  0.3886770882139997  0.5173072365249742  0.1244489690129772  1.0000
  C   C302      1.0  0.3379752609119772  0.5066585547425936  0.06845462383058831  1.0000
  C   C303      1.0  0.37369130281664253  0.5302505712930248  0.04268781282744573  1.0000
  C   C304      1.0  0.3470700929038105  0.545158585603745  0.0957528020986884  1.0000
  H   H453      1.0  0.38078947736282354  0.5139301059362659  0.15599079006704064  1.0000
  H   H454      1.0  0.4076698432812176  0.5302777839206374  0.13515137354465878  1.0000
  H   H455      1.0  0.3998110355018593  0.5015948950597281  0.11650057928652618  1.0000
  H   H456      1.0  0.3286238534466157  0.5023491086848552  0.09811470801526019  1.0000
  H   H457      1.0  0.3172733921402343  0.5117723067967602  0.03729014768274462  1.0000
  H   H458      1.0  0.3482791340584434  0.49097592953647734  0.058712345810677045  1.0000
  H   H459      1.0  0.35414567621430443  0.5360456428358142  0.010590150688669824  1.0000
  H   H460      1.0  0.38536669945681595  0.5153970892942593  0.03225206670418685  1.0000
  H   H461      1.0  0.3916983105557769  0.5440024637650572  0.05256521658835582  1.0000
  H   H462      1.0  0.32556855411811303  0.5506058084445621  0.06626712402539217  1.0000
  H   H463      1.0  0.36373402249939385  0.5596190874639297  0.10402364995974399  1.0000
  H   H464      1.0  0.3397861198236736  0.5420933564303265  0.12788794346577004  1.0000
  N   N29       1.0  0.2309084700303616  0.2575672743985353  0.478722896554843  1.0000
  C   C305      1.0  0.25306987523243296  0.24073275573377192  0.5087556076290249  1.0000
  C   C306      1.0  0.19941925845167616  0.2550665820165193  0.4849701978028173  1.0000
  C   C307      1.0  0.22831623194417502  0.253968084862357  0.42809809121776565  1.0000
  C   C308      1.0  0.24302618583688884  0.28053347101812315  0.4933471149412497  1.0000
  H   H465      1.0  0.27705471325202863  0.24204181720171172  0.5048062444446673  1.0000
  H   H466      1.0  0.24461658800879643  0.2231920509768089  0.4990371450243134  1.0000
  H   H467      1.0  0.2559207890631708  0.24310916744856476  0.5472961993712532  1.0000
  H   H468      1.0  0.18205944660445844  0.26759742162604516  0.46314123862544804  1.0000
  H   H469      1.0  0.1895325427773099  0.23790675059711439  0.47441912162175504  1.0000
  H   H470      1.0  0.20101585862470905  0.25765682737903045  0.5231213166217824  1.0000
  H   H471      1.0  0.21189568805181136  0.26643632772018333  0.4043107138742198  1.0000
  H   H472      1.0  0.21943570300270931  0.23675444681029023  0.4157925085740968  1.0000
  H   H473      1.0  0.2519386886360651  0.2558292764551652  0.4227769513732658  1.0000
  H   H474      1.0  0.22695762822542154  0.2936994415130425  0.47142787541773756  1.0000
  H   H475      1.0  0.2668342048058634  0.2829846211522333  0.48921565489172575  1.0000
  H   H476      1.0  0.24536038688328649  0.28382210379033  0.5314647665484393  1.0000
  N   N30       1.0  0.4586650082062489  0.2980341797501317  0.7859137942402797  1.0000
  C   C309      1.0  0.4297222014749547  0.28570384706844065  0.7583490710615295  1.0000
  C   C310      1.0  0.46644492512743135  0.31487269508656013  0.7546028316284941  1.0000
  C   C311      1.0  0.48542454416883096  0.2819679498865807  0.803932042168525  1.0000
  C   C312      1.0  0.4530030557351212  0.3096834491657375  0.8266883190916365  1.0000
  H   H477      1.0  0.4329688759080634  0.2769397459411362  0.7268732476938805  1.0000
  H   H478      1.0  0.4090954248812325  0.2973875598313368  0.7446336856581265  1.0000
  H   H479      1.0  0.42318691608389647  0.27261636969758973  0.7804639044076841  1.0000
  H   H480      1.0  0.48796536426051973  0.32472114218659864  0.77432557161911  1.0000
  H   H481      1.0  0.4708717152740878  0.3066640853247345  0.7234293168811653  1.0000
  H   H482      1.0  0.4465446332314239  0.3270986403655779  0.7400743842470333  1.0000
  H   H483      1.0  0.5077293119567149  0.29078859323207196  0.8246176343901042  1.0000
  H   H484      1.0  0.4900904313587093  0.27261455333251094  0.7741449533985244  1.0000
  H   H485      1.0  0.48045948230836943  0.2692518179970681  0.8282601060498912  1.0000
  H   H486      1.0  0.4743999919156499  0.3192181446136045  0.8481092699621492  1.0000
  H   H487      1.0  0.44739261844823797  0.29753029664421415  0.8514941978693493  1.0000
  H   H488      1.0  0.4328630194838512  0.321890268273443  0.814539929863012  1.0000
  N   N31       1.0  0.8420794870760885  0.7053421308685925  0.7896850781132733  1.0000
  C   C313      1.0  0.8767730562631192  0.7068118430056319  0.7991595680666546  1.0000
  C   C314      1.0  0.8257246197796284  0.7046946920657792  0.7375449443737732  1.0000
  C   C315      1.0  0.8310492507954885  0.7252735513453852  0.8102054051505682  1.0000
  C   C316      1.0  0.8346742613949952  0.6845888276865643  0.811590360659593  1.0000
  H   H489      1.0  0.8900391978142929  0.7074334478614677  0.8381206228736503  1.0000
  H   H490      1.0  0.8830488151561572  0.7221543001383924  0.782468774936013  1.0000
  H   H491      1.0  0.8858199806889161  0.6920803820072806  0.7838291498300193  1.0000
  H   H492      1.0  0.834162538854094  0.6903315554218887  0.7203708003145963  1.0000
  H   H493      1.0  0.7995340835767171  0.7032223004681687  0.7288403031137286  1.0000
  H   H494      1.0  0.8303096565812552  0.7203250919987245  0.7202691223410265  1.0000
  H   H495      1.0  0.8049280887932945  0.7247345720385319  0.8035306094557151  1.0000
  H   H496      1.0  0.8358383397729756  0.7412576401777733  0.793986956994303  1.0000
  H   H497      1.0  0.8429476648513464  0.7264779873884513  0.8494795575088839  1.0000
  H   H498      1.0  0.808629213300633  0.6830664612022795  0.8050765295621669  1.0000
  H   H499      1.0  0.8467172232204572  0.6844514304680775  0.8509668833069917  1.0000
  H   H500      1.0  0.842486377566698  0.6692397921319161  0.7965549961281637  1.0000
  N   N32       1.0  0.0056346234712236765  0.1167484736017821  0.8061788341415662  1.0000
  C   C317      1.0  0.014736941081576749  0.10413386211741758  0.851669552245775  1.0000
  C   C318      1.0  0.9720172976359928  0.12392839942110816  0.7934677598615584  1.0000
  C   C319      1.0  0.009621894215706472  0.10199880371666553  0.7681381382177275  1.0000
  C   C320      1.0  0.02616537767388838  0.13681866181505684  0.8116733260060012  1.0000
  H   H501      1.0  0.0017116587373333658  0.08795544552359355  0.8478685578046853  1.0000
  H   H502      1.0  0.009182412689023645  0.1139064473859451  0.880087764514152  1.0000
  H   H503      1.0  0.040559724526529006  0.09999148228789569  0.864594172673482  1.0000
  H   H504      1.0  0.9559721748482876  0.10916422811245093  0.7898040696469759  1.0000
  H   H505      1.0  0.9681864295399912  0.13524531517295219  0.8212495908766718  1.0000
  H   H506      1.0  0.9641357952511341  0.13333514501102525  0.7590488893857814  1.0000
  H   H507      1.0  0.0031545416298199846  0.11098310899180694  0.7332936321385637  1.0000
  H   H508      1.0  0.9942320507438058  0.08674747970236595  0.763159933321363  1.0000
  H   H509      1.0  0.034640093946724626  0.096011139028894  0.7770403473043446  1.0000
  H   H510      1.0  0.051784109981402926  0.1320850855084768  0.8219647088390086  1.0000
  H   H511      1.0  0.02358372134584341  0.14822673022049743  0.8401396242847853  1.0000
  H   H512      1.0  0.020173434943890012  0.1467845189809462  0.778032888095932  1.0000
