data_image0
_chemical_formula_structural       CH3CH2FeS2FeS2FeHFeS5CHCFeHSHNCHSH2C2SH4CH2C7H4C3FeHCH3CHC3NH3CFeH3CH3C4HCH2CHCHSNC4H8CH2C2H3CHCH2CHSHCNH4FeHCHCHC2H3CHSHCH6CSHSNCH2CSH3C2HNCHSHFeSHCH3FeS2HFeSHSH2FeS2FeHSHFeS2FeSCFeSFeS3FeS2FeS2FeSFeS3CFeC7H4C2HC2H2C6H5C7HCH2C6H6Fe2CSCHCHCHCN2H2C6H4NH4C2H3CH2CHCHC3HCH3CH2NC2HCHCH4SH4CH2CH4C2H3CHCH3SH3C2H7NC4H12SHCH5SH6N2HCH2CH3CH2CSCH2C2H2SCFeSHFeS2FeS2FeSFeS3FeS2FeSH2SH2SH2SFeSCFe2S2FeSFeSFeS3C2H3C6H5SC6H5CH4CH2FeCHSHCH2FeH3C6H4CHC2SH2NH3CH2C6H4C5HCHC3H9CH4C2H7C3H6NHSHSHCH2CHCH3SH2CHCHCHSH3SC5H2NH2NC4H6CNHNHCH3C2H2CNCH2FeSH4CH3CHNSH2SCH2CFeCH2SH3C4H2FeCHCSCSCH3CH2CH6FeC3H2S2C2H3FeHSCHCHNC2H3CH2SH2CNHCH2FeCSH2CFeS2FeS2FeSFeS3CHCHC6H6CH2CH2C2H2C3NSH3C3FeCFeH2CH3CH2CH3CH2C2HSNH2CSH3CHCHCH2CHCNCH3CHC2NC2H4SH3CH2CH4C2H4SCH2NH2CH5C3HSCHCH4N2SH7CH3CH3CFeHC2SCHCFeSH3FeS2FeHSFeS2FeH2S2FeS2FeS2FeHFeS3FeS2FeSHFe2SHSC6H4C6H4CH3C2HCH2CH3FeCHSC7SHSH3CNH5C2H2CH2C3SC3H5C5H4CSCFeHC2H3SH2CHS2HN2CHCH2CHFeHSH7CFeCHSHSH3SHNHNCH2CH2CH3SHCHCHNC4H15CFeSHFeCH2SCHC3H2CHCHNCH3CH9C3H5CSCFeS2FeHFeSC2S2CS2C2HC2FeS2FeS2FeCFeS3HCHFeS2HCHSHFeS2FeS2FeSFeS3C6H4C6H9CHFeH6FeHCHC5H4C6H4CHSC7H3NC3H6SH3CHC2HCSHCH2C2HC2H2NC4H12FeCHCH2NC4H13SFeHCN2H3CHCFe2C2H2SH3S2H4NSH5CHC3HCHC5HCH2NHC3NC4H9S2HSHCH7C2NHNCHCH3FeHSH6SCHFeS2FeS2FeSFeHS2FeS2FeS2FeSFeS3FeSFeS2FeSFeS3FeS3FeSFeHS2C2HFeC3H4SHC6H4C6H4C6H4C2HNC3SH2C6H7C2H2CHNHC2H7CNCFeCHC6H6SH2NC4H13CHC2H8NC4H12NC4H10CHC2H6CH4C2NC5HCFeH3SH2C2H2NHCHCHC2HCH2CH2CSHCH4SC2NHFeS2FeSHS2H2FeSCNH2FeSHS2FeS2FeCSFeSC2S2HC2SCH4CSHCHC7H9CHNSH3C2NH4C7H4SH3CHSCH5CFeHCH3CHCHFeH3NCFeH5C2SH2CHC2H3FeHCHFeHCH4FeH3CHCH4CHCNSCH2FeS2FeS2FeHFeS3FeS2FeSCFeSFeS3FeSFeS2FeS3FeSFeS2FeSFeSFeS2CH2CHC7H4C6H4C6H4C6H4C4H7C6H6CH2CH3CNH3C2H6CNCHCS2CHSHCH6CH3SH2CHCHCH4C3HFeSHCNC4H12SH2SNC4H2CH2CHFeH3NH2C2H7CHNH2CHC2HCHCHCNCHCNSC2H2C3H2NC4H12CHCH2CH2CH9SHFeH3SH3NH2CHC2HCSH4CHCNCH2FeHCH2SC2S2HC2HC4HCH4CHFeCS2H2CH2CH4C2SHC2H3CH2C2H3CH4C2SHCH4CH3CH4FeS2FeS2FeSFeS4FeS2FeSFeS2FeS2FeS2FeSFeS3HCH2SHFeCFeS2FeS3C4H7C3NH5C6H4C6H4C6H5NC2H4CHCNH2SH2NH2CHC6H4CH3C6H3CHCH5SHC2NC4FeCHCH7C2H2NHCHCHCSH3SH3CHCHCHCH2C2H7SH2C2NC4H12CH4CNH3CNHCH2NHCH2NH2CHC2HC2SCH3C2S2H4CFeC2HFeH3CFeHCH2SCHC2H3CH2CH2C3H4CHC3H3C2H2S2HCFeSH5SHFeS3FeSCFeS2FeSFeS3FeSH5C6H4C3NHFeHCH2C2H3CSH2C7H4S2CFeCH4C3HCNH2CHCH3CNHCH3SH2SH5CHCH4SHCHCNCHCH5NCH5C2HC2H4SCHCH3C2H2CHCFeHCH4CS2H2CH2FeS2FeS2Fe2S3FeS2HCH2FeSCSFeSFeSFeSFeS3FeS2FeS2FeHFeS3FeS2FeSFeSH3CH3C2SH2C6H2SHCHNH2C6H6NCH3C6SH3C6H4C6H4C6H7CHFeHNC2HCH3NHCHCHCHCHSCH2CH2C2HSH3CSFeCHC3HCH4NCH3NC4H12NC4H12NC4H14NH3C2HCH2S3CHSHSCHCSCH5C2H5CH2CSC3H2CHCFeNHSH4CHCHSCH2CHC2H2C3H5CHFeCH10CH3FeH7C2HCNH3SCHS2FeSHFeH2CH2FeSCFeSFeSFeCSNFeS2FeS2FeSFeS3HC2S2HFeSFeSH2CHC2H6C6H2C6H4C6H4CH2CHCH4CNHCSC7H5SH4CH2C2H3SHCH2NC2HCS2HSH2C4H4C3H2C2H4CHCH2CNHSH5NCH3CNCH3CSHCSH2SCFeH2CNC3H9CHCH3CH3SHFeH2C2HSH2FeH8CH2CHNH7C2H3CHCFeS2FeS2FeS2FeSFeS3FeHSFeS2FeSH2S2HSCFeCH2CHCHC4H2CHCSC2HSFeHC6H5CFeHC6H4CHCH6CHCHFeH2CH2C2NCH2C3HCH6NH3CHCHSH8CHCH3CHC2H3NCH3NH4FeSHFeS2FeSFeS3FeS2FeS2FeSFeS3FeS2FeS2FeSFeS3FeS3Fe2S2CHCSHC3H2CNSCHNH3C2H2C3H3C6H4C4H2C6H4C5H3CFeH3C3HCSH3C7H8C2HCHCH3CH5SH2SH2CHFeH4C2NC3H4CH8NC4H12NC3H2NH6C2H4C2HS2HCH2CHSC2H2NH2CH2SHCHFeNSH2SC2HFeCHCFeCH3CH5SH2CH2CH2CH7CHCH5NHC2HCH3NH3C2HCH2CH3SH2SCHCHFeS2FeNSFeSFeHS2FeS2FeCSCFeSHFeS2FeSFeS3FeS2FeSFeSFeS3H5SH7C6H4C6H4C6H4SH2CFeC2H3CHCSH2CHCH4C2NH3CHC3H5C6H6SHCH4CH3CHFeCSC2HNC4H12NCHC2H4CH4FeC5HC2HSHSCH4CSH6CH4C2HNCH10CH2CH3NHCSH6CSFeHSFeHSHCFeS3FeSCSHFeHFeSHSCHC2HCNC2HCNHC6H5CHC3FeH3C3NSH5FeH3C2S2C3H2C2FeHC2SCH4C2H2SH2CH2SH8CFeH6C2H2CH4FeS2FeS2FeSFeS3FeS2FeS2FeSFeS3FeS2FeS2FeSFeS4CHSCFeS2FeH2SC2HCH3C4H4C6H4C5H2C6H4C6H5FeC2H3C6H4C2HCSH2FeC4HCHC4HSH2N2C4H4CH9C2H4CH3CHC2NCH5NH2CHFeH2CSCH2SH3SHCH2NH2SCNC4NH5C3H3CH4C2HFeHC2HCH3CHC3H2FeH8NC4H11NC4H12CH2CH6CH2CH2CHCSH4CHNCH2S2C2H7C3FeS2FeS2FeSFeS2FeS2FeSCFeSFeS3HCH2CH3CHC6H7SH2FeH2C3H7CH8CHCH3C2H2SC6H3CHCHCHNCHNSHC2SCNC2HCH4CHCHNC4H12NC4H7CHC4H6CHSHCHCNH5CHC2HC2NCFeCHCH2SNH2C2H5SHC2H2C3HCH2CH3CHSHCSHSH2CNCHCH12C2HCHS2HSHC2HFeCSH6CH3FeS2FeS2FeSFeS3FeS2HSFeSFeS2HNHCFeS2FeCSC2SC3SH2C2HSCHCHFe2H2CS2CFeSCH2CFeC4H2CH2CHCSHFe3HCH2C5H2C6H9CS2H2C6H5CHSCSHCH4NCHCHNHCH4C2HFeHSCH2CH2CHCHS2HSH6CNC4H12NC4H12N2C4HCH4CNHCHCHNH4CHSH4CH2CH2SH3C2H3CFeSFeS2FeSFeS3FeSHFeS2FeSFeS3HCHFeCSHFeSHSFeSFeS2FeS2H4FeS3FeSFeS3H5C2H3CHC4H3C6H6C7H6FeC2H2C6H4CH3C3HCH2C6H4SHNC4H12CNC4H6C2H2SH2Fe2H5SHNCHCH8CH2CHCH7CH3C2HCNC2HNHCH2SHCSC2H4SCH2CNCSC2HC2HCH2C3NSC2SCH3CH3C2H2S2CHCHC4H2CH2C2NH2C2SHCH4CHCH5C2NHCH2CH5Fe2HCH5CHCHCH5NH2NCH2C2FeSHCHCSC2HFeS2FeSFeS3CHFeCHFeSCFeS2FeSFeS3CHSH2SC2H3SHC4SH2C7H4CH2C2HCFeC2HCHCH2NH4C3SH2CHNHC6H4CH2S2HCH2NCHFeH4FeNC4H12NC4H4C2H4CH3NC4H14FeH2C2HCHS2CHC2H2SHCH2C2HSHC2NC2HCH3SH4CSCFeSHFeHFeSCSCH2SH3FeHSFeSH2SCSHFeS2FeS2FeSFeCS2HSCSHFeCFeSH4CFeSHSH3FeSHNCH3C6H4C6H5CHC2H9C2FeHCSC7H4C2HCH2Fe2CHCH2C3H2C2FeC2H9SH2NH2SH8NH2CHC2S2CH4C3HCSH2NC4H3NSH2C2H3NCH2FeH2SH4CHSCHNC6H7CHSHC3H2FeH2NHC2HC3SH2C2HSCSH2SC3H5S2HC2H3CH2NH2NFeS2FeSFeCFeS2FeSFeS2Fe2S2HFeSHSHFeS2HSFeS2FeSFeS2FeSFeS3C6H4C6H4C7H6C2HC9H5SC4H3SCHC6H2C2H2C2H5CH7CHNC4H17C2H2C2H4CNH3SCH2SH2CH4CHCH3CH2CH4NH4CH2CH4SHCHCHSCH3C2HNH4CHFeHCHFeSNC2HCHC2SH3C3H2NC2H4CFeCHCH2CHS2H3
_chemical_formula_sum              "C1920 H3072 Fe384 S768 N192"
_cell_length_a       71.5284
_cell_length_b       71.6715
_cell_length_c       71.7762
_cell_angle_alpha    75.3642
_cell_angle_beta     75.6824
_cell_angle_gamma    75.4822

_space_group_name_H-M_alt    "P 1"
_space_group_IT_number       1

loop_
  _space_group_symop_operation_xyz
  'x, y, z'

loop_
  _atom_site_type_symbol
  _atom_site_label
  _atom_site_symmetry_multiplicity
  _atom_site_fract_x
  _atom_site_fract_y
  _atom_site_fract_z
  _atom_site_occupancy
  C   C1        1.0  0.23857  0.30388  0.00400  1.0000
  H   H1        1.0  0.17565  0.25096  0.22576  1.0000
  H   H2        1.0  0.09270  0.36511  0.26384  1.0000
  H   H3        1.0  0.12000  0.23316  0.24528  1.0000
  C   C2        1.0  0.22878  0.29938  0.99145  1.0000
  H   H4        1.0  0.02634  0.17495  0.31070  1.0000
  H   H5        1.0  0.07420  0.29162  0.15606  1.0000
  Fe  Fe1       1.0  0.11006  0.33574  0.23623  1.0000
  S   S1        1.0  0.12783  0.30499  0.23948  1.0000
  S   S2        1.0  0.12761  0.35866  0.23371  1.0000
  Fe  Fe2       1.0  0.07271  0.32224  0.23651  1.0000
  S   S3        1.0  0.08759  0.29038  0.24044  1.0000
  S   S4        1.0  0.04182  0.33343  0.23048  1.0000
  Fe  Fe3       1.0  0.10173  0.29708  0.26194  1.0000
  H   H6        1.0  0.23247  0.33614  0.17262  1.0000
  Fe  Fe4       1.0  0.11226  0.30136  0.21765  1.0000
  S   S5        1.0  0.12754  0.28425  0.19401  1.0000
  S   S6        1.0  0.08469  0.32818  0.26027  1.0000
  S   S7        1.0  0.09664  0.33282  0.21222  1.0000
  S   S8        1.0  0.23351  0.32224  0.08868  1.0000
  S   S9        1.0  0.20336  0.40975  0.28413  1.0000
  C   C3        1.0  0.20678  0.35674  0.13708  1.0000
  H   H7        1.0  0.10261  0.30300  0.16070  1.0000
  C   C4        1.0  0.06452  0.30553  0.15978  1.0000
  Fe  Fe5       1.0  0.20825  0.30978  0.10908  1.0000
  H   H8        1.0  0.21632  0.39091  0.13657  1.0000
  S   S10       1.0  0.18121  0.32993  0.12193  1.0000
  H   H9        1.0  0.13286  0.30943  0.28257  1.0000
  N   N1        1.0  0.21421  0.37096  0.11964  1.0000
  C   C5        1.0  0.13866  0.31923  0.28861  1.0000
  H   H10       1.0  0.18812  0.38560  0.21513  1.0000
  S   S11       1.0  0.20990  0.28757  0.09128  1.0000
  H   H11       1.0  0.00352  0.21768  0.30356  1.0000
  H   H12       1.0  0.15080  0.48427  0.30690  1.0000
  C   C6        1.0  0.22668  0.39454  0.27992  1.0000
  C   C7        1.0  0.20931  0.39075  0.12437  1.0000
  S   S12       1.0  0.10913  0.27849  0.29045  1.0000
  H   H13       1.0  0.00646  0.33904  0.21607  1.0000
  H   H14       1.0  0.08711  0.37708  0.29469  1.0000
  H   H15       1.0  0.16247  0.24102  0.26158  1.0000
  H   H16       1.0  0.21848  0.36874  0.30024  1.0000
  C   C8        1.0  0.09208  0.31661  0.16418  1.0000
  H   H17       1.0  0.06414  0.33701  0.18835  1.0000
  H   H18       1.0  0.07808  0.30309  0.20248  1.0000
  C   C9        1.0  0.23326  0.29798  0.02447  1.0000
  C   C10       1.0  0.14293  0.29691  0.17440  1.0000
  C   C11       1.0  0.15610  0.28677  0.16054  1.0000
  C   C12       1.0  0.16817  0.29676  0.14459  1.0000
  C   C13       1.0  0.16671  0.31704  0.14216  1.0000
  C   C14       1.0  0.15349  0.32718  0.15599  1.0000
  C   C15       1.0  0.14184  0.31708  0.17223  1.0000
  H   H19       1.0  0.15705  0.27116  0.16211  1.0000
  H   H20       1.0  0.17835  0.28882  0.13397  1.0000
  H   H21       1.0  0.15239  0.34284  0.15424  1.0000
  H   H22       1.0  0.13194  0.32502  0.18293  1.0000
  C   C16       1.0  0.12281  0.36874  0.25471  1.0000
  C   C17       1.0  0.13784  0.37512  0.25922  1.0000
  C   C18       1.0  0.13478  0.38165  0.27682  1.0000
  Fe  Fe6       1.0  0.23705  0.29794  0.07270  1.0000
  H   H23       1.0  0.05840  0.29402  0.19882  1.0000
  C   C19       1.0  0.05882  0.33113  0.17808  1.0000
  H   H24       1.0  0.15196  0.37461  0.24929  1.0000
  H   H25       1.0  0.14648  0.38633  0.28037  1.0000
  H   H26       1.0  0.09203  0.32786  0.15029  1.0000
  C   C20       1.0  0.14765  0.24316  0.25814  1.0000
  H   H27       1.0  0.21456  0.40188  0.11147  1.0000
  C   C21       1.0  0.03350  0.29642  0.23735  1.0000
  C   C22       1.0  0.02792  0.31654  0.22989  1.0000
  C   C23       1.0  0.09753  0.24696  0.28435  1.0000
  N   N2        1.0  0.20992  0.37909  0.23305  1.0000
  H   H28       1.0  0.13941  0.23295  0.26975  1.0000
  H   H29       1.0  0.04650  0.29092  0.24371  1.0000
  H   H30       1.0  0.05758  0.34284  0.16466  1.0000
  C   C24       1.0  0.07308  0.29773  0.19170  1.0000
  Fe  Fe7       1.0  0.18180  0.39709  0.30955  1.0000
  H   H31       1.0  0.04947  0.30248  0.16633  1.0000
  H   H32       1.0  0.09828  0.32205  0.17409  1.0000
  H   H33       1.0  0.06363  0.31650  0.14578  1.0000
  C   C25       1.0  0.23584  0.36492  0.11392  1.0000
  H   H34       1.0  0.08363  0.28390  0.18895  1.0000
  H   H35       1.0  0.04372  0.32865  0.18539  1.0000
  H   H36       1.0  0.08851  0.22190  0.28028  1.0000
  C   C26       1.0  0.21380  0.28863  0.99927  1.0000
  C   C27       1.0  0.20836  0.28287  0.01975  1.0000
  C   C28       1.0  0.21804  0.28754  0.03233  1.0000
  C   C29       1.0  0.24169  0.40215  0.26580  1.0000
  H   H37       1.0  0.23005  0.19797  0.14510  1.0000
  C   C30       1.0  0.21494  0.39882  0.22622  1.0000
  H   H38       1.0  0.19674  0.27459  0.02592  1.0000
  H   H39       1.0  0.21381  0.28293  0.04807  1.0000
  C   C31       1.0  0.22787  0.36418  0.23645  1.0000
  H   H40       1.0  0.22122  0.40255  0.23722  1.0000
  C   C32       1.0  0.10449  0.36958  0.26746  1.0000
  H   H41       1.0  0.21146  0.34140  0.13450  1.0000
  S   S13       1.0  0.16934  0.37057  0.31215  1.0000
  N   N3        1.0  0.14903  0.23968  0.23834  1.0000
  C   C33       1.0  0.15906  0.21913  0.23740  1.0000
  C   C34       1.0  0.12901  0.24314  0.23435  1.0000
  C   C35       1.0  0.16035  0.25329  0.22346  1.0000
  C   C36       1.0  0.99908  0.31041  0.22182  1.0000
  H   H42       1.0  0.16035  0.21606  0.22262  1.0000
  H   H43       1.0  0.15085  0.20848  0.24840  1.0000
  H   H44       1.0  0.17422  0.21597  0.24037  1.0000
  H   H45       1.0  0.12111  0.25851  0.23492  1.0000
  H   H46       1.0  0.12945  0.24091  0.21942  1.0000
  H   H47       1.0  0.23912  0.36370  0.22265  1.0000
  H   H48       1.0  0.23122  0.48824  0.28767  1.0000
  H   H49       1.0  0.16126  0.25141  0.20828  1.0000
  C   C37       1.0  0.02192  0.28335  0.23703  1.0000
  H   H50       1.0  0.23696  0.25081  0.00532  1.0000
  H   H51       1.0  0.19038  0.35985  0.14087  1.0000
  C   C38       1.0  0.20179  0.37474  0.21795  1.0000
  C   C39       1.0  0.10523  0.25425  0.29656  1.0000
  H   H52       1.0  0.13976  0.25843  0.25949  1.0000
  H   H53       1.0  0.20106  0.38125  0.26342  1.0000
  H   H54       1.0  0.15328  0.26895  0.22385  1.0000
  C   C40       1.0  0.00456  0.29032  0.22951  1.0000
  H   H55       1.0  0.18169  0.39029  0.24978  1.0000
  C   C41       1.0  0.10130  0.37650  0.28483  1.0000
  H   H56       1.0  0.19051  0.36421  0.25687  1.0000
  H   H57       1.0  0.21029  0.38177  0.08970  1.0000
  C   C42       1.0  0.09939  0.21530  0.30713  1.0000
  H   H58       1.0  0.20175  0.41051  0.22365  1.0000
  S   S14       1.0  0.22661  0.28941  0.12999  1.0000
  H   H59       1.0  0.19810  0.35984  0.22248  1.0000
  C   C43       1.0  0.19512  0.37866  0.25156  1.0000
  N   N4        1.0  0.07213  0.31276  0.17341  1.0000
  H   H60       1.0  0.21259  0.37512  0.20375  1.0000
  H   H61       1.0  0.09348  0.25636  0.27106  1.0000
  H   H62       1.0  0.19312  0.39563  0.12899  1.0000
  H   H63       1.0  0.22463  0.34917  0.24220  1.0000
  Fe  Fe8       1.0  0.23057  0.26814  0.11054  1.0000
  H   H64       1.0  0.24337  0.36479  0.12582  1.0000
  C   C44       1.0  0.09474  0.22745  0.28957  1.0000
  H   H65       1.0  0.24195  0.37502  0.10053  1.0000
  C   C45       1.0  0.20488  0.37145  0.10326  1.0000
  H   H66       1.0  0.15501  0.31516  0.28531  1.0000
  C   C46       1.0  0.23004  0.37467  0.28925  1.0000
  C   C47       1.0  0.11655  0.38213  0.28976  1.0000
  H   H67       1.0  0.02622  0.26780  0.24299  1.0000
  H   H68       1.0  0.20794  0.35667  0.09960  1.0000
  H   H69       1.0  0.13043  0.47186  0.31709  1.0000
  C   C48       1.0  0.01076  0.32349  0.22201  1.0000
  H   H70       1.0  0.21227  0.35706  0.15014  1.0000
  S   S15       1.0  0.22722  0.23690  0.12242  1.0000
  H   H71       1.0  0.22605  0.39968  0.21224  1.0000
  C   C49       1.0  0.24532  0.22211  0.13529  1.0000
  H   H72       1.0  0.03535  0.19627  0.31055  1.0000
  H   H73       1.0  0.10269  0.31352  0.30793  1.0000
  H   H74       1.0  0.18855  0.37591  0.10709  1.0000
  H   H75       1.0  0.23922  0.41755  0.25869  1.0000
  H   H76       1.0  0.13435  0.33447  0.28032  1.0000
  H   H77       1.0  0.23483  0.36746  0.24720  1.0000
  C   C50       1.0  0.11033  0.24194  0.31383  1.0000
  S   S16       1.0  0.09488  0.19127  0.31413  1.0000
  H   H78       1.0  0.10409  0.33862  0.30575  1.0000
  S   S17       1.0  0.15250  0.41707  0.31650  1.0000
  N   N5        1.0  0.13084  0.31772  0.30991  1.0000
  C   C51       1.0  0.13873  0.33110  0.31724  1.0000
  H   H79       1.0  0.13460  0.34665  0.30959  1.0000
  H   H80       1.0  0.13109  0.28677  0.31515  1.0000
  C   C52       1.0  0.10911  0.32327  0.31341  1.0000
  S   S18       1.0  0.11291  0.38815  0.31282  1.0000
  H   H81       1.0  0.15510  0.32731  0.31498  1.0000
  H   H82       1.0  0.24016  0.34982  0.11074  1.0000
  H   H83       1.0  0.24129  0.31576  0.14720  1.0000
  C   C53       1.0  0.24311  0.20304  0.14503  1.0000
  C   C54       1.0  0.99604  0.20580  0.31323  1.0000
  H   H84       1.0  0.15317  0.29253  0.31792  1.0000
  N   N6        1.0  0.19870  0.32236  0.60871  1.0000
  C   C55       1.0  0.13836  0.22426  0.60353  1.0000
  H   H85       1.0  0.18075  0.37769  0.42790  1.0000
  S   S19       1.0  0.14957  0.27850  0.63680  1.0000
  H   H86       1.0  0.13116  0.29556  0.33643  1.0000
  Fe  Fe9       1.0  0.17703  0.26476  0.61793  1.0000
  S   S20       1.0  0.18288  0.28001  0.58601  1.0000
  H   H87       1.0  0.21739  0.34146  0.60935  1.0000
  C   C56       1.0  0.12723  0.24529  0.57466  1.0000
  H   H88       1.0  0.11727  0.26793  0.45451  1.0000
  H   H89       1.0  0.19908  0.33972  0.39701  1.0000
  H   H90       1.0  0.18220  0.14316  0.45732  1.0000
  Fe  Fe10      1.0  0.17152  0.36417  0.34391  1.0000
  S   S21       1.0  0.14162  0.38162  0.35375  1.0000
  S   S22       1.0  0.18220  0.33290  0.35874  1.0000
  H   H91       1.0  0.12451  0.26771  0.40139  1.0000
  Fe  Fe11      1.0  0.15700  0.40692  0.34752  1.0000
  S   S23       1.0  0.15016  0.42754  0.36845  1.0000
  H   H92       1.0  0.03975  0.11380  0.35424  1.0000
  S   S24       1.0  0.18725  0.38877  0.34024  1.0000
  H   H93       1.0  0.06111  0.12062  0.39363  1.0000
  H   H94       1.0  0.01679  0.19936  0.35286  1.0000
  Fe  Fe12      1.0  0.21142  0.05512  0.36554  1.0000
  S   S25       1.0  0.20505  0.03084  0.39172  1.0000
  S   S26       1.0  0.19074  0.07652  0.34715  1.0000
  Fe  Fe13      1.0  0.22387  0.04304  0.40475  1.0000
  H   H95       1.0  0.18544  0.34434  0.42051  1.0000
  S   S27       1.0  0.22800  0.06853  0.37969  1.0000
  H   H96       1.0  0.15976  0.48692  0.34416  1.0000
  Fe  Fe14      1.0  0.09622  0.14413  0.37988  1.0000
  S   S28       1.0  0.08517  0.16214  0.40330  1.0000
  S   S29       1.0  0.10500  0.11127  0.38959  1.0000
  Fe  Fe15      1.0  0.09296  0.18011  0.34665  1.0000
  S   S30       1.0  0.08237  0.20097  0.36731  1.0000
  C   C57       1.0  0.19292  0.38080  0.41520  1.0000
  Fe  Fe16      1.0  0.10552  0.18169  0.38388  1.0000
  S   S31       1.0  0.13054  0.19006  0.39203  1.0000
  Fe  Fe17      1.0  0.06307  0.17949  0.38448  1.0000
  S   S32       1.0  0.03051  0.19189  0.39239  1.0000
  S   S33       1.0  0.11775  0.16254  0.36150  1.0000
  S   S34       1.0  0.07240  0.15968  0.36282  1.0000
  Fe  Fe18      1.0  0.14581  0.23757  0.46955  1.0000
  S   S35       1.0  0.16374  0.25363  0.44330  1.0000
  S   S36       1.0  0.11979  0.22683  0.46652  1.0000
  Fe  Fe19      1.0  0.17023  0.24179  0.49732  1.0000
  S   S37       1.0  0.19036  0.25825  0.47297  1.0000
  S   S38       1.0  0.17392  0.22980  0.52883  1.0000
  Fe  Fe20      1.0  0.16240  0.27444  0.46232  1.0000
  S   S39       1.0  0.15361  0.30693  0.45033  1.0000
  Fe  Fe21      1.0  0.18982  0.23600  0.45607  1.0000
  S   S40       1.0  0.21395  0.22110  0.43491  1.0000
  S   S41       1.0  0.14222  0.25976  0.48801  1.0000
  S   S42       1.0  0.17194  0.21819  0.48105  1.0000
  C   C58       1.0  0.22541  0.06775  0.43780  1.0000
  Fe  Fe22      1.0  0.14572  0.24754  0.64967  1.0000
  C   C59       1.0  0.13004  0.25953  0.60070  1.0000
  C   C60       1.0  0.12719  0.19989  0.41304  1.0000
  C   C61       1.0  0.10891  0.20288  0.42572  1.0000
  C   C62       1.0  0.10683  0.21089  0.44229  1.0000
  C   C63       1.0  0.12300  0.21594  0.44621  1.0000
  C   C64       1.0  0.14131  0.21281  0.43359  1.0000
  C   C65       1.0  0.14338  0.20481  0.41707  1.0000
  H   H97       1.0  0.09637  0.19908  0.42274  1.0000
  H   H98       1.0  0.09264  0.21323  0.45204  1.0000
  H   H99       1.0  0.15384  0.21671  0.43646  1.0000
  H   H100      1.0  0.15755  0.20260  0.40725  1.0000
  C   C66       1.0  0.23942  0.21329  0.46035  1.0000
  C   C67       1.0  0.21481  0.30479  0.60942  1.0000
  H   H101      1.0  0.22722  0.15045  0.46882  1.0000
  C   C68       1.0  0.23530  0.06710  0.45263  1.0000
  C   C69       1.0  0.12718  0.26938  0.41545  1.0000
  H   H102      1.0  0.16163  0.10963  0.33475  1.0000
  H   H103      1.0  0.22878  0.22367  0.46825  1.0000
  C   C70       1.0  0.16661  0.08530  0.35890  1.0000
  C   C71       1.0  0.15850  0.07585  0.37766  1.0000
  C   C72       1.0  0.13934  0.08362  0.38683  1.0000
  C   C73       1.0  0.12839  0.10097  0.37740  1.0000
  C   C74       1.0  0.13646  0.11029  0.35860  1.0000
  C   C75       1.0  0.15546  0.10239  0.34933  1.0000
  H   H104      1.0  0.16698  0.06259  0.38508  1.0000
  H   H105      1.0  0.13315  0.07632  0.40138  1.0000
  H   H106      1.0  0.12800  0.12346  0.35106  1.0000
  H   H107      1.0  0.16758  0.32960  0.62028  1.0000
  H   H108      1.0  0.21180  0.29329  0.60323  1.0000
  C   C76       1.0  0.11395  0.28266  0.44486  1.0000
  C   C77       1.0  0.16777  0.44193  0.36529  1.0000
  C   C78       1.0  0.16466  0.45519  0.37767  1.0000
  C   C79       1.0  0.17788  0.46771  0.37469  1.0000
  C   C80       1.0  0.19446  0.46676  0.35951  1.0000
  C   C81       1.0  0.19787  0.45312  0.34747  1.0000
  C   C82       1.0  0.18443  0.44088  0.35020  1.0000
  H   H109      1.0  0.15185  0.45601  0.38943  1.0000
  C   C83       1.0  0.24149  0.08388  0.45362  1.0000
  H   H110      1.0  0.12053  0.27366  0.59506  1.0000
  H   H111      1.0  0.18688  0.43082  0.34046  1.0000
  C   C84       1.0  0.17264  0.32496  0.38382  1.0000
  C   C85       1.0  0.18196  0.30705  0.39398  1.0000
  C   C86       1.0  0.17589  0.30119  0.41436  1.0000
  C   C87       1.0  0.16050  0.31329  0.42467  1.0000
  C   C88       1.0  0.15076  0.33091  0.41445  1.0000
  C   C89       1.0  0.15666  0.33662  0.39403  1.0000
  H   H112      1.0  0.19432  0.29792  0.38619  1.0000
  H   H113      1.0  0.18363  0.28765  0.42216  1.0000
  H   H114      1.0  0.13873  0.34023  0.42237  1.0000
  H   H115      1.0  0.14907  0.35022  0.38631  1.0000
  H   H116      1.0  0.03398  0.14953  0.40402  1.0000
  H   H117      1.0  0.17594  0.36795  0.38106  1.0000
  Fe  Fe23      1.0  0.14035  0.38983  0.32172  1.0000
  Fe  Fe24      1.0  0.23383  0.01344  0.37800  1.0000
  C   C90       1.0  0.00557  0.14414  0.40386  1.0000
  S   S43       1.0  0.19667  0.26201  0.63906  1.0000
  C   C91       1.0  0.10525  0.30111  0.41409  1.0000
  H   H118      1.0  0.20427  0.33132  0.63294  1.0000
  C   C92       1.0  0.17540  0.37573  0.39282  1.0000
  H   H119      1.0  0.19008  0.39700  0.40932  1.0000
  C   C93       1.0  0.01402  0.17643  0.39500  1.0000
  H   H120      1.0  0.01606  0.21949  0.33218  1.0000
  C   C94       1.0  0.22114  0.08539  0.42441  1.0000
  N   N7        1.0  0.00685  0.19430  0.32892  1.0000
  N   N8        1.0  0.19413  0.36979  0.39994  1.0000
  H   H121      1.0  0.18460  0.34395  0.58695  1.0000
  H   H122      1.0  0.13108  0.46960  0.36016  1.0000
  C   C95       1.0  0.18232  0.26607  0.56915  1.0000
  C   C96       1.0  0.18552  0.24554  0.57434  1.0000
  C   C97       1.0  0.18367  0.23462  0.56142  1.0000
  C   C98       1.0  0.17866  0.24410  0.54317  1.0000
  C   C99       1.0  0.17599  0.26462  0.53767  1.0000
  C   C100      1.0  0.17787  0.27558  0.55065  1.0000
  H   H123      1.0  0.18958  0.23802  0.58825  1.0000
  H   H124      1.0  0.18592  0.21874  0.56568  1.0000
  H   H125      1.0  0.17206  0.27205  0.52363  1.0000
  H   H126      1.0  0.17546  0.29146  0.54648  1.0000
  N   N9        1.0  0.12502  0.24259  0.59615  1.0000
  H   H127      1.0  0.19487  0.14912  0.49224  1.0000
  H   H128      1.0  0.22479  0.37029  0.38818  1.0000
  H   H129      1.0  0.09584  0.25639  0.43969  1.0000
  H   H130      1.0  0.06209  0.07011  0.38847  1.0000
  C   C101      1.0  0.20315  0.33712  0.61724  1.0000
  C   C102      1.0  0.19772  0.34841  0.40830  1.0000
  H   H131      1.0  0.02576  0.11653  0.37820  1.0000
  H   H132      1.0  0.10207  0.30059  0.39984  1.0000
  H   H133      1.0  0.08711  0.09013  0.37038  1.0000
  C   C103      1.0  0.23935  0.21245  0.63830  1.0000
  H   H134      1.0  0.12425  0.23251  0.57054  1.0000
  H   H135      1.0  0.07495  0.09774  0.34979  1.0000
  C   C104      1.0  0.10445  0.24127  0.60576  1.0000
  H   H136      1.0  0.00381  0.16988  0.35336  1.0000
  C   C105      1.0  0.10740  0.22252  0.31912  1.0000
  H   H137      1.0  0.13107  0.25430  0.42428  1.0000
  C   C106      1.0  0.07518  0.10124  0.36396  1.0000
  C   C107      1.0  0.21042  0.37429  0.38335  1.0000
  C   C108      1.0  0.09279  0.27145  0.43043  1.0000
  H   H138      1.0  0.11712  0.25876  0.56860  1.0000
  C   C109      1.0  0.18830  0.16235  0.48217  1.0000
  H   H139      1.0  0.17212  0.39180  0.38660  1.0000
  H   H140      1.0  0.12690  0.28955  0.44223  1.0000
  H   H141      1.0  0.14244  0.24688  0.56696  1.0000
  C   C110      1.0  0.23748  0.10139  0.43997  1.0000
  H   H142      1.0  0.14032  0.27626  0.41199  1.0000
  H   H143      1.0  0.22063  0.17683  0.46441  1.0000
  N   N10       1.0  0.19860  0.16263  0.46156  1.0000
  C   C111      1.0  0.21939  0.16361  0.45970  1.0000
  C   C112      1.0  0.18908  0.18002  0.44859  1.0000
  H   H144      1.0  0.22912  0.30849  0.60084  1.0000
  C   C113      1.0  0.19767  0.14455  0.45578  1.0000
  H   H145      1.0  0.04368  0.13151  0.36598  1.0000
  C   C114      1.0  0.12151  0.48228  0.35226  1.0000
  H   H146      1.0  0.22761  0.16432  0.44426  1.0000
  H   H147      1.0  0.18935  0.19386  0.45268  1.0000
  H   H148      1.0  0.04284  0.10630  0.40685  1.0000
  H   H149      1.0  0.17603  0.30590  0.61374  1.0000
  S   S44       1.0  0.24549  0.12249  0.44023  1.0000
  H   H150      1.0  0.19352  0.31987  0.58126  1.0000
  H   H151      1.0  0.23843  0.05351  0.46315  1.0000
  H   H152      1.0  0.20517  0.13113  0.46496  1.0000
  H   H153      1.0  0.20525  0.14442  0.44025  1.0000
  C   C115      1.0  0.22994  0.19785  0.65118  1.0000
  H   H154      1.0  0.03549  0.17633  0.33145  1.0000
  H   H155      1.0  0.09397  0.25493  0.60073  1.0000
  C   C116      1.0  0.23590  0.20979  0.44332  1.0000
  H   H156      1.0  0.21058  0.33530  0.57901  1.0000
  H   H157      1.0  0.23177  0.22766  0.63633  1.0000
  H   H158      1.0  0.09222  0.31044  0.42177  1.0000
  H   H159      1.0  0.20795  0.39026  0.37640  1.0000
  C   C117      1.0  0.18002  0.31667  0.62008  1.0000
  C   C118      1.0  0.22701  0.10222  0.42558  1.0000
  H   H160      1.0  0.22381  0.11578  0.41507  1.0000
  H   H161      1.0  0.11146  0.21310  0.33245  1.0000
  H   H162      1.0  0.13693  0.22170  0.61976  1.0000
  C   C119      1.0  0.19678  0.33079  0.58807  1.0000
  H   H163      1.0  0.15404  0.22480  0.59674  1.0000
  C   C120      1.0  0.04061  0.11648  0.36859  1.0000
  H   H164      1.0  0.10015  0.22867  0.60259  1.0000
  H   H165      1.0  0.07936  0.27989  0.43855  1.0000
  H   H166      1.0  0.17340  0.17977  0.44940  1.0000
  S   S45       1.0  0.21854  0.04651  0.43604  1.0000
  H   H167      1.0  0.08931  0.26981  0.41672  1.0000
  H   H168      1.0  0.21679  0.29809  0.62475  1.0000
  H   H169      1.0  0.10262  0.32234  0.32930  1.0000
  C   C121      1.0  0.05079  0.08182  0.38170  1.0000
  C   C122      1.0  0.14184  0.47758  0.32086  1.0000
  H   H170      1.0  0.11787  0.30874  0.41079  1.0000
  H   H171      1.0  0.11644  0.24743  0.32326  1.0000
  H   H172      1.0  0.19143  0.35070  0.61671  1.0000
  H   H173      1.0  0.10234  0.23909  0.62203  1.0000
  H   H174      1.0  0.04973  0.07785  0.36801  1.0000
  H   H175      1.0  0.06858  0.09498  0.40333  1.0000
  H   H176      1.0  0.21155  0.34343  0.41418  1.0000
  N   N11       1.0  0.16560  0.13278  0.39449  1.0000
  C   C123      1.0  0.17388  0.14389  0.40415  1.0000
  C   C124      1.0  0.16628  0.14256  0.37363  1.0000
  C   C125      1.0  0.14493  0.13227  0.40439  1.0000
  C   C126      1.0  0.17726  0.11246  0.39574  1.0000
  H   H177      1.0  0.17364  0.13685  0.41989  1.0000
  H   H178      1.0  0.16528  0.15928  0.40349  1.0000
  H   H179      1.0  0.18942  0.14471  0.39694  1.0000
  H   H180      1.0  0.15783  0.15803  0.37214  1.0000
  H   H181      1.0  0.18166  0.14295  0.36558  1.0000
  H   H182      1.0  0.15984  0.13473  0.36597  1.0000
  H   H183      1.0  0.13570  0.14737  0.40373  1.0000
  H   H184      1.0  0.14379  0.12486  0.42012  1.0000
  H   H185      1.0  0.13816  0.12418  0.39737  1.0000
  H   H186      1.0  0.17148  0.10380  0.38839  1.0000
  H   H187      1.0  0.17690  0.10445  0.41125  1.0000
  H   H188      1.0  0.19295  0.11223  0.38844  1.0000
  S   S46       1.0  0.17147  0.23410  0.62908  1.0000
  H   H189      1.0  0.17530  0.47803  0.38419  1.0000
  C   C127      1.0  0.05708  0.10602  0.39617  1.0000
  H   H190      1.0  0.14559  0.26074  0.59403  1.0000
  H   H191      1.0  0.18105  0.30976  0.63561  1.0000
  H   H192      1.0  0.16275  0.37234  0.40482  1.0000
  H   H193      1.0  0.21184  0.36598  0.37170  1.0000
  H   H194      1.0  0.13514  0.21117  0.60021  1.0000
  S   S47       1.0  0.23871  0.03679  0.35069  1.0000
  H   H195      1.0  0.21309  0.08606  0.41330  1.0000
  H   H196      1.0  0.10129  0.29167  0.45329  1.0000
  H   H197      1.0  0.07961  0.11574  0.36061  1.0000
  H   H198      1.0  0.03636  0.08137  0.39201  1.0000
  H   H199      1.0  0.17238  0.16230  0.48406  1.0000
  H   H200      1.0  0.19689  0.18103  0.43299  1.0000
  N   N12       1.0  0.05591  0.10140  0.37760  1.0000
  N   N13       1.0  0.10977  0.28115  0.42620  1.0000
  H   H201      1.0  0.12821  0.25812  0.61681  1.0000
  C   C128      1.0  0.00834  0.20750  0.34112  1.0000
  H   H202      1.0  0.18930  0.17550  0.48717  1.0000
  H   H203      1.0  0.20684  0.37680  0.42088  1.0000
  C   C129      1.0  0.99616  0.17889  0.34132  1.0000
  H   H204      1.0  0.15172  0.46460  0.32812  1.0000
  H   H205      1.0  0.13292  0.33063  0.33321  1.0000
  H   H206      1.0  0.10961  0.47649  0.34949  1.0000
  C   C130      1.0  0.01942  0.15601  0.40091  1.0000
  H   H207      1.0  0.21069  0.45230  0.33572  1.0000
  H   H208      1.0  0.00944  0.12846  0.40931  1.0000
  C   C131      1.0  0.13685  0.29724  0.32033  1.0000
  S   S48       1.0  0.21082  0.48275  0.35513  1.0000
  C   C132      1.0  0.02687  0.18502  0.32001  1.0000
  H   H209      1.0  0.20210  0.99006  0.37345  1.0000
  H   H210      1.0  0.07287  0.24408  0.83379  1.0000
  C   C133      1.0  0.21935  0.30653  0.66536  1.0000
  C   C134      1.0  0.21185  0.37140  0.83813  1.0000
  H   H211      1.0  0.03485  0.25953  0.89795  1.0000
  H   H212      1.0  0.00041  0.26651  0.84143  1.0000
  S   S49       1.0  0.19242  0.01096  0.77598  1.0000
  C   C135      1.0  0.23582  0.41374  0.73338  1.0000
  Fe  Fe25      1.0  0.19907  0.03194  0.74709  1.0000
  S   S50       1.0  0.17813  0.05407  0.72965  1.0000
  H   H213      1.0  0.16962  0.32654  0.83577  1.0000
  Fe  Fe26      1.0  0.06156  0.15616  0.75331  1.0000
  S   S51       1.0  0.06437  0.14156  0.78425  1.0000
  S   S52       1.0  0.03223  0.17234  0.74564  1.0000
  Fe  Fe27      1.0  0.10599  0.15190  0.73923  1.0000
  S   S53       1.0  0.11230  0.13793  0.76926  1.0000
  S   S54       1.0  0.13242  0.15598  0.71532  1.0000
  Fe  Fe28      1.0  0.08987  0.12048  0.77057  1.0000
  S   S55       1.0  0.09810  0.08797  0.78216  1.0000
  Fe  Fe29      1.0  0.08649  0.16036  0.77973  1.0000
  S   S56       1.0  0.08228  0.17869  0.80204  1.0000
  S   S57       1.0  0.08490  0.13323  0.73974  1.0000
  S   S58       1.0  0.08239  0.17623  0.74951  1.0000
  Fe  Fe30      1.0  0.21210  0.31195  0.91016  1.0000
  S   S59       1.0  0.19346  0.29065  0.92942  1.0000
  S   S60       1.0  0.19632  0.33861  0.89181  1.0000
  Fe  Fe31      1.0  0.21660  0.26795  0.91571  1.0000
  S   S61       1.0  0.21266  0.24364  0.90311  1.0000
  H   H214      1.0  0.01739  0.19212  0.82762  1.0000
  H   H215      1.0  0.19676  0.46926  0.78936  1.0000
  S   S62       1.0  0.21349  0.34747  0.72249  1.0000
  H   H216      1.0  0.18245  0.31706  0.72696  1.0000
  H   H217      1.0  0.15528  0.31324  0.76746  1.0000
  S   S63       1.0  0.11722  0.23723  0.65667  1.0000
  H   H218      1.0  0.21537  0.40731  0.79174  1.0000
  H   H219      1.0  0.16716  0.32932  0.69079  1.0000
  S   S64       1.0  0.23486  0.30668  0.76468  1.0000
  Fe  Fe32      1.0  0.22305  0.37501  0.72284  1.0000
  S   S65       1.0  0.20333  0.40395  0.72770  1.0000
  C   C136      1.0  0.17817  0.12639  0.70246  1.0000
  Fe  Fe33      1.0  0.23767  0.34560  0.69587  1.0000
  Fe  Fe34      1.0  0.13460  0.28999  0.81949  1.0000
  S   S66       1.0  0.15204  0.25996  0.82947  1.0000
  S   S67       1.0  0.14668  0.31770  0.80941  1.0000
  Fe  Fe35      1.0  0.09593  0.27568  0.82908  1.0000
  S   S68       1.0  0.11015  0.24458  0.84053  1.0000
  Fe  Fe36      1.0  0.12660  0.25785  0.85495  1.0000
  S   S69       1.0  0.12809  0.24919  0.88703  1.0000
  Fe  Fe37      1.0  0.13393  0.24987  0.81381  1.0000
  S   S70       1.0  0.14615  0.22898  0.79296  1.0000
  S   S71       1.0  0.11028  0.28860  0.84587  1.0000
  S   S72       1.0  0.11870  0.28022  0.80155  1.0000
  C   C137      1.0  0.21672  0.42056  0.72973  1.0000
  C   C138      1.0  0.20844  0.44072  0.72769  1.0000
  H   H220      1.0  0.24240  0.39839  0.73499  1.0000
  H   H221      1.0  0.19364  0.44611  0.72489  1.0000
  H   H222      1.0  0.17294  0.13579  0.68908  1.0000
  C   C139      1.0  0.21096  0.31011  0.77854  1.0000
  C   C140      1.0  0.20401  0.29408  0.79154  1.0000
  C   C141      1.0  0.18433  0.29638  0.80143  1.0000
  C   C142      1.0  0.17168  0.31474  0.79846  1.0000
  C   C143      1.0  0.17889  0.33096  0.78613  1.0000
  C   C144      1.0  0.19850  0.32864  0.77607  1.0000
  H   H223      1.0  0.21369  0.27975  0.79352  1.0000
  H   H224      1.0  0.17901  0.28391  0.81121  1.0000
  H   H225      1.0  0.16916  0.34525  0.78391  1.0000
  H   H226      1.0  0.20388  0.34116  0.76624  1.0000
  H   H227      1.0  0.12840  0.22961  0.70070  1.0000
  S   S73       1.0  0.23630  0.33510  0.66932  1.0000
  C   C145      1.0  0.18905  0.24552  0.89879  1.0000
  C   C146      1.0  0.18726  0.23997  0.88204  1.0000
  C   C147      1.0  0.16858  0.24130  0.87825  1.0000
  C   C148      1.0  0.15160  0.24762  0.89150  1.0000
  C   C149      1.0  0.15340  0.25290  0.90842  1.0000
  C   C150      1.0  0.17210  0.25207  0.91195  1.0000
  H   H228      1.0  0.20033  0.23476  0.87188  1.0000
  H   H229      1.0  0.16734  0.23689  0.86534  1.0000
  H   H230      1.0  0.14031  0.25776  0.91874  1.0000
  H   H231      1.0  0.17338  0.25619  0.92502  1.0000
  H   H232      1.0  0.11737  0.19475  0.73155  1.0000
  C   C151      1.0  0.17975  0.31722  0.84561  1.0000
  H   H233      1.0  0.20610  0.10752  0.72389  1.0000
  H   H234      1.0  0.13265  0.19477  0.74789  1.0000
  H   H235      1.0  0.16574  0.28376  0.85464  1.0000
  H   H236      1.0  0.18952  0.30561  0.83787  1.0000
  C   C152      1.0  0.04889  0.26916  0.83304  1.0000
  H   H237      1.0  0.22960  0.03023  0.84596  1.0000
  H   H238      1.0  0.00832  0.14509  0.72301  1.0000
  Fe  Fe38      1.0  0.21312  0.28671  0.95093  1.0000
  C   C153      1.0  0.03019  0.19251  0.81511  1.0000
  H   H239      1.0  0.21340  0.46963  0.72638  1.0000
  S   S74       1.0  0.16212  0.24382  0.67352  1.0000
  H   H240      1.0  0.00104  0.22354  0.80972  1.0000
  C   C154      1.0  0.17760  0.07947  0.81142  1.0000
  H   H241      1.0  0.07610  0.22858  0.86971  1.0000
  H   H242      1.0  0.14025  0.09974  0.81216  1.0000
  Fe  Fe39      1.0  0.24286  0.02292  0.74621  1.0000
  H   H243      1.0  0.09362  0.22678  0.88456  1.0000
  H   H244      1.0  0.04239  0.24842  0.87690  1.0000
  H   H245      1.0  0.19550  0.34450  0.68827  1.0000
  C   C155      1.0  0.10027  0.19255  0.79870  1.0000
  C   C156      1.0  0.09475  0.21045  0.80497  1.0000
  C   C157      1.0  0.10876  0.22186  0.80262  1.0000
  C   C158      1.0  0.12850  0.21513  0.79462  1.0000
  C   C159      1.0  0.13402  0.19736  0.78797  1.0000
  C   C160      1.0  0.11985  0.18611  0.78988  1.0000
  H   H246      1.0  0.07956  0.21562  0.81149  1.0000
  H   H247      1.0  0.10419  0.23598  0.80685  1.0000
  H   H248      1.0  0.14928  0.19213  0.78173  1.0000
  H   H249      1.0  0.12415  0.17224  0.78507  1.0000
  C   C161      1.0  0.12780  0.17725  0.69737  1.0000
  H   H250      1.0  0.16445  0.33419  0.87682  1.0000
  C   C162      1.0  0.10520  0.20507  0.68244  1.0000
  C   C163      1.0  0.10852  0.18708  0.69580  1.0000
  S   S75       1.0  0.06367  0.28672  0.82839  1.0000
  H   H251      1.0  0.09029  0.21287  0.68151  1.0000
  H   H252      1.0  0.09618  0.18089  0.70497  1.0000
  N   N14       1.0  0.16866  0.30851  0.86477  1.0000
  H   H253      1.0  0.14591  0.30470  0.85210  1.0000
  H   H254      1.0  0.03920  0.23318  0.90100  1.0000
  H   H255      1.0  0.09158  0.21948  0.74662  1.0000
  C   C164      1.0  0.15649  0.29605  0.86172  1.0000
  H   H256      1.0  0.00288  0.12899  0.67959  1.0000
  H   H257      1.0  0.09681  0.24268  0.74698  1.0000
  C   C165      1.0  0.15511  0.06258  0.74364  1.0000
  C   C166      1.0  0.14507  0.08181  0.73766  1.0000
  C   C167      1.0  0.12741  0.08951  0.74932  1.0000
  C   C168      1.0  0.11932  0.07782  0.76673  1.0000
  C   C169      1.0  0.12891  0.05828  0.77232  1.0000
  C   C170      1.0  0.14696  0.05074  0.76093  1.0000
  H   H258      1.0  0.15106  0.09095  0.72420  1.0000
  H   H259      1.0  0.12019  0.10458  0.74485  1.0000
  H   H260      1.0  0.12255  0.04910  0.78565  1.0000
  H   H261      1.0  0.15441  0.03572  0.76539  1.0000
  C   C171      1.0  0.20076  0.43428  0.81451  1.0000
  C   C172      1.0  0.15126  0.30921  0.75519  1.0000
  C   C173      1.0  0.01408  0.14067  0.76283  1.0000
  C   C174      1.0  0.01190  0.16076  0.75444  1.0000
  C   C175      1.0  0.12115  0.21338  0.67102  1.0000
  H   H262      1.0  0.23472  0.44290  0.77258  1.0000
  C   C176      1.0  0.21954  0.45400  0.72867  1.0000
  H   H263      1.0  0.02848  0.13201  0.76478  1.0000
  C   C177      1.0  0.18455  0.30590  0.67624  1.0000
  C   C178      1.0  0.14370  0.18516  0.68532  1.0000
  C   C179      1.0  0.05713  0.24903  0.83569  1.0000
  H   H264      1.0  0.16510  0.04626  0.81854  1.0000
  H   H265      1.0  0.04032  0.20017  0.81853  1.0000
  H   H266      1.0  0.01803  0.12707  0.70795  1.0000
  H   H267      1.0  0.23390  0.30030  0.65809  1.0000
  H   H268      1.0  0.19091  0.41948  0.78811  1.0000
  H   H269      1.0  0.00848  0.23107  0.78371  1.0000
  H   H270      1.0  0.21618  0.12953  0.69207  1.0000
  H   H271      1.0  0.20442  0.38005  0.82638  1.0000
  H   H272      1.0  0.15282  0.20942  0.66351  1.0000
  C   C180      1.0  0.20113  0.36168  0.85528  1.0000
  H   H273      1.0  0.02197  0.29097  0.83275  1.0000
  H   H274      1.0  0.23718  0.07098  0.68024  1.0000
  H   H275      1.0  0.20119  0.45977  0.76752  1.0000
  H   H276      1.0  0.00719  0.15360  0.66987  1.0000
  C   C181      1.0  0.15575  0.32443  0.87438  1.0000
  C   C182      1.0  0.18262  0.29640  0.87737  1.0000
  H   H277      1.0  0.14494  0.33379  0.86532  1.0000
  H   H278      1.0  0.14733  0.31840  0.88901  1.0000
  H   H279      1.0  0.14777  0.28939  0.87587  1.0000
  H   H280      1.0  0.19215  0.28378  0.87098  1.0000
  H   H281      1.0  0.17474  0.29030  0.89223  1.0000
  H   H282      1.0  0.19246  0.30519  0.87946  1.0000
  H   H283      1.0  0.18015  0.08095  0.77295  1.0000
  C   C183      1.0  0.12852  0.20211  0.73346  1.0000
  C   C184      1.0  0.01395  0.22310  0.79741  1.0000
  C   C185      1.0  0.20640  0.42141  0.78516  1.0000
  H   H284      1.0  0.23050  0.45233  0.79447  1.0000
  H   H285      1.0  0.13114  0.08155  0.80578  1.0000
  H   H286      1.0  0.21176  0.42376  0.76901  1.0000
  H   H287      1.0  0.17333  0.27957  0.72235  1.0000
  H   H288      1.0  0.14007  0.07601  0.82827  1.0000
  H   H289      1.0  0.02192  0.15189  0.69867  1.0000
  N   N15       1.0  0.16271  0.07614  0.80218  1.0000
  H   H290      1.0  0.15720  0.30314  0.71886  1.0000
  S   S76       1.0  0.24497  0.35950  0.74208  1.0000
  H   H291      1.0  0.15335  0.05149  0.79794  1.0000
  S   S77       1.0  0.23392  0.28949  0.89495  1.0000
  H   H292      1.0  0.23815  0.42625  0.79530  1.0000
  C   C186      1.0  0.21654  0.32338  0.67303  1.0000
  H   H293      1.0  0.18492  0.10675  0.67343  1.0000
  H   H294      1.0  0.17630  0.07154  0.82703  1.0000
  C   C187      1.0  0.16536  0.08654  0.78140  1.0000
  H   H295      1.0  0.14181  0.19909  0.72184  1.0000
  C   C188      1.0  0.14038  0.20324  0.67229  1.0000
  H   H296      1.0  0.23816  0.33999  0.88042  1.0000
  H   H297      1.0  0.13753  0.30329  0.76131  1.0000
  H   H298      1.0  0.16367  0.10266  0.78004  1.0000
  S   S78       1.0  0.20610  0.20372  0.66470  1.0000
  H   H299      1.0  0.24054  0.04577  0.71058  1.0000
  H   H300      1.0  0.01739  0.17662  0.79160  1.0000
  C   C189      1.0  0.18989  0.09811  0.68718  1.0000
  H   H301      1.0  0.20580  0.28440  0.66172  1.0000
  C   C190      1.0  0.02445  0.24147  0.84307  1.0000
  H   H302      1.0  0.00548  0.19931  0.77826  1.0000
  C   C191      1.0  0.14270  0.08369  0.81259  1.0000
  H   H303      1.0  0.20965  0.42054  0.82192  1.0000
  S   S79       1.0  0.21823  0.04597  0.75736  1.0000
  H   H304      1.0  0.17948  0.04898  0.79410  1.0000
  H   H305      1.0  0.18943  0.09172  0.72584  1.0000
  H   H306      1.0  0.20162  0.44662  0.82089  1.0000
  S   S80       1.0  0.23443  0.26188  0.93890  1.0000
  C   C192      1.0  0.20342  0.29764  0.66723  1.0000
  C   C193      1.0  0.21056  0.35028  0.87053  1.0000
  C   C194      1.0  0.22875  0.43998  0.78866  1.0000
  C   C195      1.0  0.01621  0.26158  0.83977  1.0000
  C   C196      1.0  0.01104  0.14284  0.70771  1.0000
  H   H307      1.0  0.07346  0.21404  0.89414  1.0000
  H   H308      1.0  0.17775  0.09080  0.69651  1.0000
  N   N16       1.0  0.02393  0.20259  0.79631  1.0000
  H   H309      1.0  0.18912  0.32667  0.84743  1.0000
  H   H310      1.0  0.03715  0.20987  0.76576  1.0000
  N   N17       1.0  0.06545  0.24535  0.89252  1.0000
  C   C197      1.0  0.07196  0.26329  0.88010  1.0000
  C   C198      1.0  0.06768  0.24358  0.91286  1.0000
  C   C199      1.0  0.07770  0.22791  0.88492  1.0000
  C   C200      1.0  0.04457  0.24665  0.89215  1.0000
  H   H311      1.0  0.07111  0.26473  0.86455  1.0000
  H   H312      1.0  0.08748  0.26308  0.88044  1.0000
  H   H313      1.0  0.06266  0.27686  0.88489  1.0000
  H   H314      1.0  0.06286  0.23023  0.92272  1.0000
  H   H315      1.0  0.08337  0.24251  0.91349  1.0000
  H   H316      1.0  0.05882  0.25661  0.91898  1.0000
  C   C201      1.0  0.11563  0.23248  0.71281  1.0000
  N   N18       1.0  0.12091  0.22347  0.73222  1.0000
  H   H317      1.0  0.10363  0.22640  0.71066  1.0000
  N   N19       1.0  0.19534  0.11073  0.69756  1.0000
  H   H318      1.0  0.23247  0.16685  0.66350  1.0000
  C   C202      1.0  0.23878  0.44699  0.73197  1.0000
  H   H319      1.0  0.14980  0.23038  0.72328  1.0000
  H   H320      1.0  0.18167  0.13630  0.71025  1.0000
  H   H321      1.0  0.14058  0.22606  0.74938  1.0000
  C   C203      1.0  0.13626  0.23256  0.73483  1.0000
  C   C204      1.0  0.02843  0.27540  0.83489  1.0000
  H   H322      1.0  0.02390  0.23145  0.80009  1.0000
  H   H323      1.0  0.03820  0.17709  0.81472  1.0000
  C   C205      1.0  0.10321  0.22672  0.74775  1.0000
  N   N20       1.0  0.16735  0.29476  0.74619  1.0000
  C   C206      1.0  0.16127  0.28978  0.73010  1.0000
  H   H324      1.0  0.15850  0.26984  0.76760  1.0000
  H   H325      1.0  0.10674  0.22061  0.76258  1.0000
  Fe  Fe40      1.0  0.21401  0.02328  0.78501  1.0000
  S   S81       1.0  0.24491  0.37465  0.69451  1.0000
  H   H326      1.0  0.13102  0.24867  0.73404  1.0000
  H   H327      1.0  0.11054  0.24871  0.71096  1.0000
  H   H328      1.0  0.22504  0.10842  0.68092  1.0000
  H   H329      1.0  0.05135  0.21963  0.84326  1.0000
  C   C207      1.0  0.16524  0.05481  0.80324  1.0000
  H   H330      1.0  0.23294  0.30415  0.97574  1.0000
  H   H331      1.0  0.16547  0.12018  0.71213  1.0000
  H   H332      1.0  0.18373  0.26550  0.75496  1.0000
  C   C208      1.0  0.04492  0.23521  0.84090  1.0000
  H   H333      1.0  0.15864  0.17766  0.68653  1.0000
  N   N21       1.0  0.20795  0.43804  0.79301  1.0000
  S   S82       1.0  0.21061  0.02933  0.81511  1.0000
  H   H334      1.0  0.18513  0.43258  0.81838  1.0000
  H   H335      1.0  0.14772  0.32308  0.74433  1.0000
  S   S83       1.0  0.22984  0.31003  0.93277  1.0000
  C   C209      1.0  0.01028  0.19217  0.79249  1.0000
  H   H336      1.0  0.19765  0.29296  0.73123  1.0000
  H   H337      1.0  0.17624  0.27997  0.77358  1.0000
  C   C210      1.0  0.17165  0.27673  0.76121  1.0000
  Fe  Fe41      1.0  0.16872  0.27350  0.65882  1.0000
  C   C211      1.0  0.18518  0.30336  0.73826  1.0000
  H   H338      1.0  0.18020  0.45549  0.78659  1.0000
  H   H339      1.0  0.14825  0.28268  0.73563  1.0000
  S   S84       1.0  0.22425  0.01056  0.73331  1.0000
  H   H340      1.0  0.19282  0.07394  0.80379  1.0000
  H   H341      1.0  0.15423  0.08448  0.77412  1.0000
  H   H342      1.0  0.19023  0.30723  0.75002  1.0000
  C   C212      1.0  0.19778  0.33129  0.68262  1.0000
  C   C213      1.0  0.18177  0.32267  0.68404  1.0000
  C   C214      1.0  0.04134  0.20256  0.78020  1.0000
  C   C215      1.0  0.19598  0.45642  0.78373  1.0000
  H   H343      1.0  0.18544  0.36304  0.85677  1.0000
  H   H344      1.0  0.17613  0.09537  0.81107  1.0000
  Fe  Fe42      1.0  0.23769  0.33200  0.73911  1.0000
  C   C216      1.0  0.23085  0.34869  0.86859  1.0000
  H   H345      1.0  0.05208  0.21015  0.78264  1.0000
  C   C217      1.0  0.21175  0.11978  0.68478  1.0000
  S   S85       1.0  0.00953  0.22381  0.85064  1.0000
  C   C218      1.0  0.23198  0.37035  0.83635  1.0000
  S   S86       1.0  0.16412  0.29589  0.67750  1.0000
  C   C219      1.0  0.99767  0.13161  0.76809  1.0000
  H   H346      1.0  0.23453  0.34453  0.80768  1.0000
  H   H347      1.0  0.20251  0.08616  0.68321  1.0000
  H   H348      1.0  0.04910  0.18725  0.77917  1.0000
  C   C220      1.0  0.22786  0.04283  0.81565  1.0000
  H   H349      1.0  0.21424  0.08638  0.71265  1.0000
  H   H350      1.0  0.99948  0.11596  0.77414  1.0000
  C   C221      1.0  0.20156  0.09860  0.71580  1.0000
  H   H351      1.0  0.20768  0.12888  0.67077  1.0000
  H   H352      1.0  0.23526  0.33750  0.78516  1.0000
  H   H353      1.0  0.22012  0.19500  0.95462  1.0000
  H   H354      1.0  0.22940  0.05823  0.78559  1.0000
  H   H355      1.0  0.24154  0.23538  0.97781  1.0000
  H   H356      1.0  0.24535  0.20271  0.90253  1.0000
  Fe  Fe43      1.0  0.21915  0.99060  0.76296  1.0000
  C   C222      1.0  0.23171  0.19754  0.94123  1.0000
  C   C223      1.0  0.23498  0.04029  0.83284  1.0000
  C   C224      1.0  0.24154  0.35900  0.85158  1.0000
  H   H357      1.0  0.22998  0.15919  0.95347  1.0000
  H   H358      1.0  0.22735  0.21290  0.93317  1.0000
  S   S87       1.0  0.24472  0.38290  0.81456  1.0000
  S   S88       1.0  0.24010  0.00119  0.77460  1.0000
  C   C225      1.0  0.24378  0.34290  0.79301  1.0000
  C   C226      1.0  0.23492  0.05587  0.79880  1.0000
  H   H359      1.0  0.20375  0.18142  0.93620  1.0000
  H   H360      1.0  0.24327  0.15173  0.93089  1.0000
  H   H361      1.0  0.21030  0.19955  0.91471  1.0000
  Fe  Fe44      1.0  0.18838  0.23250  0.65207  1.0000
  H   H362      1.0  0.99679  0.19220  0.80417  1.0000
  S   S89       1.0  0.20265  0.28081  0.98396  1.0000
  C   C227      1.0  0.23979  0.17818  0.65369  1.0000
  H   H363      1.0  0.24551  0.19668  0.94615  1.0000
  C   C228      1.0  0.21551  0.18450  0.92310  1.0000
  H   H364      1.0  0.21692  0.17385  0.91367  1.0000
  N   N22       1.0  0.23440  0.18310  0.92879  1.0000
  C   C229      1.0  0.24094  0.16303  0.93986  1.0000
  C   C230      1.0  0.99659  0.14478  0.67998  1.0000
  H   H365      1.0  0.24558  0.48370  0.84088  1.0000
  H   H366      1.0  0.23213  0.48931  0.82137  1.0000
  H   H367      1.0  0.02405  0.78919  0.28571  1.0000
  C   C231      1.0  0.11913  0.58145  0.30504  1.0000
  H   H368      1.0  0.06743  0.66756  0.20455  1.0000
  H   H369      1.0  0.19468  0.63144  0.22842  1.0000
  S   S90       1.0  0.20293  0.63528  0.99716  1.0000
  H   H370      1.0  0.22590  0.66580  0.98760  1.0000
  H   H371      1.0  0.21293  0.75259  0.04841  1.0000
  C   C232      1.0  0.02172  0.75646  0.27561  1.0000
  N   N23       1.0  0.06607  0.65090  0.18408  1.0000
  H   H372      1.0  0.00944  0.67911  0.21465  1.0000
  C   C233      1.0  0.09049  0.69803  0.30002  1.0000
  H   H373      1.0  0.17128  0.59011  0.27808  1.0000
  H   H374      1.0  0.22328  0.51327  0.29108  1.0000
  Fe  Fe45      1.0  0.20577  0.64976  0.12357  1.0000
  C   C234      1.0  0.00759  0.68306  0.27500  1.0000
  S   S91       1.0  0.18252  0.63396  0.14388  1.0000
  H   H375      1.0  0.06793  0.68124  0.17998  1.0000
  H   H376      1.0  0.17660  0.85273  0.31081  1.0000
  C   C235      1.0  0.02531  0.77560  0.29736  1.0000
  Fe  Fe46      1.0  0.07160  0.64729  0.25411  1.0000
  S   S92       1.0  0.06911  0.67947  0.24116  1.0000
  S   S93       1.0  0.04657  0.63133  0.26167  1.0000
  Fe  Fe47      1.0  0.11473  0.64144  0.25582  1.0000
  S   S94       1.0  0.11565  0.67325  0.24337  1.0000
  S   S95       1.0  0.14340  0.62153  0.26112  1.0000
  Fe  Fe48      1.0  0.08635  0.67905  0.26353  1.0000
  S   S96       1.0  0.07659  0.70244  0.28166  1.0000
  Fe  Fe49      1.0  0.09864  0.67021  0.22234  1.0000
  S   S97       1.0  0.10656  0.68280  0.18999  1.0000
  S   S98       1.0  0.08680  0.64742  0.27792  1.0000
  S   S99       1.0  0.09958  0.63793  0.23348  1.0000
  C   C236      1.0  0.20689  0.82343  0.30040  1.0000
  H   H377      1.0  0.04129  0.65912  0.16974  1.0000
  C   C237      1.0  0.15452  0.57245  0.30193  1.0000
  H   H378      1.0  0.06125  0.74547  0.27158  1.0000
  C   C238      1.0  0.16174  0.64803  0.15650  1.0000
  C   C239      1.0  0.15037  0.63846  0.17328  1.0000
  C   C240      1.0  0.13411  0.64923  0.18414  1.0000
  C   C241      1.0  0.12830  0.66953  0.17765  1.0000
  C   C242      1.0  0.13945  0.67909  0.16063  1.0000
  C   C243      1.0  0.15641  0.66844  0.15030  1.0000
  H   H379      1.0  0.15425  0.62266  0.17802  1.0000
  H   H380      1.0  0.12587  0.64166  0.19727  1.0000
  H   H381      1.0  0.13507  0.69480  0.15551  1.0000
  H   H382      1.0  0.16507  0.67594  0.13732  1.0000
  H   H383      1.0  0.20655  0.61367  0.17340  1.0000
  H   H384      1.0  0.09194  0.63066  0.17325  1.0000
  C   C244      1.0  0.05761  0.65411  0.16644  1.0000
  H   H385      1.0  0.23830  0.57469  0.27467  1.0000
  H   H386      1.0  0.19721  0.64873  0.17441  1.0000
  C   C245      1.0  0.10320  0.67993  0.30470  1.0000
  H   H387      1.0  0.03205  0.69921  0.28631  1.0000
  H   H388      1.0  0.09466  0.65589  0.16791  1.0000
  C   C246      1.0  0.02832  0.66152  0.29687  1.0000
  C   C247      1.0  0.12131  0.59735  0.28910  1.0000
  H   H389      1.0  0.22292  0.73148  0.07869  1.0000
  H   H390      1.0  0.14207  0.62784  0.30438  1.0000
  C   C248      1.0  0.01393  0.62839  0.25041  1.0000
  C   C249      1.0  0.02756  0.64015  0.24826  1.0000
  C   C250      1.0  0.02590  0.65850  0.23542  1.0000
  N   N24       1.0  0.16060  0.68941  0.00670  1.0000
  S   S100      1.0  0.21545  0.57717  0.31300  1.0000
  H   H391      1.0  0.01520  0.61413  0.26026  1.0000
  H   H392      1.0  0.03624  0.66774  0.23380  1.0000
  H   H393      1.0  0.14741  0.66383  0.01549  1.0000
  C   C251      1.0  0.21217  0.64585  0.01174  1.0000
  C   C252      1.0  0.20769  0.64003  0.03225  1.0000
  C   C253      1.0  0.08869  0.71284  0.31022  1.0000
  Fe  Fe50      1.0  0.22606  0.66618  0.08247  1.0000
  C   C254      1.0  0.21337  0.64953  0.04423  1.0000
  Fe  Fe51      1.0  0.22611  0.68371  0.11664  1.0000
  H   H394      1.0  0.22260  0.81751  0.29446  1.0000
  H   H395      1.0  0.00675  0.70970  0.29567  1.0000
  C   C255      1.0  0.01856  0.69621  0.29732  1.0000
  H   H396      1.0  0.17705  0.71181  0.00349  1.0000
  H   H397      1.0  0.04521  0.67507  0.19481  1.0000
  H   H398      1.0  0.06292  0.63350  0.21354  1.0000
  C   C256      1.0  0.05764  0.63560  0.19962  1.0000
  H   H399      1.0  0.06080  0.64034  0.16073  1.0000
  H   H400      1.0  0.10844  0.60698  0.28422  1.0000
  C   C257      1.0  0.15670  0.58792  0.28572  1.0000
  H   H401      1.0  0.21435  0.86128  0.31633  1.0000
  H   H402      1.0  0.02789  0.74319  0.26898  1.0000
  H   H403      1.0  0.15068  0.67289  0.03551  1.0000
  C   C258      1.0  0.15728  0.67071  0.02027  1.0000
  H   H404      1.0  0.24005  0.52583  0.30979  1.0000
  H   H405      1.0  0.21916  0.49330  0.31152  1.0000
  C   C259      1.0  0.22338  0.62519  0.19681  1.0000
  C   C260      1.0  0.22985  0.49804  0.29796  1.0000
  H   H406      1.0  0.23629  0.68224  0.00859  1.0000
  S   S101      1.0  0.23030  0.73938  0.98927  1.0000
  N   N25       1.0  0.03392  0.75779  0.28893  1.0000
  H   H407      1.0  0.20091  0.60570  0.22758  1.0000
  H   H408      1.0  0.22857  0.71048  0.06754  1.0000
  C   C261      1.0  0.18141  0.62185  0.29288  1.0000
  S   S102      1.0  0.20171  0.68002  0.10430  1.0000
  H   H409      1.0  0.06372  0.66553  0.15444  1.0000
  H   H410      1.0  0.13420  0.70652  0.02084  1.0000
  H   H411      1.0  0.16743  0.56309  0.30677  1.0000
  C   C262      1.0  0.22354  0.66486  0.03567  1.0000
  H   H412      1.0  0.19958  0.62834  0.03890  1.0000
  C   C263      1.0  0.16575  0.65113  0.30590  1.0000
  H   H413      1.0  0.03455  0.77732  0.30702  1.0000
  C   C264      1.0  0.14013  0.60074  0.27965  1.0000
  H   H414      1.0  0.06170  0.62112  0.19515  1.0000
  H   H415      1.0  0.17969  0.65674  0.30053  1.0000
  C   C265      1.0  0.22517  0.74344  0.03970  1.0000
  H   H416      1.0  0.23159  0.61043  0.20305  1.0000
  C   C266      1.0  0.01077  0.66490  0.22457  1.0000
  N   N26       1.0  0.24178  0.73474  0.05005  1.0000
  C   C267      1.0  0.08768  0.64442  0.17910  1.0000
  H   H417      1.0  0.17750  0.62022  0.22288  1.0000
  H   H418      1.0  0.04126  0.63955  0.20309  1.0000
  H   H419      1.0  0.21918  0.73178  0.03668  1.0000
  C   C268      1.0  0.23998  0.56625  0.30531  1.0000
  H   H420      1.0  0.10458  0.57898  0.31251  1.0000
  C   C269      1.0  0.99725  0.65300  0.22659  1.0000
  C   C270      1.0  0.03456  0.74017  0.30493  1.0000
  N   N27       1.0  0.01226  0.67903  0.29476  1.0000
  C   C271      1.0  0.99888  0.63474  0.23953  1.0000
  C   C272      1.0  0.15072  0.62253  0.31634  1.0000
  H   H421      1.0  0.22578  0.63608  0.20416  1.0000
  H   H422      1.0  0.01029  0.77500  0.30642  1.0000
  H   H423      1.0  0.20712  0.59546  0.19578  1.0000
  H   H424      1.0  0.24048  0.58743  0.17504  1.0000
  S   S103      1.0  0.22818  0.63535  0.10049  1.0000
  H   H425      1.0  0.14362  0.71770  0.99599  1.0000
  H   H426      1.0  0.02203  0.69375  0.31217  1.0000
  H   H427      1.0  0.04108  0.72645  0.29918  1.0000
  C   C273      1.0  0.13576  0.56921  0.31172  1.0000
  H   H428      1.0  0.10466  0.66836  0.29698  1.0000
  H   H429      1.0  0.02083  0.76957  0.26337  1.0000
  C   C274      1.0  0.22265  0.66095  0.00327  1.0000
  H   H430      1.0  0.17580  0.64604  0.19322  1.0000
  H   H431      1.0  0.06373  0.75993  0.28755  1.0000
  H   H432      1.0  0.19434  0.65679  0.19691  1.0000
  H   H433      1.0  0.23849  0.76032  0.06202  1.0000
  C   C275      1.0  0.06138  0.66951  0.19117  1.0000
  C   C276      1.0  0.14157  0.70341  0.00605  1.0000
  H   H434      1.0  0.12770  0.51669  0.31007  1.0000
  H   H435      1.0  0.09435  0.64155  0.19223  1.0000
  H   H436      1.0  0.23034  0.62889  0.18098  1.0000
  H   H437      1.0  0.19998  0.83228  0.28780  1.0000
  S   S104      1.0  0.22835  0.71265  0.12137  1.0000
  C   C277      1.0  0.19347  0.62045  0.22048  1.0000
  H   H438      1.0  0.02072  0.68547  0.26327  1.0000
  H   H439      1.0  0.18818  0.68756  0.01462  1.0000
  N   N28       1.0  0.20218  0.62534  0.19933  1.0000
  H   H440      1.0  0.17348  0.62702  0.28039  1.0000
  H   H441      1.0  0.20962  0.64520  0.06005  1.0000
  C   C278      1.0  0.05417  0.75885  0.27788  1.0000
  H   H442      1.0  0.18411  0.61056  0.19054  1.0000
  H   H443      1.0  0.15666  0.65729  0.29434  1.0000
  H   H444      1.0  0.22983  0.75295  0.02524  1.0000
  H   H445      1.0  0.04384  0.74067  0.31503  1.0000
  H   H446      1.0  0.13134  0.69750  0.00068  1.0000
  C   C279      1.0  0.22839  0.67038  0.01520  1.0000
  C   C280      1.0  0.19198  0.64509  0.19061  1.0000
  C   C281      1.0  0.17383  0.69791  0.01362  1.0000
  H   H447      1.0  0.00636  0.75558  0.28353  1.0000
  S   S105      1.0  0.22811  0.65483  0.13789  1.0000
  C   C282      1.0  0.23473  0.72261  0.06927  1.0000
  H   H448      1.0  0.18468  0.60547  0.29595  1.0000
  C   C283      1.0  0.19989  0.61058  0.18936  1.0000
  H   H449      1.0  0.19584  0.62654  0.28803  1.0000
  H   H450      1.0  0.05432  0.77189  0.26557  1.0000
  H   H451      1.0  0.04176  0.66364  0.28545  1.0000
  H   H452      1.0  0.16738  0.70117  0.02851  1.0000
  N   N29       1.0  0.20514  0.83539  0.31501  1.0000
  N   N30       1.0  0.16960  0.62936  0.31046  1.0000
  S   S106      1.0  0.22941  0.67828  0.04998  1.0000
  H   H453      1.0  0.19948  0.81066  0.30701  1.0000
  H   H454      1.0  0.17133  0.65976  0.02088  1.0000
  H   H455      1.0  0.00234  0.67059  0.27269  1.0000
  H   H456      1.0  0.07902  0.72689  0.30670  1.0000
  H   H457      1.0  0.21421  0.70681  0.98944  1.0000
  H   H458      1.0  0.01962  0.73890  0.31382  1.0000
  H   H459      1.0  0.03256  0.65821  0.31144  1.0000
  C   C284      1.0  0.21510  0.85215  0.30564  1.0000
  H   H460      1.0  0.02397  0.64823  0.29524  1.0000
  H   H461      1.0  0.23103  0.84707  0.29971  1.0000
  H   H462      1.0  0.20832  0.86195  0.29332  1.0000
  C   C285      1.0  0.16973  0.68561  0.98682  1.0000
  H   H463      1.0  0.18444  0.67567  0.98664  1.0000
  H   H464      1.0  0.99584  0.69646  0.27274  1.0000
  H   H465      1.0  0.24559  0.60921  0.14211  1.0000
  C   C286      1.0  0.13400  0.62336  0.54306  1.0000
  Fe  Fe52      1.0  0.20239  0.67053  0.60121  1.0000
  H   H466      1.0  0.18207  0.85124  0.33428  1.0000
  C   C287      1.0  0.23726  0.83145  0.43268  1.0000
  C   C288      1.0  0.23620  0.94768  0.37064  1.0000
  S   S107      1.0  0.19694  0.69588  0.61619  1.0000
  C   C289      1.0  0.16222  0.72977  0.42445  1.0000
  H   H467      1.0  0.18757  0.74036  0.44020  1.0000
  C   C290      1.0  0.22706  0.70745  0.54443  1.0000
  Fe  Fe53      1.0  0.17788  0.54796  0.37832  1.0000
  S   S108      1.0  0.16974  0.56902  0.35139  1.0000
  H   H468      1.0  0.20373  0.88817  0.44636  1.0000
  H   H469      1.0  0.19862  0.92855  0.45619  1.0000
  H   H470      1.0  0.17423  0.64045  0.51500  1.0000
  Fe  Fe54      1.0  0.16034  0.54407  0.34535  1.0000
  S   S109      1.0  0.13323  0.55032  0.33263  1.0000
  S   S110      1.0  0.16533  0.52384  0.37388  1.0000
  Fe  Fe55      1.0  0.19806  0.89544  0.37218  1.0000
  H   H471      1.0  0.22920  0.69026  0.50129  1.0000
  S   S111      1.0  0.18887  0.92865  0.36609  1.0000
  Fe  Fe56      1.0  0.18093  0.85889  0.37725  1.0000
  S   S112      1.0  0.20797  0.83819  0.38564  1.0000
  S   S113      1.0  0.15389  0.84925  0.37509  1.0000
  Fe  Fe57      1.0  0.20819  0.85955  0.40360  1.0000
  H   H472      1.0  0.20360  0.90899  0.40338  1.0000
  H   H473      1.0  0.15875  0.62811  0.50825  1.0000
  S   S114      1.0  0.17943  0.87866  0.39764  1.0000
  S   S115      1.0  0.19725  0.87723  0.35115  1.0000
  Fe  Fe58      1.0  0.16982  0.65046  0.46351  1.0000
  S   S116      1.0  0.18653  0.66032  0.43314  1.0000
  S   S117      1.0  0.13754  0.65085  0.47286  1.0000
  Fe  Fe59      1.0  0.20601  0.63821  0.48176  1.0000
  S   S118      1.0  0.22612  0.64596  0.45279  1.0000
  S   S119      1.0  0.21728  0.62515  0.51011  1.0000
  Fe  Fe60      1.0  0.20291  0.67324  0.44802  1.0000
  H   H474      1.0  0.17929  0.91834  0.45311  1.0000
  Fe  Fe61      1.0  0.20806  0.63225  0.44048  1.0000
  S   S120      1.0  0.22060  0.61505  0.41643  1.0000
  S   S121      1.0  0.18370  0.66637  0.47761  1.0000
  S   S122      1.0  0.19037  0.62152  0.47001  1.0000
  Fe  Fe62      1.0  0.13079  0.75281  0.36361  1.0000
  S   S123      1.0  0.10037  0.76439  0.37947  1.0000
  S   S124      1.0  0.15829  0.76502  0.35908  1.0000
  Fe  Fe63      1.0  0.11948  0.71613  0.35907  1.0000
  S   S125      1.0  0.08878  0.72422  0.37547  1.0000
  H   H475      1.0  0.24126  0.75163  0.53238  1.0000
  Fe  Fe64      1.0  0.08959  0.75442  0.35733  1.0000
  Fe  Fe65      1.0  0.10185  0.73324  0.39604  1.0000
  S   S126      1.0  0.08732  0.72602  0.42772  1.0000
  H   H476      1.0  0.02211  0.75603  0.43773  1.0000
  S   S127      1.0  0.13283  0.72194  0.38170  1.0000
  C   C291      1.0  0.12370  0.67204  0.46061  1.0000
  C   C292      1.0  0.10313  0.67562  0.46574  1.0000
  C   C293      1.0  0.09194  0.69245  0.45584  1.0000
  C   C294      1.0  0.10132  0.70538  0.44046  1.0000
  C   C295      1.0  0.12185  0.70176  0.43530  1.0000
  C   C296      1.0  0.13305  0.68527  0.44557  1.0000
  H   H477      1.0  0.09586  0.66545  0.47743  1.0000
  H   H478      1.0  0.07604  0.69527  0.45990  1.0000
  H   H479      1.0  0.12904  0.71192  0.42368  1.0000
  H   H480      1.0  0.14887  0.68287  0.44187  1.0000
  C   C297      1.0  0.15518  0.82541  0.37169  1.0000
  C   C298      1.0  0.17306  0.81191  0.36954  1.0000
  C   C299      1.0  0.17385  0.79354  0.36540  1.0000
  C   C300      1.0  0.15667  0.78831  0.36402  1.0000
  C   C301      1.0  0.13868  0.80155  0.36678  1.0000
  C   C302      1.0  0.13799  0.82012  0.37042  1.0000
  H   H481      1.0  0.18629  0.81576  0.37081  1.0000
  H   H482      1.0  0.17412  0.71731  0.42902  1.0000
  H   H483      1.0  0.12536  0.79768  0.36571  1.0000
  H   H484      1.0  0.12409  0.83050  0.37211  1.0000
  C   C303      1.0  0.19082  0.92705  0.44518  1.0000
  H   H485      1.0  0.21266  0.94451  0.41183  1.0000
  H   H486      1.0  0.03768  0.77118  0.40404  1.0000
  H   H487      1.0  0.19819  0.73609  0.40584  1.0000
  C   C304      1.0  0.22148  0.69636  0.47296  1.0000
  C   C305      1.0  0.09971  0.70973  0.32479  1.0000
  H   H488      1.0  0.05676  0.71693  0.41391  1.0000
  C   C306      1.0  0.04915  0.73637  0.35203  1.0000
  H   H489      1.0  0.20943  0.68876  0.47830  1.0000
  H   H490      1.0  0.01503  0.74783  0.39100  1.0000
  C   C307      1.0  0.18560  0.74820  0.40218  1.0000
  H   H491      1.0  0.15796  0.72663  0.41182  1.0000
  H   H492      1.0  0.18242  0.90651  0.42261  1.0000
  H   H493      1.0  0.23066  0.81801  0.32640  1.0000
  Fe  Fe66      1.0  0.19969  0.55605  0.33642  1.0000
  C   C308      1.0  0.24107  0.71581  0.44651  1.0000
  H   H494      1.0  0.13964  0.76602  0.42599  1.0000
  S   S128      1.0  0.24333  0.98093  0.37719  1.0000
  C   C309      1.0  0.11252  0.69172  0.32945  1.0000
  C   C310      1.0  0.18329  0.57506  0.40885  1.0000
  C   C311      1.0  0.17811  0.58349  0.42551  1.0000
  C   C312      1.0  0.18938  0.59591  0.42789  1.0000
  C   C313      1.0  0.20605  0.59976  0.41370  1.0000
  C   C314      1.0  0.21111  0.59150  0.39693  1.0000
  C   C315      1.0  0.19968  0.57928  0.39444  1.0000
  S   S129      1.0  0.22382  0.66655  0.64700  1.0000
  H   H495      1.0  0.18535  0.60217  0.44085  1.0000
  S   S130      1.0  0.18977  0.53252  0.32823  1.0000
  H   H496      1.0  0.20375  0.57291  0.38151  1.0000
  H   H497      1.0  0.06429  0.72889  0.35092  1.0000
  H   H498      1.0  0.21142  0.71275  0.54277  1.0000
  C   C316      1.0  0.03444  0.72534  0.35632  1.0000
  N   N31       1.0  0.16880  0.74874  0.41899  1.0000
  H   H499      1.0  0.18381  0.60549  0.33038  1.0000
  H   H500      1.0  0.24152  0.83339  0.40155  1.0000
  H   H501      1.0  0.19101  0.76225  0.39769  1.0000
  H   H502      1.0  0.18320  0.94208  0.43889  1.0000
  H   H503      1.0  0.16547  0.58021  0.43672  1.0000
  C   C317      1.0  0.17502  0.75213  0.43583  1.0000
  C   C318      1.0  0.01315  0.74737  0.40695  1.0000
  H   H504      1.0  0.23054  0.92261  0.40794  1.0000
  H   H505      1.0  0.16867  0.59888  0.53344  1.0000
  C   C319      1.0  0.04222  0.72180  0.40936  1.0000
  H   H506      1.0  0.24190  0.65505  0.49870  1.0000
  H   H507      1.0  0.00524  0.76224  0.40958  1.0000
  C   C320      1.0  0.04431  0.75693  0.34844  1.0000
  C   C321      1.0  0.20444  0.94345  0.36786  1.0000
  C   C322      1.0  0.22435  0.93579  0.36833  1.0000
  S   S131      1.0  0.22683  0.87773  0.37978  1.0000
  C   C323      1.0  0.22821  0.96723  0.37266  1.0000
  C   C324      1.0  0.20837  0.97500  0.37193  1.0000
  C   C325      1.0  0.19654  0.96313  0.36947  1.0000
  H   H508      1.0  0.20780  0.73680  0.56376  1.0000
  H   H509      1.0  0.22776  0.93191  0.42964  1.0000
  H   H510      1.0  0.18361  0.61165  0.54034  1.0000
  H   H511      1.0  0.18115  0.96916  0.36903  1.0000
  H   H512      1.0  0.05933  0.75232  0.40640  1.0000
  C   C326      1.0  0.19946  0.66395  0.55592  1.0000
  C   C327      1.0  0.20922  0.64437  0.56070  1.0000
  C   C328      1.0  0.21495  0.63253  0.54650  1.0000
  C   C329      1.0  0.21107  0.64032  0.52752  1.0000
  C   C330      1.0  0.20203  0.66008  0.52269  1.0000
  H   H513      1.0  0.12284  0.63715  0.54011  1.0000
  H   H514      1.0  0.21192  0.63824  0.57543  1.0000
  H   H515      1.0  0.20631  0.60768  0.64824  1.0000
  H   H516      1.0  0.19961  0.66645  0.50806  1.0000
  C   C331      1.0  0.19606  0.67179  0.53685  1.0000
  S   S132      1.0  0.19464  0.64884  0.62923  1.0000
  C   C332      1.0  0.01481  0.73478  0.35632  1.0000
  Fe  Fe67      1.0  0.22437  0.85794  0.36118  1.0000
  H   H517      1.0  0.14250  0.50881  0.34918  1.0000
  C   C333      1.0  0.21954  0.92968  0.41936  1.0000
  C   C334      1.0  0.22581  0.70527  0.45315  1.0000
  H   H518      1.0  0.18142  0.74577  0.38915  1.0000
  H   H519      1.0  0.17991  0.76642  0.43221  1.0000
  H   H520      1.0  0.22476  0.82340  0.64214  1.0000
  S   S133      1.0  0.19036  0.67890  0.57342  1.0000
  H   H521      1.0  0.16497  0.60102  0.55864  1.0000
  H   H522      1.0  0.14690  0.76235  0.40124  1.0000
  C   C335      1.0  0.21453  0.89774  0.43847  1.0000
  H   H523      1.0  0.99763  0.67206  0.32492  1.0000
  S   S134      1.0  0.16896  0.55944  0.40639  1.0000
  S   S135      1.0  0.23481  0.66271  0.60060  1.0000
  H   H524      1.0  0.04369  0.73691  0.43941  1.0000
  N   N32       1.0  0.03238  0.74161  0.41315  1.0000
  N   N33       1.0  0.20463  0.91757  0.42964  1.0000
  C   C336      1.0  0.19360  0.91581  0.41548  1.0000
  H   H525      1.0  0.23650  0.50596  0.33027  1.0000
  C   C337      1.0  0.14856  0.49922  0.33817  1.0000
  H   H526      1.0  0.23063  0.92073  0.36687  1.0000
  H   H527      1.0  0.18869  0.68698  0.53302  1.0000
  C   C338      1.0  0.21455  0.82308  0.33140  1.0000
  H   H528      1.0  0.20802  0.80983  0.33830  1.0000
  Fe  Fe68      1.0  0.19579  0.51409  0.35711  1.0000
  H   H529      1.0  0.13318  0.61367  0.53347  1.0000
  S   S136      1.0  0.99674  0.72049  0.36218  1.0000
  H   H530      1.0  0.24361  0.73481  0.51683  1.0000
  H   H531      1.0  0.03836  0.70942  0.35929  1.0000
  H   H532      1.0  0.03318  0.71061  0.41747  1.0000
  H   H533      1.0  0.04781  0.75628  0.38593  1.0000
  H   H534      1.0  0.22742  0.69461  0.55700  1.0000
  H   H535      1.0  0.18779  0.78330  0.36334  1.0000
  H   H536      1.0  0.02005  0.73061  0.44329  1.0000
  C   C339      1.0  0.15914  0.63738  0.51843  1.0000
  Fe  Fe69      1.0  0.19215  0.67359  0.64419  1.0000
  C   C340      1.0  0.23270  0.69728  0.48599  1.0000
  H   H537      1.0  0.02077  0.78235  0.34525  1.0000
  S   S137      1.0  0.20898  0.53660  0.36375  1.0000
  H   H538      1.0  0.16282  0.75231  0.44891  1.0000
  S   S138      1.0  0.21275  0.70222  0.43670  1.0000
  H   H539      1.0  0.12956  0.61590  0.55860  1.0000
  H   H540      1.0  0.15314  0.60615  0.31977  1.0000
  H   H541      1.0  0.14931  0.72971  0.43686  1.0000
  S   S139      1.0  0.11996  0.74602  0.33959  1.0000
  H   H542      1.0  0.06852  0.77568  0.63584  1.0000
  N   N34       1.0  0.23523  0.72313  0.54768  1.0000
  H   H543      1.0  0.21281  0.83143  0.34307  1.0000
  N   N35       1.0  0.15397  0.62756  0.53919  1.0000
  C   C341      1.0  0.16839  0.60893  0.54311  1.0000
  H   H544      1.0  0.13118  0.73397  0.63291  1.0000
  H   H545      1.0  0.00342  0.73674  0.41490  1.0000
  C   C342      1.0  0.15443  0.64056  0.55207  1.0000
  H   H546      1.0  0.17217  0.62715  0.34023  1.0000
  H   H547      1.0  0.15772  0.65734  0.31910  1.0000
  C   C343      1.0  0.18061  0.62187  0.32667  1.0000
  H   H548      1.0  0.18577  0.93044  0.40855  1.0000
  H   H549      1.0  0.04488  0.72154  0.39348  1.0000
  H   H550      1.0  0.09828  0.72138  0.33234  1.0000
  S   S140      1.0  0.12680  0.68817  0.34738  1.0000
  H   H551      1.0  0.14878  0.65164  0.51484  1.0000
  C   C344      1.0  0.13228  0.72500  0.64734  1.0000
  H   H552      1.0  0.16937  0.64378  0.54969  1.0000
  C   C345      1.0  0.02937  0.74129  0.43435  1.0000
  H   H553      1.0  0.14407  0.65495  0.54923  1.0000
  N   N36       1.0  0.14831  0.64533  0.40304  1.0000
  C   C346      1.0  0.14497  0.66694  0.40062  1.0000
  C   C347      1.0  0.14506  0.63615  0.42419  1.0000
  C   C348      1.0  0.16875  0.63778  0.39361  1.0000
  C   C349      1.0  0.13442  0.64041  0.39369  1.0000
  H   H554      1.0  0.14690  0.67436  0.38481  1.0000
  H   H555      1.0  0.15539  0.67125  0.40720  1.0000
  H   H556      1.0  0.12976  0.67308  0.40783  1.0000
  H   H557      1.0  0.14713  0.61986  0.42653  1.0000
  H   H558      1.0  0.15553  0.63922  0.43167  1.0000
  H   H559      1.0  0.12994  0.64180  0.43195  1.0000
  H   H560      1.0  0.17158  0.62157  0.39467  1.0000
  H   H561      1.0  0.17970  0.64059  0.40073  1.0000
  H   H562      1.0  0.17194  0.64481  0.37778  1.0000
  H   H563      1.0  0.13666  0.62420  0.39501  1.0000
  H   H564      1.0  0.13623  0.64742  0.37777  1.0000
  H   H565      1.0  0.11885  0.64572  0.40060  1.0000
  H   H566      1.0  0.15794  0.70452  0.63672  1.0000
  H   H567      1.0  0.22212  0.61727  0.55033  1.0000
  H   H568      1.0  0.15042  0.63372  0.56788  1.0000
  C   C350      1.0  0.02466  0.76643  0.34813  1.0000
  Fe  Fe70      1.0  0.22880  0.68652  0.61757  1.0000
  S   S141      1.0  0.06250  0.77085  0.34477  1.0000
  H   H569      1.0  0.15694  0.77934  0.40852  1.0000
  Fe  Fe71      1.0  0.22682  0.64327  0.63007  1.0000
  C   C351      1.0  0.15236  0.76483  0.41348  1.0000
  H   H570      1.0  0.23733  0.82615  0.46359  1.0000
  H   H571      1.0  0.22320  0.89838  0.44912  1.0000
  S   S142      1.0  0.21594  0.85010  0.43351  1.0000
  C   C352      1.0  0.23856  0.71962  0.64256  1.0000
  H   H572      1.0  0.23782  0.88324  0.32419  1.0000
  C   C353      1.0  0.18407  0.84281  0.32261  1.0000
  C   C354      1.0  0.00994  0.75538  0.35181  1.0000
  C   C355      1.0  0.03087  0.77092  0.64393  1.0000
  H   H573      1.0  0.22261  0.71782  0.57850  1.0000
  H   H574      1.0  0.23550  0.70195  0.53099  1.0000
  C   C356      1.0  0.11398  0.67670  0.31957  1.0000
  H   H575      1.0  0.24444  0.72284  0.43119  1.0000
  C   C357      1.0  0.04481  0.75598  0.40192  1.0000
  H   H576      1.0  0.22949  0.74133  0.56897  1.0000
  N   N37       1.0  0.13287  0.49195  0.33377  1.0000
  C   C358      1.0  0.22325  0.73014  0.56547  1.0000
  H   H577      1.0  0.22395  0.59448  0.38588  1.0000
  H   H578      1.0  0.05200  0.79910  0.63706  1.0000
  H   H579      1.0  0.21959  0.74617  0.52810  1.0000
  C   C359      1.0  0.23486  0.73968  0.53053  1.0000
  H   H580      1.0  0.17597  0.83055  0.32922  1.0000
  H   H581      1.0  0.14139  0.62781  0.32961  1.0000
  H   H582      1.0  0.22484  0.89007  0.42705  1.0000
  H   H583      1.0  0.19508  0.62649  0.32263  1.0000
  H   H584      1.0  0.15637  0.50808  0.32482  1.0000
  H   H585      1.0  0.04073  0.76166  0.63363  1.0000
  H   H586      1.0  0.11248  0.51970  0.33336  1.0000
  H   H587      1.0  0.02426  0.78503  0.63502  1.0000
  H   H588      1.0  0.11459  0.49266  0.36241  1.0000
  C   C360      1.0  0.14754  0.70840  0.64950  1.0000
  C   C361      1.0  0.11956  0.50871  0.32385  1.0000
  C   C362      1.0  0.05776  0.78461  0.64596  1.0000
  H   H589      1.0  0.23190  0.70682  0.64832  1.0000
  H   H590      1.0  0.24237  0.80216  0.65065  1.0000
  H   H591      1.0  0.10764  0.50383  0.32006  1.0000
  H   H592      1.0  0.12331  0.66257  0.32347  1.0000
  H   H593      1.0  0.24511  0.82634  0.65085  1.0000
  C   C363      1.0  0.24468  0.82191  0.44974  1.0000
  S   S143      1.0  0.16952  0.67767  0.67166  1.0000
  C   C364      1.0  0.18052  0.94617  0.74863  1.0000
  Fe  Fe72      1.0  0.19275  0.88587  0.73514  1.0000
  S   S144      1.0  0.19975  0.85636  0.75500  1.0000
  S   S145      1.0  0.17141  0.91240  0.74427  1.0000
  Fe  Fe73      1.0  0.22142  0.87305  0.69985  1.0000
  H   H594      1.0  0.22201  0.84524  0.67455  1.0000
  Fe  Fe74      1.0  0.19895  0.84409  0.72931  1.0000
  S   S146      1.0  0.18649  0.81721  0.73225  1.0000
  C   C365      1.0  0.00738  0.63083  0.82794  1.0000
  C   C366      1.0  0.24438  0.49285  0.82601  1.0000
  S   S147      1.0  0.18920  0.87350  0.71077  1.0000
  S   S148      1.0  0.22419  0.88818  0.72243  1.0000
  C   C367      1.0  0.19412  0.72387  0.69967  1.0000
  S   S149      1.0  0.22630  0.65845  0.90728  1.0000
  S   S150      1.0  0.21053  0.71088  0.92135  1.0000
  C   C368      1.0  0.22593  0.96229  0.81593  1.0000
  C   C369      1.0  0.19239  0.95634  0.75379  1.0000
  H   H595      1.0  0.15174  0.70655  0.71735  1.0000
  C   C370      1.0  0.21437  0.71985  0.94042  1.0000
  C   C371      1.0  0.17652  0.63194  0.89482  1.0000
  Fe  Fe75      1.0  0.05933  0.77702  0.72052  1.0000
  S   S151      1.0  0.07676  0.74686  0.71752  1.0000
  S   S152      1.0  0.02606  0.78387  0.72872  1.0000
  Fe  Fe76      1.0  0.09614  0.79558  0.70826  1.0000
  S   S153      1.0  0.11627  0.76706  0.70358  1.0000
  S   S154      1.0  0.10863  0.82313  0.70184  1.0000
  Fe  Fe77      1.0  0.09322  0.76284  0.68976  1.0000
  C   C372      1.0  0.19324  0.61242  0.71519  1.0000
  Fe  Fe78      1.0  0.09807  0.75397  0.73170  1.0000
  S   S155      1.0  0.11378  0.73414  0.75507  1.0000
  S   S156      1.0  0.07447  0.79265  0.69168  1.0000
  S   S157      1.0  0.07918  0.78283  0.73749  1.0000
  H   H596      1.0  0.22157  0.58504  0.90553  1.0000
  C   C373      1.0  0.17082  0.64345  0.71779  1.0000
  H   H597      1.0  0.22315  0.92785  0.81014  1.0000
  Fe  Fe79      1.0  0.21384  0.51316  0.77114  1.0000
  S   S158      1.0  0.22210  0.54234  0.75629  1.0000
  S   S159      1.0  0.19740  0.50388  0.80179  1.0000
  H   H598      1.0  0.03541  0.78868  0.68195  1.0000
  C   C374      1.0  0.22831  0.87473  0.80217  1.0000
  H   H599      1.0  0.18937  0.97226  0.75065  1.0000
  S   S160      1.0  0.20721  0.50685  0.74469  1.0000
  H   H600      1.0  0.24102  0.56200  0.69918  1.0000
  Fe  Fe80      1.0  0.13040  0.63724  0.83179  1.0000
  S   S161      1.0  0.14792  0.61625  0.81221  1.0000
  S   S162      1.0  0.14422  0.65622  0.84317  1.0000
  Fe  Fe81      1.0  0.09047  0.63287  0.82562  1.0000
  S   S163      1.0  0.10491  0.61150  0.80585  1.0000
  S   S164      1.0  0.05748  0.64427  0.83319  1.0000
  Fe  Fe82      1.0  0.12485  0.59820  0.82755  1.0000
  S   S165      1.0  0.12928  0.56588  0.84084  1.0000
  Fe  Fe83      1.0  0.12634  0.63162  0.79245  1.0000
  S   S166      1.0  0.13296  0.64285  0.75978  1.0000
  S   S167      1.0  0.10875  0.61812  0.84865  1.0000
  S   S168      1.0  0.11051  0.65397  0.81076  1.0000
  C   C375      1.0  0.17872  0.52185  0.81182  1.0000
  C   C376      1.0  0.17520  0.54161  0.80205  1.0000
  C   C377      1.0  0.16016  0.55550  0.81084  1.0000
  C   C378      1.0  0.14865  0.54951  0.82930  1.0000
  C   C379      1.0  0.15234  0.52979  0.83896  1.0000
  C   C380      1.0  0.16735  0.51606  0.83032  1.0000
  H   H601      1.0  0.18393  0.54619  0.78774  1.0000
  H   H602      1.0  0.15733  0.57073  0.80330  1.0000
  H   H603      1.0  0.14351  0.52511  0.85321  1.0000
  H   H604      1.0  0.14752  0.73963  0.72345  1.0000
  C   C381      1.0  0.12117  0.70914  0.75416  1.0000
  C   C382      1.0  0.13202  0.69664  0.76783  1.0000
  C   C383      1.0  0.13647  0.67631  0.76887  1.0000
  C   C384      1.0  0.13022  0.66840  0.75613  1.0000
  C   C385      1.0  0.12027  0.68095  0.74169  1.0000
  C   C386      1.0  0.11556  0.70136  0.74082  1.0000
  H   H605      1.0  0.13640  0.70260  0.77818  1.0000
  H   H606      1.0  0.14433  0.66668  0.77995  1.0000
  H   H607      1.0  0.11535  0.67483  0.73185  1.0000
  H   H608      1.0  0.10716  0.71096  0.73025  1.0000
  H   H609      1.0  0.06146  0.74608  0.65929  1.0000
  H   H610      1.0  0.19812  0.73852  0.69305  1.0000
  H   H611      1.0  0.19783  0.96983  0.84704  1.0000
  H   H612      1.0  0.18536  0.95036  0.84866  1.0000
  H   H613      1.0  0.16867  0.60439  0.89624  1.0000
  C   C387      1.0  0.15840  0.61335  0.72638  1.0000
  H   H614      1.0  0.20088  0.71757  0.71289  1.0000
  Fe  Fe84      1.0  0.23910  0.49256  0.73829  1.0000
  H   H615      1.0  0.10721  0.90107  0.75500  1.0000
  H   H616      1.0  0.16840  0.95430  0.74148  1.0000
  H   H617      1.0  0.14291  0.87770  0.71616  1.0000
  H   H618      1.0  0.20500  0.61932  0.70449  1.0000
  H   H619      1.0  0.13629  0.69279  0.69898  1.0000
  H   H620      1.0  0.17180  0.69947  0.97596  1.0000
  Fe  Fe85      1.0  0.20426  0.64021  0.92558  1.0000
  H   H621      1.0  0.13088  0.90118  0.75931  1.0000
  C   C388      1.0  0.21603  0.71542  0.97465  1.0000
  H   H622      1.0  0.22287  0.51155  0.85486  1.0000
  C   C389      1.0  0.17540  0.65156  0.88493  1.0000
  C   C390      1.0  0.16547  0.65879  0.86911  1.0000
  C   C391      1.0  0.15667  0.64648  0.86301  1.0000
  C   C392      1.0  0.15797  0.62681  0.87279  1.0000
  C   C393      1.0  0.16785  0.61959  0.88865  1.0000
  H   H623      1.0  0.18206  0.66118  0.88954  1.0000
  H   H624      1.0  0.16449  0.67402  0.86160  1.0000
  H   H625      1.0  0.15123  0.61722  0.86822  1.0000
  H   H626      1.0  0.20377  0.89923  0.76413  1.0000
  C   C394      1.0  0.16517  0.81893  0.72322  1.0000
  C   C395      1.0  0.15573  0.80284  0.72875  1.0000
  C   C396      1.0  0.13851  0.80388  0.72209  1.0000
  C   C397      1.0  0.13066  0.82102  0.70978  1.0000
  C   C398      1.0  0.14033  0.83697  0.70393  1.0000
  C   C399      1.0  0.15757  0.83592  0.71057  1.0000
  H   H627      1.0  0.16155  0.78964  0.73852  1.0000
  H   H628      1.0  0.13110  0.79155  0.72678  1.0000
  H   H629      1.0  0.13441  0.85018  0.69424  1.0000
  H   H630      1.0  0.16497  0.84819  0.70582  1.0000
  C   C400      1.0  0.20830  0.94578  0.76272  1.0000
  H   H631      1.0  0.11663  0.88384  0.77518  1.0000
  S   S169      1.0  0.18963  0.66139  0.94580  1.0000
  C   C401      1.0  0.01386  0.61960  0.81335  1.0000
  C   C402      1.0  0.23358  0.59788  0.65868  1.0000
  C   C403      1.0  0.02085  0.63857  0.83364  1.0000
  C   C404      1.0  0.04091  0.63511  0.82489  1.0000
  C   C405      1.0  0.04735  0.62422  0.81003  1.0000
  C   C406      1.0  0.03387  0.61652  0.80429  1.0000
  C   C407      1.0  0.13530  0.70184  0.68458  1.0000
  H   H632      1.0  0.01572  0.64702  0.84512  1.0000
  H   H633      1.0  0.06270  0.62168  0.80295  1.0000
  H   H634      1.0  0.03898  0.60795  0.79291  1.0000
  N   N38       1.0  0.17253  0.72550  0.70472  1.0000
  C   C408      1.0  0.00873  0.74312  0.70980  1.0000
  C   C409      1.0  0.02017  0.75272  0.71618  1.0000
  C   C410      1.0  0.01188  0.77088  0.72166  1.0000
  H   H635      1.0  0.23462  0.72687  0.67093  1.0000
  H   H636      1.0  0.19576  0.61083  0.73025  1.0000
  H   H637      1.0  0.01526  0.72913  0.70548  1.0000
  H   H638      1.0  0.03538  0.74610  0.71683  1.0000
  H   H639      1.0  0.18666  0.96984  0.82722  1.0000
  H   H640      1.0  0.17219  0.64200  0.73323  1.0000
  S   S170      1.0  0.18918  0.62207  0.91448  1.0000
  H   H641      1.0  0.19850  0.80159  0.69141  1.0000
  H   H642      1.0  0.20110  0.71418  0.68883  1.0000
  H   H643      1.0  0.23093  0.60334  0.91125  1.0000
  C   C411      1.0  0.18486  0.92551  0.75203  1.0000
  H   H644      1.0  0.24312  0.79153  0.68619  1.0000
  C   C412      1.0  0.19502  0.96016  0.83850  1.0000
  C   C413      1.0  0.23497  0.59131  0.90290  1.0000
  H   H645      1.0  0.15982  0.61091  0.74197  1.0000
  C   C414      1.0  0.24353  0.87405  0.81154  1.0000
  S   S171      1.0  0.23130  0.88414  0.66770  1.0000
  H   H646      1.0  0.18899  0.58438  0.67439  1.0000
  C   C415      1.0  0.22434  0.93613  0.84463  1.0000
  H   H647      1.0  0.06628  0.78729  0.65573  1.0000
  H   H648      1.0  0.18279  0.63375  0.68184  1.0000
  C   C416      1.0  0.21379  0.57175  0.68861  1.0000
  C   C417      1.0  0.16376  0.73848  0.71904  1.0000
  H   H649      1.0  0.05771  0.75728  0.67990  1.0000
  C   C418      1.0  0.02802  0.78653  0.67090  1.0000
  C   C419      1.0  0.14930  0.69705  0.66818  1.0000
  H   H650      1.0  0.23766  0.54158  0.80514  1.0000
  H   H651      1.0  0.21543  0.92586  0.85523  1.0000
  N   N39       1.0  0.06560  0.70048  0.79143  1.0000
  C   C420      1.0  0.07975  0.70276  0.80223  1.0000
  C   C421      1.0  0.06368  0.71721  0.77457  1.0000
  C   C422      1.0  0.04623  0.70006  0.80475  1.0000
  C   C423      1.0  0.07275  0.68185  0.78423  1.0000
  H   H652      1.0  0.07513  0.71691  0.80742  1.0000
  H   H653      1.0  0.09468  0.70264  0.79280  1.0000
  H   H654      1.0  0.08123  0.69064  0.81533  1.0000
  H   H655      1.0  0.05291  0.71619  0.76620  1.0000
  H   H656      1.0  0.05875  0.73157  0.77938  1.0000
  H   H657      1.0  0.07802  0.71771  0.76415  1.0000
  H   H658      1.0  0.03524  0.69805  0.79721  1.0000
  H   H659      1.0  0.04032  0.71392  0.81039  1.0000
  H   H660      1.0  0.04728  0.68764  0.81770  1.0000
  H   H661      1.0  0.06289  0.68000  0.77532  1.0000
  H   H662      1.0  0.07347  0.66888  0.79661  1.0000
  H   H663      1.0  0.08780  0.68115  0.77497  1.0000
  Fe  Fe86      1.0  0.21191  0.64425  0.96425  1.0000
  C   C424      1.0  0.22091  0.73759  0.93633  1.0000
  H   H664      1.0  0.23997  0.95418  0.80835  1.0000
  C   C425      1.0  0.21199  0.92519  0.76682  1.0000
  H   H665      1.0  0.20247  0.83487  0.69158  1.0000
  H   H666      1.0  0.17412  0.69557  0.70299  1.0000
  N   N40       1.0  0.06218  0.57404  0.85404  1.0000
  C   C426      1.0  0.08082  0.56013  0.84886  1.0000
  C   C427      1.0  0.05146  0.56594  0.87366  1.0000
  C   C428      1.0  0.04987  0.57711  0.83931  1.0000
  C   C429      1.0  0.06658  0.59303  0.85432  1.0000
  H   H667      1.0  0.08951  0.56604  0.83432  1.0000
  H   H668      1.0  0.07817  0.54571  0.84813  1.0000
  H   H669      1.0  0.09041  0.55730  0.85977  1.0000
  H   H670      1.0  0.03725  0.57607  0.87788  1.0000
  H   H671      1.0  0.04804  0.55151  0.87404  1.0000
  H   H672      1.0  0.06029  0.56364  0.88513  1.0000
  H   H673      1.0  0.04570  0.56323  0.83909  1.0000
  H   H674      1.0  0.05780  0.58261  0.82425  1.0000
  H   H675      1.0  0.03598  0.58812  0.84232  1.0000
  H   H676      1.0  0.05292  0.60385  0.85855  1.0000
  H   H677      1.0  0.07417  0.59982  0.83963  1.0000
  H   H678      1.0  0.07637  0.59122  0.86482  1.0000
  H   H679      1.0  0.22061  0.86790  0.77786  1.0000
  S   S172      1.0  0.10115  0.75221  0.66148  1.0000
  Fe  Fe87      1.0  0.21352  0.67802  0.92926  1.0000
  H   H680      1.0  0.20965  0.51695  0.83524  1.0000
  C   C430      1.0  0.20055  0.91512  0.76121  1.0000
  N   N41       1.0  0.24104  0.51409  0.82591  1.0000
  N   N42       1.0  0.22213  0.81549  0.67352  1.0000
  H   H681      1.0  0.99624  0.69027  0.74666  1.0000
  H   H682      1.0  0.17001  0.50085  0.83795  1.0000
  H   H683      1.0  0.16975  0.73275  0.73277  1.0000
  C   C431      1.0  0.23966  0.52553  0.80590  1.0000
  H   H684      1.0  0.21516  0.78786  0.67405  1.0000
  C   C432      1.0  0.22591  0.61338  0.87354  1.0000
  Fe  Fe88      1.0  0.23114  0.85779  0.74042  1.0000
  Fe  Fe89      1.0  0.21786  0.53493  0.72908  1.0000
  C   C433      1.0  0.20767  0.80299  0.67629  1.0000
  C   C434      1.0  0.24344  0.58463  0.67286  1.0000
  H   H685      1.0  0.22984  0.97175  0.82396  1.0000
  H   H686      1.0  0.17190  0.61239  0.68866  1.0000
  S   S173      1.0  0.23464  0.66244  0.94916  1.0000
  H   H687      1.0  0.22128  0.62634  0.88074  1.0000
  H   H688      1.0  0.14320  0.62178  0.72536  1.0000
  H   H689      1.0  0.20101  0.92486  0.82779  1.0000
  S   S174      1.0  0.22428  0.95747  0.76873  1.0000
  S   S175      1.0  0.23841  0.88508  0.83207  1.0000
  H   H690      1.0  0.22692  0.52341  0.80099  1.0000
  H   H691      1.0  0.22376  0.91691  0.77430  1.0000
  H   H692      1.0  0.22856  0.94510  0.85295  1.0000
  H   H693      1.0  0.17377  0.69901  0.72713  1.0000
  N   N43       1.0  0.17338  0.62398  0.71296  1.0000
  S   S176      1.0  0.23114  0.84266  0.71662  1.0000
  H   H694      1.0  0.18193  0.65179  0.70790  1.0000
  H   H695      1.0  0.17035  0.72425  0.67567  1.0000
  H   H696      1.0  0.15599  0.65257  0.71618  1.0000
  H   H697      1.0  0.19520  0.59731  0.71271  1.0000
  H   H698      1.0  0.19747  0.80922  0.66578  1.0000
  C   C435      1.0  0.20410  0.58465  0.67415  1.0000
  H   H699      1.0  0.15667  0.63629  0.69002  1.0000
  C   C436      1.0  0.11892  0.73036  0.66389  1.0000
  C   C437      1.0  0.16792  0.70576  0.71342  1.0000
  C   C438      1.0  0.23240  0.86708  0.78507  1.0000
  H   H700      1.0  0.02192  0.80137  0.66284  1.0000
  C   C439      1.0  0.05023  0.75522  0.66889  1.0000
  H   H701      1.0  0.10982  0.72253  0.69524  1.0000
  C   C440      1.0  0.23411  0.81691  0.65340  1.0000
  C   C441      1.0  0.22576  0.74383  0.95128  1.0000
  C   C442      1.0  0.16427  0.73382  0.68671  1.0000
  C   C443      1.0  0.22334  0.73270  0.97046  1.0000
  C   C444      1.0  0.17108  0.62669  0.69248  1.0000
  H   H702      1.0  0.20691  0.69516  0.96280  1.0000
  C   C445      1.0  0.21191  0.70883  0.95961  1.0000
  H   H703      1.0  0.22276  0.74620  0.92150  1.0000
  H   H704      1.0  0.16646  0.75368  0.71292  1.0000
  N   N44       1.0  0.21365  0.94866  0.82927  1.0000
  H   H705      1.0  0.21336  0.88152  0.80790  1.0000
  C   C446      1.0  0.12028  0.71862  0.68248  1.0000
  C   C447      1.0  0.22243  0.51986  0.83956  1.0000
  C   C448      1.0  0.21387  0.59787  0.65938  1.0000
  N   N45       1.0  0.13029  0.87715  0.74673  1.0000
  C   C449      1.0  0.14814  0.86471  0.75355  1.0000
  C   C450      1.0  0.11651  0.86457  0.74737  1.0000
  C   C451      1.0  0.13582  0.88796  0.72638  1.0000
  C   C452      1.0  0.12079  0.89142  0.75964  1.0000
  H   H706      1.0  0.15861  0.87386  0.75359  1.0000
  H   H707      1.0  0.15600  0.85396  0.74397  1.0000
  H   H708      1.0  0.14456  0.85609  0.76875  1.0000
  H   H709      1.0  0.11185  0.85638  0.76256  1.0000
  H   H710      1.0  0.10300  0.87339  0.74197  1.0000
  H   H711      1.0  0.12341  0.85339  0.73806  1.0000
  H   H712      1.0  0.14640  0.89743  0.72538  1.0000
  H   H713      1.0  0.12273  0.89770  0.72083  1.0000
  H   H714      1.0  0.16744  0.74871  0.67966  1.0000
  S   S177      1.0  0.22475  0.62167  0.94552  1.0000
  S   S178      1.0  0.20040  0.55694  0.70806  1.0000
  H   H715      1.0  0.15985  0.59862  0.72305  1.0000
  S   S179      1.0  0.99772  0.60847  0.80664  1.0000
  H   H716      1.0  0.22655  0.80555  0.70328  1.0000
  C   C453      1.0  0.23349  0.57176  0.68797  1.0000
  H   H717      1.0  0.14801  0.73532  0.68998  1.0000
  H   H718      1.0  0.01530  0.77958  0.67916  1.0000
  H   H719      1.0  0.21812  0.97219  0.80437  1.0000
  H   H720      1.0  0.23808  0.92690  0.83804  1.0000
  H   H721      1.0  0.23114  0.75734  0.94800  1.0000
  H   H722      1.0  0.21257  0.60708  0.87585  1.0000
  H   H723      1.0  0.21933  0.53586  0.83968  1.0000
  C   C454      1.0  0.21158  0.83539  0.67653  1.0000
  C   C455      1.0  0.23513  0.80667  0.68792  1.0000
  N   N46       1.0  0.04172  0.77434  0.65742  1.0000
  H   H724      1.0  0.03873  0.74657  0.67690  1.0000
  N   N47       1.0  0.24194  0.59870  0.88176  1.0000
  C   C456      1.0  0.20935  0.93606  0.81804  1.0000
  H   H725      1.0  0.23042  0.61890  0.85750  1.0000
  C   C457      1.0  0.24006  0.73097  0.65532  1.0000
  H   H726      1.0  0.20057  0.94490  0.80681  1.0000
  H   H727      1.0  0.16060  0.67838  0.98143  1.0000
  H   H728      1.0  0.20159  0.84250  0.66595  1.0000
  Fe  Fe90      1.0  0.24563  0.64156  0.92875  1.0000
  H   H729      1.0  0.23560  0.57474  0.87308  1.0000
  S   S180      1.0  0.24480  0.49636  0.76612  1.0000
  H   H730      1.0  0.01861  0.76322  0.65218  1.0000
  H   H731      1.0  0.35764  0.30677  0.22444  1.0000
  H   H732      1.0  0.25055  0.34674  0.29036  1.0000
  H   H733      1.0  0.28875  0.03974  0.27205  1.0000
  H   H734      1.0  0.31093  0.04828  0.25904  1.0000
  H   H735      1.0  0.44187  0.19101  0.31757  1.0000
  S   S181      1.0  0.31892  0.14607  0.02896  1.0000
  C   C458      1.0  0.25980  0.34639  0.16420  1.0000
  H   H736      1.0  0.40683  0.18628  0.14086  1.0000
  Fe  Fe91      1.0  0.29194  0.36667  0.22686  1.0000
  S   S182      1.0  0.26951  0.38895  0.21192  1.0000
  S   S183      1.0  0.28387  0.35387  0.25910  1.0000
  Fe  Fe92      1.0  0.32110  0.36436  0.18864  1.0000
  S   S184      1.0  0.30078  0.38695  0.17059  1.0000
  S   S185      1.0  0.34875  0.34577  0.17439  1.0000
  Fe  Fe93      1.0  0.29474  0.40354  0.19509  1.0000
  S   S186      1.0  0.28619  0.43670  0.19265  1.0000
  Fe  Fe94      1.0  0.27743  0.37053  0.18917  1.0000
  H   H737      1.0  0.40511  0.01174  0.30275  1.0000
  S   S187      1.0  0.31695  0.38218  0.21170  1.0000
  S   S188      1.0  0.29798  0.34699  0.20549  1.0000
  Fe  Fe95      1.0  0.34969  0.18279  0.10853  1.0000
  S   S189      1.0  0.33795  0.15784  0.13039  1.0000
  S   S190      1.0  0.35074  0.19166  0.07576  1.0000
  Fe  Fe96      1.0  0.35943  0.19877  0.14005  1.0000
  S   S191      1.0  0.34833  0.17546  0.16457  1.0000
  S   S192      1.0  0.37213  0.22348  0.14311  1.0000
  Fe  Fe97      1.0  0.36377  0.15475  0.14428  1.0000
  S   S193      1.0  0.38276  0.12634  0.15666  1.0000
  Fe  Fe98      1.0  0.32352  0.18053  0.14888  1.0000
  S   S194      1.0  0.29293  0.18050  0.16620  1.0000
  S   S195      1.0  0.37701  0.17775  0.12073  1.0000
  S   S196      1.0  0.33302  0.20582  0.12603  1.0000
  Fe  Fe99      1.0  0.46979  0.24805  0.21103  1.0000
  S   S197      1.0  0.45759  0.26297  0.23662  1.0000
  Fe  Fe100     1.0  0.43246  0.23174  0.21671  1.0000
  S   S198      1.0  0.41770  0.24545  0.24287  1.0000
  S   S199      1.0  0.41820  0.20886  0.21198  1.0000
  Fe  Fe101     1.0  0.42954  0.27200  0.22485  1.0000
  S   S200      1.0  0.41137  0.30216  0.22788  1.0000
  Fe  Fe102     1.0  0.44687  0.23528  0.25210  1.0000
  S   S201      1.0  0.44904  0.22163  0.28364  1.0000
  S   S202      1.0  0.44249  0.25912  0.19769  1.0000
  S   S203      1.0  0.46087  0.21958  0.22737  1.0000
  Fe  Fe103     1.0  0.39190  0.02470  0.25485  1.0000
  S   S204      1.0  0.36236  0.04040  0.26863  1.0000
  S   S205      1.0  0.42071  0.02947  0.25847  1.0000
  S   S206      1.0  0.34329  0.01565  0.24803  1.0000
  Fe  Fe104     1.0  0.35452  0.04371  0.23949  1.0000
  S   S207      1.0  0.33541  0.07120  0.22568  1.0000
  Fe  Fe105     1.0  0.35424  0.01083  0.27578  1.0000
  H   H738      1.0  0.39203  0.16118  0.16554  1.0000
  S   S208      1.0  0.38457  0.03002  0.22498  1.0000
  S   S209      1.0  0.47180  0.12976  0.29394  1.0000
  C   C459      1.0  0.25159  0.32400  0.14832  1.0000
  C   C460      1.0  0.25769  0.19050  0.15475  1.0000
  H   H739      1.0  0.32531  0.34184  0.23556  1.0000
  Fe  Fe106     1.0  0.32604  0.14976  0.99576  1.0000
  C   C461      1.0  0.41972  0.04250  0.27659  1.0000
  C   C462      1.0  0.43654  0.04025  0.28431  1.0000
  C   C463      1.0  0.25288  0.24547  0.00589  1.0000
  H   H740      1.0  0.38912  0.05614  0.27839  1.0000
  H   H741      1.0  0.29165  0.24505  0.99357  1.0000
  H   H742      1.0  0.34133  0.28995  0.23149  1.0000
  H   H743      1.0  0.45040  0.03173  0.27805  1.0000
  S   S210      1.0  0.27638  0.30928  0.11693  1.0000
  H   H744      1.0  0.29248  0.22801  0.05381  1.0000
  C   C464      1.0  0.45770  0.19612  0.28761  1.0000
  C   C465      1.0  0.45135  0.18428  0.30573  1.0000
  C   C466      1.0  0.45619  0.16369  0.30814  1.0000
  C   C467      1.0  0.46764  0.15508  0.29249  1.0000
  C   C468      1.0  0.47528  0.16690  0.27498  1.0000
  C   C469      1.0  0.47022  0.18739  0.27250  1.0000
  H   H745      1.0  0.31831  0.07764  0.26593  1.0000
  H   H746      1.0  0.25919  0.21487  0.98766  1.0000
  H   H747      1.0  0.48445  0.16022  0.26298  1.0000
  H   H748      1.0  0.47596  0.19634  0.25884  1.0000
  C   C470      1.0  0.34859  0.08723  0.20734  1.0000
  C   C471      1.0  0.33845  0.10303  0.19525  1.0000
  C   C472      1.0  0.34883  0.11534  0.17990  1.0000
  C   C473      1.0  0.36942  0.11175  0.17643  1.0000
  C   C474      1.0  0.37954  0.09611  0.18869  1.0000
  C   C475      1.0  0.36914  0.08402  0.20424  1.0000
  H   H749      1.0  0.32255  0.10573  0.19764  1.0000
  H   H750      1.0  0.34088  0.12746  0.17060  1.0000
  H   H751      1.0  0.39545  0.09338  0.18622  1.0000
  H   H752      1.0  0.37707  0.07224  0.21380  1.0000
  C   C476      1.0  0.40424  0.21425  0.19354  1.0000
  C   C477      1.0  0.40529  0.23067  0.17819  1.0000
  C   C478      1.0  0.39499  0.23363  0.16298  1.0000
  C   C479      1.0  0.38361  0.22022  0.16310  1.0000
  C   C480      1.0  0.38208  0.20416  0.17879  1.0000
  C   C481      1.0  0.39243  0.20115  0.19392  1.0000
  H   H753      1.0  0.41433  0.24087  0.17780  1.0000
  H   H754      1.0  0.39617  0.24615  0.15092  1.0000
  H   H755      1.0  0.37306  0.19397  0.17920  1.0000
  H   H756      1.0  0.39136  0.18858  0.20591  1.0000
  C   C482      1.0  0.30069  0.45011  0.19873  1.0000
  C   C483      1.0  0.29140  0.46726  0.20607  1.0000
  H   H757      1.0  0.30817  0.03730  0.28474  1.0000
  N   N48       1.0  0.28551  0.20776  0.08107  1.0000
  C   C484      1.0  0.33242  0.45733  0.19770  1.0000
  C   C485      1.0  0.32126  0.44498  0.19491  1.0000
  C   C486      1.0  0.30020  0.04716  0.27325  1.0000
  S   S211      1.0  0.25241  0.36227  0.18099  1.0000
  H   H758      1.0  0.34834  0.45361  0.19404  1.0000
  H   H759      1.0  0.32857  0.43189  0.18910  1.0000
  C   C487      1.0  0.36730  0.33452  0.18814  1.0000
  C   C488      1.0  0.36969  0.34297  0.20273  1.0000
  C   C489      1.0  0.38394  0.33325  0.21422  1.0000
  C   C490      1.0  0.39558  0.31488  0.21147  1.0000
  C   C491      1.0  0.39352  0.30660  0.19659  1.0000
  C   C492      1.0  0.37952  0.31653  0.18482  1.0000
  H   H760      1.0  0.36061  0.35704  0.20508  1.0000
  H   H761      1.0  0.38571  0.33983  0.22553  1.0000
  H   H762      1.0  0.40251  0.29248  0.19431  1.0000
  H   H763      1.0  0.37784  0.31003  0.17342  1.0000
  H   H764      1.0  0.27046  0.07916  0.30119  1.0000
  H   H765      1.0  0.44800  0.04522  0.30745  1.0000
  H   H766      1.0  0.30829  0.31297  0.27165  1.0000
  C   C493      1.0  0.27479  0.19679  0.15432  1.0000
  C   C494      1.0  0.27711  0.21588  0.14455  1.0000
  H   H767      1.0  0.25556  0.21031  0.09704  1.0000
  H   H768      1.0  0.45449  0.15576  0.15300  1.0000
  C   C495      1.0  0.26562  0.21955  0.08659  1.0000
  H   H769      1.0  0.29017  0.22085  0.14457  1.0000
  N   N49       1.0  0.26481  0.24340  0.98624  1.0000
  H   H770      1.0  0.27744  0.19876  0.05820  1.0000
  C   C496      1.0  0.28332  0.33345  0.13745  1.0000
  C   C497      1.0  0.27831  0.34505  0.15176  1.0000
  H   H771      1.0  0.30439  0.31615  0.24728  1.0000
  H   H772      1.0  0.38879  0.01990  0.16124  1.0000
  H   H773      1.0  0.30114  0.09061  0.28358  1.0000
  H   H774      1.0  0.29752  0.33286  0.12760  1.0000
  H   H775      1.0  0.28862  0.35331  0.15289  1.0000
  H   H776      1.0  0.33349  0.31485  0.21895  1.0000
  H   H777      1.0  0.27521  0.18188  0.08154  1.0000
  C   C498      1.0  0.40193  0.05364  0.28467  1.0000
  N   N50       1.0  0.42321  0.15956  0.15577  1.0000
  C   C499      1.0  0.28419  0.19234  0.07140  1.0000
  Fe  Fe107     1.0  0.37395  0.00147  0.23587  1.0000
  C   C500      1.0  0.28154  0.07944  0.26209  1.0000
  H   H778      1.0  0.41184  0.15241  0.13397  1.0000
  C   C501      1.0  0.34375  0.17752  0.06272  1.0000
  C   C502      1.0  0.33588  0.16082  0.07233  1.0000
  C   C503      1.0  0.32879  0.15099  0.06168  1.0000
  C   C504      1.0  0.32974  0.15763  0.04136  1.0000
  C   C505      1.0  0.33806  0.17404  0.03168  1.0000
  C   C506      1.0  0.34495  0.18400  0.04236  1.0000
  H   H779      1.0  0.33493  0.15566  0.08799  1.0000
  H   H780      1.0  0.32236  0.13829  0.06923  1.0000
  H   H781      1.0  0.33887  0.17925  0.01604  1.0000
  H   H782      1.0  0.35108  0.19689  0.03484  1.0000
  H   H783      1.0  0.34924  0.33628  0.24158  1.0000
  H   H784      1.0  0.29567  0.20967  0.10620  1.0000
  S   S212      1.0  0.25795  0.27683  0.09084  1.0000
  H   H785      1.0  0.25585  0.17579  0.16236  1.0000
  H   H786      1.0  0.27549  0.47125  0.20914  1.0000
  N   N51       1.0  0.32298  0.26651  0.13349  1.0000
  C   C507      1.0  0.31900  0.28693  0.13642  1.0000
  C   C508      1.0  0.32461  0.25265  0.15243  1.0000
  C   C509      1.0  0.34163  0.26285  0.11919  1.0000
  C   C510      1.0  0.30671  0.26363  0.12589  1.0000
  H   H787      1.0  0.31775  0.29778  0.12239  1.0000
  H   H788      1.0  0.33091  0.28962  0.14228  1.0000
  H   H789      1.0  0.30487  0.29035  0.14690  1.0000
  H   H790      1.0  0.32763  0.23709  0.15077  1.0000
  H   H791      1.0  0.33694  0.25425  0.15845  1.0000
  H   H792      1.0  0.31081  0.25508  0.16358  1.0000
  H   H793      1.0  0.34509  0.24759  0.11653  1.0000
  H   H794      1.0  0.35430  0.26461  0.12458  1.0000
  H   H795      1.0  0.34099  0.27318  0.10479  1.0000
  H   H796      1.0  0.30906  0.24830  0.12380  1.0000
  H   H797      1.0  0.30526  0.27368  0.11147  1.0000
  H   H798      1.0  0.29230  0.26675  0.13608  1.0000
  H   H799      1.0  0.28754  0.22044  0.99744  1.0000
  C   C511      1.0  0.24818  0.36225  0.28372  1.0000
  H   H800      1.0  0.36326  0.30301  0.25714  1.0000
  C   C512      1.0  0.29390  0.19845  0.09889  1.0000
  C   C513      1.0  0.44111  0.15331  0.16438  1.0000
  H   H801      1.0  0.26391  0.24346  0.12777  1.0000
  H   H802      1.0  0.29900  0.18361  0.06644  1.0000
  H   H803      1.0  0.40436  0.16372  0.18345  1.0000
  H   H804      1.0  0.25873  0.22681  0.07359  1.0000
  H   H805      1.0  0.40683  0.14002  0.17794  1.0000
  H   H806      1.0  0.34870  0.28434  0.26541  1.0000
  H   H807      1.0  0.25026  0.31208  0.99784  1.0000
  H   H808      1.0  0.30871  0.18901  0.09532  1.0000
  N   N52       1.0  0.41067  0.17659  0.26954  1.0000
  C   C514      1.0  0.39573  0.19108  0.25953  1.0000
  C   C515      1.0  0.41094  0.18231  0.28785  1.0000
  C   C516      1.0  0.43027  0.17613  0.25651  1.0000
  C   C517      1.0  0.40582  0.15682  0.27430  1.0000
  H   H809      1.0  0.39497  0.18712  0.24573  1.0000
  H   H810      1.0  0.39931  0.20604  0.25532  1.0000
  H   H811      1.0  0.38079  0.19212  0.26901  1.0000
  H   H812      1.0  0.42137  0.17116  0.29620  1.0000
  H   H813      1.0  0.41557  0.19671  0.28477  1.0000
  H   H814      1.0  0.39620  0.18362  0.29772  1.0000
  H   H815      1.0  0.43040  0.17267  0.24219  1.0000
  H   H816      1.0  0.44179  0.16485  0.26331  1.0000
  H   H817      1.0  0.43473  0.19063  0.25314  1.0000
  H   H818      1.0  0.41692  0.14555  0.28183  1.0000
  H   H819      1.0  0.40553  0.15204  0.26079  1.0000
  H   H820      1.0  0.39118  0.15655  0.28422  1.0000
  N   N53       1.0  0.36393  0.04161  0.17125  1.0000
  C   C518      1.0  0.35569  0.04534  0.15338  1.0000
  C   C519      1.0  0.37586  0.05641  0.16913  1.0000
  C   C520      1.0  0.37648  0.02167  0.17403  1.0000
  C   C521      1.0  0.34765  0.04303  0.18846  1.0000
  H   H821      1.0  0.34661  0.03442  0.15446  1.0000
  H   H822      1.0  0.36756  0.04446  0.14007  1.0000
  H   H823      1.0  0.34613  0.06029  0.15091  1.0000
  H   H824      1.0  0.36677  0.07163  0.16737  1.0000
  H   H825      1.0  0.38250  0.05388  0.18226  1.0000
  H   H826      1.0  0.38813  0.05600  0.15613  1.0000
  H   H827      1.0  0.38313  0.01845  0.18727  1.0000
  H   H828      1.0  0.35333  0.04018  0.20220  1.0000
  H   H829      1.0  0.33829  0.03210  0.19053  1.0000
  H   H830      1.0  0.33802  0.05798  0.18706  1.0000
  C   C522      1.0  0.31457  0.30796  0.25749  1.0000
  H   H831      1.0  0.31348  0.21232  0.06300  1.0000
  C   C523      1.0  0.25974  0.38980  0.26032  1.0000
  C   C524      1.0  0.24659  0.33558  0.16266  1.0000
  H   H832      1.0  0.43309  0.18393  0.13432  1.0000
  H   H833      1.0  0.27120  0.39580  0.24926  1.0000
  H   H834      1.0  0.34288  0.30482  0.27755  1.0000
  H   H835      1.0  0.34169  0.03458  0.30800  1.0000
  H   H836      1.0  0.29217  0.08135  0.24779  1.0000
  H   H837      1.0  0.43806  0.15035  0.12861  1.0000
  C   C525      1.0  0.34792  0.30045  0.26302  1.0000
  H   H838      1.0  0.31429  0.29206  0.26012  1.0000
  H   H839      1.0  0.32760  0.33840  0.26051  1.0000
  H   H840      1.0  0.44010  0.16173  0.17582  1.0000
  H   H841      1.0  0.42001  0.18978  0.15754  1.0000
  C   C526      1.0  0.40588  0.15599  0.17139  1.0000
  C   C527      1.0  0.26282  0.36976  0.26883  1.0000
  N   N54       1.0  0.33469  0.31172  0.24935  1.0000
  C   C528      1.0  0.32315  0.47464  0.20475  1.0000
  C   C529      1.0  0.25720  0.47686  0.31180  1.0000
  C   C530      1.0  0.33423  0.33296  0.24663  1.0000
  C   C531      1.0  0.34203  0.30554  0.23025  1.0000
  C   C532      1.0  0.26225  0.22866  0.13518  1.0000
  H   H842      1.0  0.29968  0.23249  0.07431  1.0000
  C   C533      1.0  0.40057  0.06117  0.30128  1.0000
  Fe  Fe108     1.0  0.25201  0.30029  0.10847  1.0000
  H   H843      1.0  0.28387  0.05483  0.30892  1.0000
  H   H844      1.0  0.44338  0.13739  0.17143  1.0000
  H   H845      1.0  0.48788  0.22463  0.26099  1.0000
  S   S213      1.0  0.38434  0.99460  0.26437  1.0000
  H   H846      1.0  0.36789  0.01003  0.17618  1.0000
  H   H847      1.0  0.26605  0.23139  0.09385  1.0000
  C   C534      1.0  0.42515  0.14811  0.14067  1.0000
  C   C535      1.0  0.42070  0.18078  0.14672  1.0000
  H   H848      1.0  0.38653  0.06901  0.30799  1.0000
  H   H849      1.0  0.42677  0.13205  0.14706  1.0000
  N   N55       1.0  0.29146  0.06679  0.27802  1.0000
  H   H850      1.0  0.37414  0.03379  0.31541  1.0000
  C   C536      1.0  0.27697  0.06474  0.29674  1.0000
  H   H851      1.0  0.25931  0.46644  0.30193  1.0000
  C   C537      1.0  0.43523  0.04796  0.30088  1.0000
  H   H852      1.0  0.26969  0.07302  0.26011  1.0000
  C   C538      1.0  0.26989  0.32310  0.13551  1.0000
  C   C539      1.0  0.29832  0.22073  0.06742  1.0000
  H   H853      1.0  0.37396  0.00074  0.31037  1.0000
  C   C540      1.0  0.30256  0.47926  0.20947  1.0000
  H   H854      1.0  0.28431  0.18906  0.10988  1.0000
  H   H855      1.0  0.31516  0.06660  0.29156  1.0000
  C   C541      1.0  0.30719  0.07582  0.27987  1.0000
  H   H856      1.0  0.26465  0.05836  0.29576  1.0000
  H   H857      1.0  0.27473  0.09438  0.26522  1.0000
  C   C542      1.0  0.41705  0.05787  0.30975  1.0000
  S   S214      1.0  0.33634  0.99716  0.30387  1.0000
  H   H858      1.0  0.49232  0.24705  0.28981  1.0000
  C   C543      1.0  0.28567  0.23530  0.98768  1.0000
  H   H859      1.0  0.25727  0.25632  0.01185  1.0000
  H   H860      1.0  0.48345  0.22456  0.29632  1.0000
  H   H861      1.0  0.27172  0.47577  0.31549  1.0000
  H   H862      1.0  0.25427  0.23118  0.01657  1.0000
  S   S215      1.0  0.24657  0.30327  0.03956  1.0000
  C   C544      1.0  0.32849  0.03113  0.31799  1.0000
  C   C545      1.0  0.27421  0.07379  0.61457  1.0000
  N   N56       1.0  0.38731  0.00619  0.33169  1.0000
  H   H863      1.0  0.28181  0.08813  0.43183  1.0000
  Fe  Fe109     1.0  0.30293  0.14831  0.62585  1.0000
  S   S216      1.0  0.33454  0.13379  0.61739  1.0000
  S   S217      1.0  0.29330  0.18120  0.61930  1.0000
  Fe  Fe110     1.0  0.32213  0.11336  0.60675  1.0000
  S   S218      1.0  0.33570  0.10357  0.57801  1.0000
  H   H864      1.0  0.27534  0.19108  0.52599  1.0000
  S   S219      1.0  0.46541  0.08034  0.32585  1.0000
  S   S220      1.0  0.29095  0.12970  0.61278  1.0000
  H   H865      1.0  0.29667  0.14112  0.55158  1.0000
  H   H866      1.0  0.28080  0.01888  0.35377  1.0000
  Fe  Fe111     1.0  0.46745  0.08222  0.35599  1.0000
  S   S221      1.0  0.45983  0.11505  0.35103  1.0000
  C   C546      1.0  0.25898  0.17304  0.64332  1.0000
  N   N57       1.0  0.29315  0.16218  0.52487  1.0000
  H   H867      1.0  0.27987  0.16378  0.55496  1.0000
  H   H868      1.0  0.29371  0.02518  0.61611  1.0000
  Fe  Fe112     1.0  0.42849  0.11112  0.36157  1.0000
  S   S222      1.0  0.40770  0.12829  0.38340  1.0000
  H   H869      1.0  0.47345  0.09368  0.42307  1.0000
  S   S223      1.0  0.43648  0.07818  0.36901  1.0000
  S   S224      1.0  0.28340  0.05814  0.35452  1.0000
  Fe  Fe113     1.0  0.31356  0.10518  0.45417  1.0000
  S   S225      1.0  0.28794  0.09080  0.47043  1.0000
  S   S226      1.0  0.33799  0.08713  0.43574  1.0000
  Fe  Fe114     1.0  0.29324  0.14440  0.46524  1.0000
  C   C547      1.0  0.37617  0.02668  0.33065  1.0000
  S   S227      1.0  0.29133  0.17575  0.46642  1.0000
  Fe  Fe115     1.0  0.28689  0.10679  0.49402  1.0000
  S   S228      1.0  0.27855  0.09606  0.52674  1.0000
  C   C548      1.0  0.27039  0.18951  0.45719  1.0000
  C   C549      1.0  0.37621  0.99459  0.32572  1.0000
  S   S229      1.0  0.31417  0.11877  0.47907  1.0000
  S   S230      1.0  0.29531  0.13212  0.43888  1.0000
  H   H870      1.0  0.29595  0.06286  0.64243  1.0000
  C   C550      1.0  0.42521  0.11674  0.42814  1.0000
  C   C551      1.0  0.44296  0.09333  0.40780  1.0000
  S   S231      1.0  0.31975  0.09171  0.63550  1.0000
  C   C552      1.0  0.43896  0.08352  0.44300  1.0000
  H   H871      1.0  0.30315  0.06870  0.43301  1.0000
  H   H872      1.0  0.31691  0.05133  0.40512  1.0000
  H   H873      1.0  0.30641  0.05940  0.38336  1.0000
  H   H874      1.0  0.30154  0.99518  0.33362  1.0000
  C   C553      1.0  0.31208  0.15314  0.51365  1.0000
  S   S232      1.0  0.49453  0.06584  0.36812  1.0000
  H   H875      1.0  0.31508  0.13683  0.51833  1.0000
  C   C554      1.0  0.28933  0.07403  0.42705  1.0000
  H   H876      1.0  0.30276  0.03716  0.64178  1.0000
  C   C555      1.0  0.27700  0.15448  0.52187  1.0000
  C   C556      1.0  0.38780  0.11729  0.39734  1.0000
  C   C557      1.0  0.38589  0.09922  0.39474  1.0000
  C   C558      1.0  0.37058  0.09009  0.40664  1.0000
  C   C559      1.0  0.35685  0.09914  0.42097  1.0000
  C   C560      1.0  0.35847  0.11742  0.42337  1.0000
  C   C561      1.0  0.37401  0.12641  0.41165  1.0000
  H   H877      1.0  0.39610  0.09225  0.38350  1.0000
  H   H878      1.0  0.36933  0.07602  0.40463  1.0000
  H   H879      1.0  0.34787  0.12453  0.43436  1.0000
  H   H880      1.0  0.37530  0.14047  0.41365  1.0000
  H   H881      1.0  0.42908  0.08879  0.40803  1.0000
  H   H882      1.0  0.32100  0.08552  0.40204  1.0000
  H   H883      1.0  0.29174  0.20634  0.64630  1.0000
  H   H884      1.0  0.31737  0.20706  0.63993  1.0000
  H   H885      1.0  0.30711  0.06157  0.58904  1.0000
  C   C562      1.0  0.46050  0.10598  0.42498  1.0000
  H   H886      1.0  0.42385  0.12216  0.44172  1.0000
  N   N58       1.0  0.44192  0.09990  0.42600  1.0000
  S   S233      1.0  0.41357  0.06252  0.33337  1.0000
  H   H887      1.0  0.27935  0.13818  0.52657  1.0000
  H   H888      1.0  0.36133  0.99455  0.33527  1.0000
  H   H889      1.0  0.38400  0.03580  0.33537  1.0000
  C   C563      1.0  0.30821  0.05834  0.60480  1.0000
  C   C564      1.0  0.28959  0.18379  0.51795  1.0000
  N   N59       1.0  0.29344  0.07682  0.40543  1.0000
  H   H890      1.0  0.32464  0.15844  0.51568  1.0000
  H   H891      1.0  0.45542  0.08066  0.40551  1.0000
  H   H892      1.0  0.48251  0.10254  0.38207  1.0000
  H   H893      1.0  0.31207  0.15663  0.49763  1.0000
  C   C565      1.0  0.26669  0.18590  0.44033  1.0000
  C   C566      1.0  0.31972  0.10144  0.56389  1.0000
  C   C567      1.0  0.29955  0.10282  0.57149  1.0000
  C   C568      1.0  0.28708  0.10088  0.56005  1.0000
  C   C569      1.0  0.29465  0.09790  0.54084  1.0000
  C   C570      1.0  0.31479  0.09663  0.53317  1.0000
  C   C571      1.0  0.32732  0.09826  0.54474  1.0000
  H   H894      1.0  0.29357  0.10539  0.58614  1.0000
  H   H895      1.0  0.27147  0.10204  0.56595  1.0000
  H   H896      1.0  0.32080  0.09403  0.51846  1.0000
  H   H897      1.0  0.34294  0.09707  0.53882  1.0000
  S   S234      1.0  0.26600  0.13336  0.48171  1.0000
  H   H898      1.0  0.32003  0.04505  0.60723  1.0000
  H   H899      1.0  0.45127  0.07054  0.44175  1.0000
  H   H900      1.0  0.26734  0.09907  0.40210  1.0000
  C   C572      1.0  0.30673  0.09096  0.39690  1.0000
  H   H901      1.0  0.27713  0.17530  0.43256  1.0000
  S   S235      1.0  0.42370  0.11304  0.33135  1.0000
  C   C573      1.0  0.29414  0.02235  0.34391  1.0000
  H   H902      1.0  0.27734  0.04855  0.64896  1.0000
  H   H903      1.0  0.42687  0.12930  0.41541  1.0000
  H   H904      1.0  0.39856  0.00604  0.35685  1.0000
  H   H905      1.0  0.29309  0.04688  0.40554  1.0000
  H   H906      1.0  0.28901  0.18796  0.50203  1.0000
  C   C574      1.0  0.28277  0.03922  0.61370  1.0000
  Fe  Fe116     1.0  0.45602  0.11312  0.32165  1.0000
  H   H907      1.0  0.41099  0.11268  0.42872  1.0000
  C   C575      1.0  0.30293  0.05775  0.39963  1.0000
  H   H908      1.0  0.42505  0.07861  0.44409  1.0000
  H   H909      1.0  0.46034  0.11091  0.43854  1.0000
  H   H910      1.0  0.43807  0.08793  0.45704  1.0000
  C   C576      1.0  0.27476  0.08455  0.39821  1.0000
  H   H911      1.0  0.30149  0.19011  0.51997  1.0000
  C   C577      1.0  0.29393  0.15730  0.54598  1.0000
  H   H912      1.0  0.27725  0.08643  0.38196  1.0000
  Fe  Fe117     1.0  0.26971  0.11872  0.45662  1.0000
  H   H913      1.0  0.31006  0.09362  0.38058  1.0000
  H   H914      1.0  0.26428  0.07435  0.40470  1.0000
  H   H915      1.0  0.27960  0.06321  0.43410  1.0000
  N   N60       1.0  0.28918  0.05552  0.61793  1.0000
  C   C578      1.0  0.29145  0.05074  0.63864  1.0000
  Fe  Fe118     1.0  0.43340  0.08014  0.33814  1.0000
  H   H916      1.0  0.46307  0.11840  0.41233  1.0000
  H   H917      1.0  0.45043  0.15457  0.32181  1.0000
  H   H918      1.0  0.44502  0.10539  0.39471  1.0000
  H   H919      1.0  0.30599  0.16282  0.54881  1.0000
  H   H920      1.0  0.26621  0.15777  0.64499  1.0000
  C   C579      1.0  0.25685  0.20335  0.46712  1.0000
  C   C580      1.0  0.29944  0.04026  0.34229  1.0000
  S   S236      1.0  0.25200  0.02360  0.39351  1.0000
  H   H921      1.0  0.32579  0.17172  0.65070  1.0000
  H   H922      1.0  0.27161  0.07754  0.59929  1.0000
  C   C581      1.0  0.31689  0.04446  0.32969  1.0000
  H   H923      1.0  0.30011  0.10541  0.40130  1.0000
  C   C582      1.0  0.30591  0.00890  0.33249  1.0000
  C   C583      1.0  0.26865  0.18760  0.63085  1.0000
  H   H924      1.0  0.28091  0.04236  0.59817  1.0000
  H   H925      1.0  0.32106  0.05829  0.32849  1.0000
  H   H926      1.0  0.35849  0.14116  0.64583  1.0000
  Fe  Fe119     1.0  0.28934  0.10966  0.64242  1.0000
  H   H927      1.0  0.25960  0.20608  0.48025  1.0000
  C   C584      1.0  0.40671  0.00602  0.31833  1.0000
  H   H928      1.0  0.27887  0.08651  0.61708  1.0000
  Fe  Fe120     1.0  0.25466  0.04811  0.36734  1.0000
  H   H929      1.0  0.27589  0.15813  0.50611  1.0000
  C   C585      1.0  0.25882  0.20733  0.62827  1.0000
  H   H930      1.0  0.26622  0.21862  0.61853  1.0000
  H   H931      1.0  0.31326  0.07091  0.60714  1.0000
  H   H932      1.0  0.25986  0.07252  0.62479  1.0000
  H   H933      1.0  0.36128  0.02735  0.34025  1.0000
  Fe  Fe121     1.0  0.32911  0.11370  0.64687  1.0000
  H   H934      1.0  0.26840  0.03676  0.62331  1.0000
  H   H935      1.0  0.24715  0.47166  0.32571  1.0000
  H   H936      1.0  0.26250  0.16077  0.53028  1.0000
  C   C586      1.0  0.24966  0.19629  0.43321  1.0000
  H   H937      1.0  0.24698  0.19355  0.42004  1.0000
  C   C587      1.0  0.32284  0.01346  0.31921  1.0000
  H   H938      1.0  0.41585  0.99089  0.31919  1.0000
  H   H939      1.0  0.41519  0.01536  0.32183  1.0000
  H   H940      1.0  0.24929  0.08325  0.46496  1.0000
  H   H941      1.0  0.37579  0.99753  0.36251  1.0000
  C   C588      1.0  0.39016  0.99754  0.35203  1.0000
  H   H942      1.0  0.27656  0.44779  0.65080  1.0000
  C   C589      1.0  0.29517  0.47531  0.84648  1.0000
  N   N61       1.0  0.30784  0.19150  0.66928  1.0000
  S   S237      1.0  0.27224  0.03075  0.73185  1.0000
  C   C590      1.0  0.25950  0.30979  0.80594  1.0000
  H   H943      1.0  0.30083  0.22227  0.65609  1.0000
  H   H944      1.0  0.32218  0.44089  0.77684  1.0000
  Fe  Fe122     1.0  0.30967  0.40134  0.78941  1.0000
  S   S238      1.0  0.27949  0.41846  0.79843  1.0000
  S   S239      1.0  0.32443  0.40756  0.75787  1.0000
  Fe  Fe123     1.0  0.31185  0.37829  0.83049  1.0000
  S   S240      1.0  0.28145  0.39327  0.84308  1.0000
  S   S241      1.0  0.32926  0.35581  0.85121  1.0000
  Fe  Fe124     1.0  0.27323  0.38945  0.81636  1.0000
  H   H945      1.0  0.47938  0.17649  0.81440  1.0000
  Fe  Fe125     1.0  0.29057  0.42080  0.82405  1.0000
  S   S242      1.0  0.28098  0.44866  0.83574  1.0000
  S   S243      1.0  0.30283  0.37191  0.80531  1.0000
  S   S244      1.0  0.32167  0.40624  0.81349  1.0000
  Fe  Fe126     1.0  0.40517  0.24857  0.85506  1.0000
  S   S245      1.0  0.40286  0.26002  0.82346  1.0000
  S   S246      1.0  0.37794  0.24439  0.87803  1.0000
  Fe  Fe127     1.0  0.44861  0.24991  0.84729  1.0000
  S   S247      1.0  0.45000  0.26185  0.81507  1.0000
  C   C591      1.0  0.30430  0.20754  0.65219  1.0000
  Fe  Fe128     1.0  0.42074  0.28124  0.82438  1.0000
  S   S248      1.0  0.41170  0.31279  0.80949  1.0000
  Fe  Fe129     1.0  0.43202  0.23965  0.81703  1.0000
  S   S249      1.0  0.44223  0.21977  0.79517  1.0000
  S   S250      1.0  0.42101  0.27131  0.85657  1.0000
  S   S251      1.0  0.43274  0.22621  0.84863  1.0000
  Fe  Fe130     1.0  0.35417  0.15758  0.95674  1.0000
  S   S252      1.0  0.38348  0.16411  0.93963  1.0000
  Fe  Fe131     1.0  0.33017  0.12600  0.96439  1.0000
  S   S253      1.0  0.33083  0.09652  0.95810  1.0000
  S   S254      1.0  0.33489  0.15152  0.93964  1.0000
  Fe  Fe132     1.0  0.40057  0.12430  0.74561  1.0000
  S   S255      1.0  0.37382  0.14853  0.74695  1.0000
  S   S256      1.0  0.39506  0.09346  0.75383  1.0000
  S   S257      1.0  0.40415  0.17922  0.72824  1.0000
  Fe  Fe133     1.0  0.39175  0.16328  0.75815  1.0000
  S   S258      1.0  0.37837  0.17945  0.78287  1.0000
  Fe  Fe134     1.0  0.38867  0.16194  0.71702  1.0000
  S   S259      1.0  0.37301  0.17369  0.69149  1.0000
  S   S260      1.0  0.41735  0.13772  0.75962  1.0000
  Fe  Fe135     1.0  0.29078  0.07432  0.88097  1.0000
  S   S261      1.0  0.27622  0.09553  0.90132  1.0000
  Fe  Fe136     1.0  0.29041  0.06694  0.84108  1.0000
  S   S262      1.0  0.27595  0.07496  0.81482  1.0000
  Fe  Fe137     1.0  0.32916  0.06679  0.85198  1.0000
  S   S263      1.0  0.35758  0.07769  0.84420  1.0000
  S   S264      1.0  0.30140  0.08936  0.85010  1.0000
  C   C592      1.0  0.27607  0.22369  0.92015  1.0000
  H   H946      1.0  0.33735  0.42477  0.83916  1.0000
  H   H947      1.0  0.29467  0.08145  0.67663  1.0000
  C   C593      1.0  0.25042  0.06784  0.68609  1.0000
  H   H948      1.0  0.31251  0.24783  0.93344  1.0000
  C   C594      1.0  0.28292  0.07356  0.68389  1.0000
  C   C595      1.0  0.38594  0.08739  0.77916  1.0000
  C   C596      1.0  0.37162  0.07573  0.78634  1.0000
  C   C597      1.0  0.36302  0.07233  0.80642  1.0000
  C   C598      1.0  0.36913  0.08017  0.81937  1.0000
  C   C599      1.0  0.38399  0.09116  0.81227  1.0000
  C   C600      1.0  0.39214  0.09504  0.79216  1.0000
  H   H949      1.0  0.36676  0.06982  0.77631  1.0000
  H   H950      1.0  0.35161  0.06377  0.81183  1.0000
  H   H951      1.0  0.38890  0.09710  0.82224  1.0000
  H   H952      1.0  0.40338  0.10381  0.78676  1.0000
  C   C601      1.0  0.29025  0.09553  0.91829  1.0000
  C   C602      1.0  0.30208  0.07813  0.92635  1.0000
  C   C603      1.0  0.31378  0.07847  0.93929  1.0000
  C   C604      1.0  0.31409  0.09626  0.94390  1.0000
  C   C605      1.0  0.30201  0.11365  0.93611  1.0000
  C   C606      1.0  0.28995  0.11324  0.92348  1.0000
  H   H953      1.0  0.30206  0.06436  0.92276  1.0000
  H   H954      1.0  0.32288  0.06494  0.94549  1.0000
  H   H955      1.0  0.30211  0.12742  0.93966  1.0000
  H   H956      1.0  0.28076  0.12671  0.91734  1.0000
  C   C607      1.0  0.42444  0.20742  0.79377  1.0000
  C   C608      1.0  0.43029  0.19177  0.78386  1.0000
  C   C609      1.0  0.41616  0.18308  0.78065  1.0000
  C   C610      1.0  0.39615  0.18959  0.78785  1.0000
  C   C611      1.0  0.39034  0.20459  0.79862  1.0000
  C   C612      1.0  0.40447  0.21357  0.80150  1.0000
  H   H957      1.0  0.44573  0.18649  0.77838  1.0000
  H   H958      1.0  0.42081  0.17139  0.77254  1.0000
  H   H959      1.0  0.37488  0.20961  0.80430  1.0000
  H   H960      1.0  0.39985  0.22553  0.80931  1.0000
  C   C613      1.0  0.37850  0.22129  0.89391  1.0000
  C   C614      1.0  0.39414  0.20553  0.89068  1.0000
  C   C615      1.0  0.39538  0.18779  0.90458  1.0000
  C   C616      1.0  0.38073  0.18564  0.92154  1.0000
  C   C617      1.0  0.36455  0.20105  0.92430  1.0000
  C   C618      1.0  0.36349  0.21892  0.91054  1.0000
  H   H961      1.0  0.40534  0.20701  0.87754  1.0000
  H   H962      1.0  0.40769  0.17571  0.90225  1.0000
  H   H963      1.0  0.35315  0.19943  0.93732  1.0000
  H   H964      1.0  0.35122  0.23099  0.91302  1.0000
  C   C619      1.0  0.35857  0.14071  0.66099  1.0000
  C   C620      1.0  0.29892  0.46215  0.83395  1.0000
  C   C621      1.0  0.31664  0.46016  0.82025  1.0000
  C   C622      1.0  0.33043  0.47162  0.81894  1.0000
  H   H965      1.0  0.37501  0.11170  0.90895  1.0000
  H   H966      1.0  0.27260  0.00959  0.78659  1.0000
  H   H967      1.0  0.31563  0.40077  0.85614  1.0000
  H   H968      1.0  0.31965  0.44993  0.81061  1.0000
  H   H969      1.0  0.34407  0.47024  0.80825  1.0000
  H   H970      1.0  0.41928  0.24783  0.91018  1.0000
  H   H971      1.0  0.38290  0.09623  0.71726  1.0000
  C   C623      1.0  0.38903  0.32507  0.82125  1.0000
  C   C624      1.0  0.38276  0.32007  0.84161  1.0000
  C   C625      1.0  0.36470  0.33009  0.85079  1.0000
  C   C626      1.0  0.35249  0.34461  0.83957  1.0000
  C   C627      1.0  0.35879  0.34975  0.81924  1.0000
  C   C628      1.0  0.37715  0.34015  0.81013  1.0000
  H   H972      1.0  0.39198  0.30871  0.85032  1.0000
  H   H973      1.0  0.36009  0.32635  0.86656  1.0000
  H   H974      1.0  0.34952  0.36104  0.81046  1.0000
  H   H975      1.0  0.38200  0.34414  0.79439  1.0000
  H   H976      1.0  0.29279  0.02919  0.81859  1.0000
  H   H977      1.0  0.33096  0.37963  0.70074  1.0000
  C   C629      1.0  0.36010  0.13899  0.70002  1.0000
  H   H978      1.0  0.36056  0.13828  0.71512  1.0000
  H   H979      1.0  0.25895  0.99762  0.84949  1.0000
  C   C630      1.0  0.32423  0.19397  0.67699  1.0000
  H   H980      1.0  0.27779  0.34226  0.76625  1.0000
  H   H981      1.0  0.26503  0.25254  0.90468  1.0000
  H   H982      1.0  0.48116  0.21707  0.70301  1.0000
  C   C631      1.0  0.29188  0.37965  0.73905  1.0000
  N   N62       1.0  0.43596  0.21807  0.91357  1.0000
  H   H983      1.0  0.33641  0.45976  0.77113  1.0000
  H   H984      1.0  0.26522  0.33869  0.82023  1.0000
  H   H985      1.0  0.40883  0.20776  0.92584  1.0000
  C   C632      1.0  0.26974  0.04888  0.71054  1.0000
  C   C633      1.0  0.28505  0.05887  0.70081  1.0000
  H   H986      1.0  0.26409  0.18577  0.91462  1.0000
  H   H987      1.0  0.25451  0.07617  0.78586  1.0000
  H   H988      1.0  0.27601  0.35225  0.79723  1.0000
  H   H989      1.0  0.43306  0.19918  0.89593  1.0000
  H   H990      1.0  0.27361  0.29919  0.80749  1.0000
  H   H991      1.0  0.29263  0.44652  0.76232  1.0000
  C   C634      1.0  0.34022  0.42446  0.85377  1.0000
  N   N63       1.0  0.40668  0.08504  0.69546  1.0000
  C   C635      1.0  0.48096  0.15129  0.76517  1.0000
  H   H992      1.0  0.40002  0.11672  0.68910  1.0000
  C   C636      1.0  0.35394  0.12407  0.69511  1.0000
  S   S265      1.0  0.27713  0.05375  0.87183  1.0000
  S   S266      1.0  0.28307  0.27827  0.91532  1.0000
  C   C637      1.0  0.31948  0.40088  0.87016  1.0000
  H   H993      1.0  0.25711  0.35814  0.85028  1.0000
  S   S267      1.0  0.41438  0.13675  0.71482  1.0000
  H   H994      1.0  0.46314  0.22811  0.90788  1.0000
  C   C638      1.0  0.30323  0.22065  0.93592  1.0000
  H   H995      1.0  0.31368  0.21178  0.94485  1.0000
  H   H996      1.0  0.43703  0.24223  0.88882  1.0000
  H   H997      1.0  0.33806  0.19368  0.66566  1.0000
  H   H998      1.0  0.31670  0.15988  0.67540  1.0000
  H   H999      1.0  0.29501  0.23371  0.97303  1.0000
  H   H1000     1.0  0.29166  0.03364  0.76603  1.0000
  C   C639      1.0  0.32172  0.38235  0.71459  1.0000
  H   H1001     1.0  0.39324  0.09192  0.88351  1.0000
  H   H1002     1.0  0.42401  0.06940  0.71736  1.0000
  H   H1003     1.0  0.27714  0.19036  0.67926  1.0000
  S   S268      1.0  0.45983  0.15735  0.71595  1.0000
  H   H1004     1.0  0.44201  0.24244  0.73859  1.0000
  H   H1005     1.0  0.28675  0.04678  0.78551  1.0000
  C   C640      1.0  0.35352  0.12470  0.67556  1.0000
  H   H1006     1.0  0.29846  0.05542  0.70649  1.0000
  C   C641      1.0  0.28828  0.25260  0.91878  1.0000
  H   H1007     1.0  0.32725  0.47839  0.73079  1.0000
  C   C642      1.0  0.26559  0.07802  0.67654  1.0000
  H   H1008     1.0  0.36874  0.16800  0.65459  1.0000
  H   H1009     1.0  0.41452  0.23324  0.89560  1.0000
  H   H1010     1.0  0.25543  0.04773  0.84602  1.0000
  H   H1011     1.0  0.34954  0.11197  0.70649  1.0000
  C   C643      1.0  0.45183  0.22260  0.92049  1.0000
  C   C644      1.0  0.25678  0.06312  0.81593  1.0000
  C   C645      1.0  0.48714  0.27373  0.84836  1.0000
  H   H1012     1.0  0.25060  0.31056  0.82093  1.0000
  Fe  Fe138     1.0  0.31059  0.16910  0.95819  1.0000
  S   S269      1.0  0.28606  0.18832  0.94371  1.0000
  H   H1013     1.0  0.42880  0.21253  0.74678  1.0000
  C   C646      1.0  0.32779  0.39225  0.72584  1.0000
  N   N64       1.0  0.32912  0.28537  0.86648  1.0000
  C   C647      1.0  0.32502  0.26535  0.87065  1.0000
  C   C648      1.0  0.33494  0.28847  0.88368  1.0000
  C   C649      1.0  0.31122  0.30013  0.86253  1.0000
  C   C650      1.0  0.34524  0.28758  0.84913  1.0000
  H   H1014     1.0  0.32073  0.26237  0.85799  1.0000
  H   H1015     1.0  0.31288  0.26321  0.88355  1.0000
  H   H1016     1.0  0.33814  0.25388  0.87401  1.0000
  H   H1017     1.0  0.32318  0.28657  0.89707  1.0000
  H   H1018     1.0  0.34854  0.27779  0.88701  1.0000
  H   H1019     1.0  0.33783  0.30354  0.88115  1.0000
  H   H1020     1.0  0.31385  0.31541  0.85946  1.0000
  H   H1021     1.0  0.29880  0.29884  0.87540  1.0000
  H   H1022     1.0  0.30634  0.29828  0.84968  1.0000
  H   H1023     1.0  0.35929  0.27745  0.85200  1.0000
  H   H1024     1.0  0.34804  0.30279  0.84489  1.0000
  H   H1025     1.0  0.34180  0.28431  0.83616  1.0000
  S   S270      1.0  0.31944  0.04574  0.83976  1.0000
  H   H1026     1.0  0.37593  0.08393  0.70182  1.0000
  H   H1027     1.0  0.36929  0.39220  0.85499  1.0000
  S   S271      1.0  0.31235  0.00054  0.87977  1.0000
  N   N65       1.0  0.36238  0.09466  0.89634  1.0000
  C   C651      1.0  0.37893  0.09306  0.87938  1.0000
  C   C652      1.0  0.36129  0.11236  0.90391  1.0000
  C   C653      1.0  0.36550  0.07697  0.91202  1.0000
  C   C654      1.0  0.34378  0.09617  0.89006  1.0000
  H   H1028     1.0  0.37956  0.07518  0.91689  1.0000
  H   H1029     1.0  0.27856  0.43497  0.70365  1.0000
  C   C655      1.0  0.31296  0.17235  0.66318  1.0000
  H   H1030     1.0  0.28899  0.39196  0.76441  1.0000
  H   H1031     1.0  0.34893  0.11387  0.91678  1.0000
  C   C656      1.0  0.46855  0.15187  0.75254  1.0000
  H   H1032     1.0  0.35355  0.07790  0.92523  1.0000
  Fe  Fe139     1.0  0.26633  0.35745  0.71373  1.0000
  H   H1033     1.0  0.34149  0.10865  0.87747  1.0000
  H   H1034     1.0  0.33088  0.09853  0.90212  1.0000
  H   H1035     1.0  0.34356  0.08254  0.88542  1.0000
  N   N66       1.0  0.31013  0.46803  0.75902  1.0000
  H   H1036     1.0  0.28545  0.46951  0.74623  1.0000
  H   H1037     1.0  0.41361  0.05423  0.69483  1.0000
  C   C657      1.0  0.28324  0.42220  0.69621  1.0000
  C   C658      1.0  0.38782  0.08371  0.70945  1.0000
  H   H1038     1.0  0.46711  0.19943  0.82153  1.0000
  H   H1039     1.0  0.47561  0.14838  0.78089  1.0000
  H   H1040     1.0  0.27809  0.39601  0.67804  1.0000
  H   H1041     1.0  0.47330  0.27965  0.84343  1.0000
  H   H1042     1.0  0.35888  0.12605  0.89255  1.0000
  H   H1043     1.0  0.24818  0.41734  0.69261  1.0000
  H   H1044     1.0  0.28546  0.20635  0.68974  1.0000
  C   C659      1.0  0.27364  0.33729  0.80520  1.0000
  H   H1045     1.0  0.48254  0.21437  0.73740  1.0000
  N   N67       1.0  0.26293  0.32941  0.79478  1.0000
  H   H1046     1.0  0.31816  0.02223  0.80741  1.0000
  H   H1047     1.0  0.45191  0.18900  0.91019  1.0000
  C   C660      1.0  0.27581  0.24373  0.91329  1.0000
  H   H1048     1.0  0.30774  0.99807  0.77169  1.0000
  C   C661      1.0  0.36446  0.15582  0.66594  1.0000
  C   C662      1.0  0.27481  0.32774  0.77501  1.0000
  H   H1049     1.0  0.27596  0.01404  0.86500  1.0000
  C   C663      1.0  0.27789  0.01059  0.79955  1.0000
  H   H1050     1.0  0.41483  0.22167  0.94024  1.0000
  C   C664      1.0  0.31187  0.99985  0.78503  1.0000
  H   H1051     1.0  0.29192  0.18007  0.69776  1.0000
  C   C665      1.0  0.27304  0.99016  0.85338  1.0000
  N   N68       1.0  0.29759  0.01567  0.79376  1.0000
  C   C666      1.0  0.30065  0.98977  0.86759  1.0000
  H   H1052     1.0  0.39322  0.10561  0.67267  1.0000
  C   C667      1.0  0.34390  0.40500  0.88591  1.0000
  N   N69       1.0  0.45617  0.21643  0.72697  1.0000
  S   S272      1.0  0.29838  0.12979  0.65628  1.0000
  C   C668      1.0  0.35405  0.38963  0.85772  1.0000
  C   C669      1.0  0.28268  0.99951  0.86209  1.0000
  H   H1053     1.0  0.32901  0.43640  0.85994  1.0000
  H   H1054     1.0  0.31837  0.38618  0.87980  1.0000
  C   C670      1.0  0.32650  0.48509  0.83130  1.0000
  C   C671      1.0  0.31618  0.39551  0.74392  1.0000
  C   C672      1.0  0.28931  0.21220  0.93200  1.0000
  H   H1055     1.0  0.34172  0.39702  0.72069  1.0000
  H   H1056     1.0  0.40052  0.06969  0.67625  1.0000
  N   N70       1.0  0.33150  0.13652  0.80760  1.0000
  C   C673      1.0  0.33564  0.12058  0.79662  1.0000
  C   C674      1.0  0.34122  0.15271  0.79542  1.0000
  C   C675      1.0  0.33924  0.12891  0.82595  1.0000
  C   C676      1.0  0.31000  0.14383  0.81241  1.0000
  H   H1057     1.0  0.35176  0.11543  0.79194  1.0000
  H   H1058     1.0  0.32935  0.12554  0.78306  1.0000
  H   H1059     1.0  0.32948  0.10759  0.80571  1.0000
  H   H1060     1.0  0.35748  0.14756  0.79165  1.0000
  H   H1061     1.0  0.33594  0.15884  0.78135  1.0000
  H   H1062     1.0  0.33865  0.16504  0.80318  1.0000
  H   H1063     1.0  0.33639  0.14056  0.83459  1.0000
  H   H1064     1.0  0.35544  0.12330  0.82283  1.0000
  H   H1065     1.0  0.33241  0.11652  0.83545  1.0000
  H   H1066     1.0  0.30369  0.14976  0.79888  1.0000
  H   H1067     1.0  0.30634  0.15581  0.82080  1.0000
  H   H1068     1.0  0.30231  0.13184  0.82150  1.0000
  C   C677      1.0  0.25239  0.05346  0.70320  1.0000
  H   H1069     1.0  0.32751  0.18197  0.68976  1.0000
  C   C678      1.0  0.44453  0.20286  0.90156  1.0000
  H   H1070     1.0  0.35105  0.38912  0.84336  1.0000
  H   H1071     1.0  0.27793  0.99623  0.81011  1.0000
  C   C679      1.0  0.47537  0.15549  0.73222  1.0000
  H   H1072     1.0  0.27730  0.41210  0.65451  1.0000
  H   H1073     1.0  0.26136  0.42130  0.73791  1.0000
  C   C680      1.0  0.26318  0.26292  0.97290  1.0000
  H   H1074     1.0  0.29962  0.41841  0.69330  1.0000
  H   H1075     1.0  0.46342  0.24510  0.71957  1.0000
  H   H1076     1.0  0.34332  0.39053  0.89619  1.0000
  H   H1077     1.0  0.46083  0.21290  0.75624  1.0000
  H   H1078     1.0  0.38910  0.06999  0.72095  1.0000
  H   H1079     1.0  0.28834  0.32778  0.80655  1.0000
  H   H1080     1.0  0.30799  0.41219  0.87700  1.0000
  H   H1081     1.0  0.30484  0.00375  0.82236  1.0000
  H   H1082     1.0  0.25519  0.16164  0.94434  1.0000
  S   S273      1.0  0.34840  0.10457  0.66941  1.0000
  H   H1083     1.0  0.26688  0.02185  0.80676  1.0000
  Fe  Fe140     1.0  0.25002  0.28538  0.91923  1.0000
  H   H1084     1.0  0.25137  0.30351  0.79842  1.0000
  H   H1085     1.0  0.44597  0.23419  0.92944  1.0000
  H   H1086     1.0  0.28930  0.31759  0.77581  1.0000
  S   S274      1.0  0.26270  0.09600  0.65523  1.0000
  H   H1087     1.0  0.45949  0.20934  0.92966  1.0000
  H   H1088     1.0  0.30050  0.16969  0.65820  1.0000
  H   H1089     1.0  0.35491  0.42832  0.85128  1.0000
  N   N71       1.0  0.27546  0.42655  0.67801  1.0000
  H   H1090     1.0  0.41864  0.10590  0.67089  1.0000
  H   H1091     1.0  0.43673  0.08442  0.69635  1.0000
  C   C681      1.0  0.29834  0.45870  0.75115  1.0000
  H   H1092     1.0  0.31163  0.03847  0.77404  1.0000
  C   C682      1.0  0.24964  0.05020  0.83289  1.0000
  C   C683      1.0  0.30900  0.48658  0.84529  1.0000
  H   H1093     1.0  0.47274  0.19237  0.74476  1.0000
  C   C684      1.0  0.29779  0.47614  0.77609  1.0000
  S   S275      1.0  0.30415  0.14307  0.98182  1.0000
  H   H1094     1.0  0.42620  0.06938  0.67394  1.0000
  H   H1095     1.0  0.38004  0.07981  0.87340  1.0000
  H   H1096     1.0  0.33316  0.41650  0.89317  1.0000
  H   H1097     1.0  0.25828  0.48798  0.81584  1.0000
  C   C685      1.0  0.29818  0.38921  0.75057  1.0000
  H   H1098     1.0  0.24725  0.43399  0.66945  1.0000
  C   C686      1.0  0.42224  0.08347  0.70636  1.0000
  N   N72       1.0  0.33942  0.40499  0.86689  1.0000
  C   C687      1.0  0.41202  0.06884  0.68464  1.0000
  H   H1099     1.0  0.32088  0.20818  0.68192  1.0000
  H   H1100     1.0  0.47965  0.18026  0.83820  1.0000
  Fe  Fe141     1.0  0.30690  0.03364  0.87110  1.0000
  H   H1101     1.0  0.36579  0.06335  0.90708  1.0000
  C   C688      1.0  0.46736  0.21118  0.70811  1.0000
  H   H1102     1.0  0.27785  0.37521  0.74399  1.0000
  H   H1103     1.0  0.24761  0.44291  0.69061  1.0000
  S   S276      1.0  0.33011  0.17760  0.97348  1.0000
  C   C689      1.0  0.45033  0.23807  0.72449  1.0000
  C   C690      1.0  0.42128  0.21075  0.93060  1.0000
  S   S277      1.0  0.31931  0.05284  0.88339  1.0000
  S   S278      1.0  0.26126  0.32821  0.71253  1.0000
  H   H1104     1.0  0.42924  0.21223  0.72180  1.0000
  C   C691      1.0  0.42626  0.23613  0.90154  1.0000
  C   C692      1.0  0.24666  0.42683  0.73484  1.0000
  H   H1105     1.0  0.26533  0.21743  0.91695  1.0000
  C   C693      1.0  0.36546  0.15485  0.68543  1.0000
  C   C694      1.0  0.49464  0.15868  0.72460  1.0000
  C   C695      1.0  0.30266  0.24100  0.92934  1.0000
  C   C696      1.0  0.30379  0.37603  0.72112  1.0000
  H   H1106     1.0  0.37701  0.10606  0.86716  1.0000
  C   C697      1.0  0.25744  0.23000  0.97844  1.0000
  H   H1107     1.0  0.35887  0.40800  0.88401  1.0000
  H   H1108     1.0  0.35375  0.37469  0.86714  1.0000
  H   H1109     1.0  0.27792  0.40944  0.70677  1.0000
  H   H1110     1.0  0.42788  0.19677  0.93972  1.0000
  C   C698      1.0  0.40458  0.10414  0.68140  1.0000
  H   H1111     1.0  0.44069  0.24440  0.71346  1.0000
  Fe  Fe142     1.0  0.42876  0.15268  0.72882  1.0000
  C   C699      1.0  0.46862  0.20871  0.74198  1.0000
  S   S279      1.0  0.47480  0.23834  0.86203  1.0000
  S   S280      1.0  0.29653  0.36458  0.70588  1.0000
  H   H1112     1.0  0.45565  0.20794  0.88858  1.0000
  H   H1113     1.0  0.30723  0.45221  0.73839  1.0000
  C   C700      1.0  0.30363  0.01778  0.81128  1.0000
  H   H1114     1.0  0.25138  0.17715  0.90093  1.0000
  H   H1115     1.0  0.45373  0.14954  0.75858  1.0000
  C   C701      1.0  0.29690  0.03443  0.77917  1.0000
  H   H1116     1.0  0.26827  0.27358  0.97843  1.0000
  H   H1117     1.0  0.27207  0.26203  0.95794  1.0000
  H   H1118     1.0  0.26717  0.32197  0.76658  1.0000
  H   H1119     1.0  0.41858  0.09548  0.71469  1.0000
  C   C702      1.0  0.43832  0.20779  0.73333  1.0000
  C   C703      1.0  0.31727  0.48409  0.74357  1.0000
  S   S281      1.0  0.25395  0.46282  0.73163  1.0000
  H   H1120     1.0  0.27664  0.45721  0.67172  1.0000
  C   C704      1.0  0.49151  0.25398  0.85775  1.0000
  C   C705      1.0  0.32711  0.45321  0.76523  1.0000
  H   H1121     1.0  0.30625  0.48326  0.78242  1.0000
  H   H1122     1.0  0.47162  0.19494  0.70947  1.0000
  H   H1123     1.0  0.48618  0.22321  0.82272  1.0000
  C   C706      1.0  0.24911  0.06615  0.79901  1.0000
  H   H1124     1.0  0.48651  0.21599  0.79060  1.0000
  H   H1125     1.0  0.29190  0.46448  0.78796  1.0000
  C   C707      1.0  0.28980  0.19211  0.68473  1.0000
  C   C708      1.0  0.48041  0.18749  0.82246  1.0000
  H   H1126     1.0  0.32697  0.00306  0.78067  1.0000
  H   H1127     1.0  0.26554  0.22879  0.96329  1.0000
  H   H1128     1.0  0.44216  0.19139  0.73663  1.0000
  C   C709      1.0  0.28209  0.44410  0.66475  1.0000
  H   H1129     1.0  0.29923  0.40589  0.66475  1.0000
  H   H1130     1.0  0.29846  0.44172  0.66096  1.0000
  H   H1131     1.0  0.33661  0.44654  0.75278  1.0000
  H   H1132     1.0  0.28171  0.47653  0.85743  1.0000
  C   C710      1.0  0.28284  0.40947  0.66831  1.0000
  C   C711      1.0  0.24945  0.18740  0.91090  1.0000
  S   S282      1.0  0.35177  0.13032  0.98017  1.0000
  H   H1133     1.0  0.28506  0.48760  0.77182  1.0000
  C   C712      1.0  0.25369  0.43040  0.68284  1.0000
  H   H1134     1.0  0.45849  0.21689  0.69639  1.0000
  H   H1135     1.0  0.24767  0.26929  0.97129  1.0000
  H   H1136     1.0  0.24579  0.35792  0.78483  1.0000
  H   H1137     1.0  0.45813  0.69168  0.20038  1.0000
  C   C713      1.0  0.43223  0.84012  0.28630  1.0000
  H   H1138     1.0  0.46912  0.68894  0.22113  1.0000
  H   H1139     1.0  0.26267  0.73104  0.02333  1.0000
  H   H1140     1.0  0.44920  0.68163  0.26470  1.0000
  C   C714      1.0  0.24653  0.51043  0.31617  1.0000
  H   H1141     1.0  0.25555  0.75987  0.03900  1.0000
  H   H1142     1.0  0.32490  0.92299  0.30015  1.0000
  H   H1143     1.0  0.34844  0.75430  0.25815  1.0000
  H   H1144     1.0  0.31322  0.65862  0.11118  1.0000
  Fe  Fe143     1.0  0.35610  0.87595  0.24691  1.0000
  S   S283      1.0  0.33241  0.86681  0.27198  1.0000
  S   S284      1.0  0.37521  0.89171  0.25566  1.0000
  Fe  Fe144     1.0  0.34454  0.85568  0.22011  1.0000
  S   S285      1.0  0.31963  0.84537  0.24303  1.0000
  S   S286      1.0  0.35468  0.84537  0.19135  1.0000
  Fe  Fe145     1.0  0.31324  0.87553  0.24972  1.0000
  S   S287      1.0  0.28325  0.89258  0.26048  1.0000
  Fe  Fe146     1.0  0.34085  0.83759  0.26327  1.0000
  S   S288      1.0  0.34454  0.80790  0.28336  1.0000
  S   S289      1.0  0.33632  0.88697  0.22487  1.0000
  S   S290      1.0  0.36642  0.84570  0.24010  1.0000
  S   S291      1.0  0.39474  0.66372  0.27312  1.0000
  Fe  Fe147     1.0  0.41469  0.67559  0.21711  1.0000
  S   S292      1.0  0.38314  0.68650  0.23012  1.0000
  S   S293      1.0  0.42998  0.67894  0.18557  1.0000
  Fe  Fe148     1.0  0.39520  0.69342  0.25320  1.0000
  S   S294      1.0  0.38642  0.72206  0.26393  1.0000
  Fe  Fe149     1.0  0.38536  0.65591  0.24872  1.0000
  S   S295      1.0  0.35932  0.64138  0.25345  1.0000
  S   S296      1.0  0.42650  0.68566  0.23798  1.0000
  Fe  Fe150     1.0  0.31519  0.76738  0.11461  1.0000
  S   S297      1.0  0.29553  0.76184  0.14418  1.0000
  S   S298      1.0  0.30052  0.78580  0.08948  1.0000
  Fe  Fe151     1.0  0.35168  0.74616  0.13146  1.0000
  S   S299      1.0  0.33487  0.73883  0.16229  1.0000
  S   S300      1.0  0.38416  0.73642  0.12187  1.0000
  Fe  Fe152     1.0  0.31397  0.73143  0.14791  1.0000
  S   S301      1.0  0.30224  0.70351  0.15867  1.0000
  Fe  Fe153     1.0  0.31818  0.77001  0.15555  1.0000
  S   S302      1.0  0.30524  0.79004  0.17720  1.0000
  S   S303      1.0  0.33206  0.73622  0.11757  1.0000
  S   S304      1.0  0.33667  0.77793  0.12568  1.0000
  H   H1145     1.0  0.44474  0.83101  0.27778  1.0000
  C   C715      1.0  0.25751  0.60377  0.15010  1.0000
  H   H1146     1.0  0.28934  0.91866  0.28570  1.0000
  H   H1147     1.0  0.32531  0.53334  0.13660  1.0000
  S   S305      1.0  0.27942  0.62461  0.11877  1.0000
  H   H1148     1.0  0.34285  0.91703  0.27898  1.0000
  Fe  Fe154     1.0  0.30872  0.53876  0.25191  1.0000
  C   C716      1.0  0.47242  0.68781  0.20542  1.0000
  Fe  Fe155     1.0  0.29349  0.55643  0.21447  1.0000
  S   S306      1.0  0.32320  0.54856  0.19551  1.0000
  S   S307      1.0  0.26563  0.57015  0.20289  1.0000
  Fe  Fe156     1.0  0.33458  0.55911  0.21676  1.0000
  S   S308      1.0  0.35901  0.57647  0.20752  1.0000
  S   S309      1.0  0.29464  0.52657  0.23426  1.0000
  S   S310      1.0  0.30461  0.56947  0.23389  1.0000
  C   C717      1.0  0.27592  0.60874  0.14172  1.0000
  C   C718      1.0  0.29140  0.60141  0.15196  1.0000
  C   C719      1.0  0.28831  0.58957  0.17083  1.0000
  C   C720      1.0  0.26989  0.58468  0.17924  1.0000
  H   H1149     1.0  0.24677  0.71588  0.07761  1.0000
  H   H1150     1.0  0.30816  0.93571  0.24434  1.0000
  H   H1151     1.0  0.30559  0.60538  0.14557  1.0000
  H   H1152     1.0  0.30005  0.58472  0.17900  1.0000
  H   H1153     1.0  0.33904  0.76343  0.22531  1.0000
  H   H1154     1.0  0.34419  0.83872  0.30256  1.0000
  H   H1155     1.0  0.43179  0.83339  0.30219  1.0000
  C   C721      1.0  0.29343  0.93333  0.28268  1.0000
  C   C722      1.0  0.27468  0.72356  0.13627  1.0000
  C   C723      1.0  0.28122  0.70611  0.14898  1.0000
  N   N73       1.0  0.31436  0.93243  0.27300  1.0000
  H   H1156     1.0  0.27032  0.71577  0.04513  1.0000
  H   H1157     1.0  0.33723  0.53492  0.30044  1.0000
  H   H1158     1.0  0.28258  0.73536  0.13213  1.0000
  H   H1159     1.0  0.28739  0.54088  0.18137  1.0000
  H   H1160     1.0  0.32047  0.49557  0.16653  1.0000
  C   C724      1.0  0.35939  0.62399  0.23984  1.0000
  C   C725      1.0  0.34190  0.61756  0.24172  1.0000
  C   C726      1.0  0.34147  0.60334  0.23153  1.0000
  C   C727      1.0  0.35857  0.59541  0.21937  1.0000
  C   C728      1.0  0.37596  0.60220  0.21711  1.0000
  C   C729      1.0  0.37641  0.61637  0.22737  1.0000
  H   H1161     1.0  0.32862  0.62358  0.25117  1.0000
  H   H1162     1.0  0.32792  0.59850  0.23312  1.0000
  H   H1163     1.0  0.38925  0.59613  0.20771  1.0000
  H   H1164     1.0  0.38999  0.62116  0.22583  1.0000
  C   C730      1.0  0.41702  0.69554  0.16840  1.0000
  C   C731      1.0  0.39915  0.70800  0.17426  1.0000
  C   C732      1.0  0.38891  0.72076  0.16005  1.0000
  C   C733      1.0  0.39662  0.72107  0.14006  1.0000
  C   C734      1.0  0.41466  0.70888  0.13430  1.0000
  C   C735      1.0  0.42480  0.69610  0.14844  1.0000
  H   H1165     1.0  0.39336  0.70799  0.18964  1.0000
  H   H1166     1.0  0.37536  0.73067  0.16452  1.0000
  H   H1167     1.0  0.42072  0.70921  0.11886  1.0000
  H   H1168     1.0  0.43866  0.68656  0.14386  1.0000
  C   C736      1.0  0.34077  0.83039  0.18695  1.0000
  C   C737      1.0  0.32153  0.83004  0.19735  1.0000
  C   C738      1.0  0.31081  0.81765  0.19411  1.0000
  C   C739      1.0  0.31921  0.80554  0.18040  1.0000
  C   C740      1.0  0.33836  0.80602  0.16971  1.0000
  C   C741      1.0  0.34911  0.81848  0.17298  1.0000
  H   H1169     1.0  0.31471  0.83963  0.20760  1.0000
  H   H1170     1.0  0.29593  0.81747  0.20227  1.0000
  H   H1171     1.0  0.34495  0.79673  0.15906  1.0000
  H   H1172     1.0  0.36396  0.81878  0.16477  1.0000
  H   H1173     1.0  0.47329  0.67052  0.17609  1.0000
  N   N74       1.0  0.24913  0.49723  0.30252  1.0000
  C   C742      1.0  0.39368  0.73657  0.29299  1.0000
  C   C743      1.0  0.39660  0.72015  0.28454  1.0000
  H   H1174     1.0  0.40047  0.85122  0.25497  1.0000
  H   H1175     1.0  0.29007  0.67395  0.11914  1.0000
  H   H1176     1.0  0.32632  0.56552  0.26444  1.0000
  H   H1177     1.0  0.38553  0.75058  0.28657  1.0000
  C   C744      1.0  0.31845  0.53401  0.15218  1.0000
  H   H1178     1.0  0.39946  0.86863  0.28977  1.0000
  C   C745      1.0  0.47112  0.65326  0.21418  1.0000
  N   N75       1.0  0.48319  0.66787  0.20275  1.0000
  H   H1179     1.0  0.28096  0.54901  0.14793  1.0000
  H   H1180     1.0  0.33015  0.52720  0.16105  1.0000
  S   S311      1.0  0.25933  0.77513  0.99683  1.0000
  H   H1181     1.0  0.25180  0.71008  0.03563  1.0000
  H   H1182     1.0  0.28443  0.83201  0.15732  1.0000
  N   N76       1.0  0.48808  0.70853  0.31027  1.0000
  H   H1183     1.0  0.28201  0.83271  0.31125  1.0000
  H   H1184     1.0  0.47439  0.70192  0.25708  1.0000
  C   C746      1.0  0.36107  0.79751  0.23190  1.0000
  H   H1185     1.0  0.33683  0.77892  0.26176  1.0000
  C   C747      1.0  0.37516  0.95653  0.22692  1.0000
  C   C748      1.0  0.37918  0.94889  0.24578  1.0000
  C   C749      1.0  0.37942  0.92893  0.25432  1.0000
  C   C750      1.0  0.37518  0.91657  0.24426  1.0000
  C   C751      1.0  0.37086  0.92423  0.22549  1.0000
  C   C752      1.0  0.37100  0.94414  0.21680  1.0000
  H   H1186     1.0  0.38256  0.95825  0.25364  1.0000
  H   H1187     1.0  0.38286  0.92309  0.26880  1.0000
  H   H1188     1.0  0.36774  0.91477  0.21754  1.0000
  H   H1189     1.0  0.36796  0.94993  0.20216  1.0000
  C   C753      1.0  0.39728  0.85325  0.29252  1.0000
  H   H1190     1.0  0.34573  0.53218  0.27551  1.0000
  H   H1191     1.0  0.31295  0.83532  0.11754  1.0000
  H   H1192     1.0  0.39855  0.74741  0.31657  1.0000
  C   C754      1.0  0.30289  0.75540  0.03953  1.0000
  C   C755      1.0  0.29180  0.77447  0.03979  1.0000
  C   C756      1.0  0.29111  0.78373  0.05515  1.0000
  C   C757      1.0  0.30153  0.77401  0.07027  1.0000
  C   C758      1.0  0.31266  0.75502  0.06984  1.0000
  C   C759      1.0  0.31335  0.74578  0.05456  1.0000
  H   H1193     1.0  0.28257  0.79849  0.05529  1.0000
  H   H1194     1.0  0.32106  0.74758  0.08107  1.0000
  H   H1195     1.0  0.32228  0.73123  0.05420  1.0000
  C   C760      1.0  0.35351  0.56618  0.29680  1.0000
  H   H1196     1.0  0.37235  0.79754  0.24015  1.0000
  C   C761      1.0  0.34892  0.53790  0.28721  1.0000
  H   H1197     1.0  0.42657  0.84178  0.25017  1.0000
  H   H1198     1.0  0.34714  0.78380  0.20747  1.0000
  H   H1199     1.0  0.34739  0.80761  0.23743  1.0000
  H   H1200     1.0  0.25044  0.90276  0.29155  1.0000
  H   H1201     1.0  0.31376  0.54984  0.15322  1.0000
  S   S312      1.0  0.30191  0.53318  0.28482  1.0000
  H   H1202     1.0  0.30931  0.81372  0.11167  1.0000
  C   C762      1.0  0.37604  0.76451  0.22695  1.0000
  C   C763      1.0  0.31725  0.69641  0.10130  1.0000
  N   N77       1.0  0.28369  0.82940  0.12833  1.0000
  C   C764      1.0  0.30525  0.82272  0.12321  1.0000
  C   C765      1.0  0.27421  0.81213  0.13562  1.0000
  C   C766      1.0  0.27641  0.84160  0.11065  1.0000
  C   C767      1.0  0.27901  0.84101  0.14384  1.0000
  Fe  Fe157     1.0  0.29031  0.75785  0.99446  1.0000
  C   C768      1.0  0.36458  0.56240  0.26310  1.0000
  H   H1203     1.0  0.32921  0.58623  0.27246  1.0000
  C   C769      1.0  0.27116  0.54645  0.31266  1.0000
  H   H1204     1.0  0.25791  0.81657  0.13939  1.0000
  H   H1205     1.0  0.27777  0.80281  0.12441  1.0000
  H   H1206     1.0  0.26016  0.84689  0.11391  1.0000
  H   H1207     1.0  0.29654  0.49442  0.16397  1.0000
  H   H1208     1.0  0.27757  0.50336  0.28720  1.0000
  H   H1209     1.0  0.25730  0.51907  0.27695  1.0000
  H   H1210     1.0  0.33335  0.92531  0.24638  1.0000
  C   C770      1.0  0.31923  0.95213  0.26899  1.0000
  C   C771      1.0  0.31786  0.92583  0.25431  1.0000
  H   H1211     1.0  0.28210  0.69449  0.07793  1.0000
  H   H1212     1.0  0.24764  0.68022  0.14809  1.0000
  N   N78       1.0  0.41339  0.84119  0.28069  1.0000
  H   H1213     1.0  0.29480  0.85220  0.27922  1.0000
  C   C772      1.0  0.48841  0.68886  0.30710  1.0000
  H   H1214     1.0  0.36573  0.57818  0.25841  1.0000
  C   C773      1.0  0.34233  0.77824  0.22348  1.0000
  H   H1215     1.0  0.32232  0.70950  0.09110  1.0000
  C   C774      1.0  0.24825  0.71008  0.13259  1.0000
  S   S313      1.0  0.33773  0.49089  0.20575  1.0000
  H   H1216     1.0  0.35382  0.58221  0.29245  1.0000
  H   H1217     1.0  0.29392  0.71456  0.07553  1.0000
  H   H1218     1.0  0.33495  0.95186  0.26162  1.0000
  S   S314      1.0  0.33949  0.52908  0.23617  1.0000
  H   H1219     1.0  0.29018  0.93817  0.29692  1.0000
  H   H1220     1.0  0.36915  0.77722  0.30609  1.0000
  H   H1221     1.0  0.33033  0.68612  0.10635  1.0000
  C   C775      1.0  0.24985  0.75055  0.05317  1.0000
  H   H1222     1.0  0.28346  0.94375  0.27327  1.0000
  C   C776      1.0  0.28972  0.70105  0.08565  1.0000
  H   H1223     1.0  0.31686  0.95760  0.28278  1.0000
  C   C777      1.0  0.32978  0.57010  0.27669  1.0000
  H   H1224     1.0  0.28379  0.78207  0.02817  1.0000
  C   C778      1.0  0.35082  0.76960  0.25557  1.0000
  H   H1225     1.0  0.41016  0.68951  0.28626  1.0000
  H   H1226     1.0  0.46727  0.65388  0.23000  1.0000
  C   C779      1.0  0.29301  0.52528  0.17988  1.0000
  C   C780      1.0  0.24748  0.56692  0.28528  1.0000
  H   H1227     1.0  0.31770  0.56740  0.28961  1.0000
  H   H1228     1.0  0.36614  0.80399  0.21615  1.0000
  H   H1229     1.0  0.39502  0.82137  0.28114  1.0000
  H   H1230     1.0  0.31124  0.81358  0.13628  1.0000
  H   H1231     1.0  0.41693  0.86565  0.25640  1.0000
  H   H1232     1.0  0.38769  0.76314  0.23531  1.0000
  H   H1233     1.0  0.28335  0.85471  0.10463  1.0000
  S   S315      1.0  0.45245  0.63953  0.27002  1.0000
  H   H1234     1.0  0.32361  0.90336  0.28939  1.0000
  H   H1235     1.0  0.27201  0.55690  0.26353  1.0000
  C   C781      1.0  0.46982  0.65402  0.26793  1.0000
  C   C782      1.0  0.27843  0.54661  0.29264  1.0000
  N   N79       1.0  0.35526  0.67294  0.18745  1.0000
  C   C783      1.0  0.34709  0.69024  0.19674  1.0000
  C   C784      1.0  0.34115  0.65953  0.19381  1.0000
  C   C785      1.0  0.37413  0.66250  0.19346  1.0000
  C   C786      1.0  0.35860  0.67952  0.16585  1.0000
  H   H1236     1.0  0.34450  0.68581  0.21306  1.0000
  H   H1237     1.0  0.33275  0.69834  0.19259  1.0000
  H   H1238     1.0  0.35728  0.70075  0.19217  1.0000
  H   H1239     1.0  0.34693  0.64609  0.18740  1.0000
  H   H1240     1.0  0.33811  0.65454  0.21009  1.0000
  H   H1241     1.0  0.32681  0.66688  0.18926  1.0000
  H   H1242     1.0  0.38042  0.64899  0.18725  1.0000
  H   H1243     1.0  0.37220  0.65790  0.20972  1.0000
  H   H1244     1.0  0.38533  0.67197  0.18847  1.0000
  H   H1245     1.0  0.36919  0.68967  0.16055  1.0000
  H   H1246     1.0  0.34464  0.68757  0.16085  1.0000
  H   H1247     1.0  0.36469  0.66685  0.15835  1.0000
  C   C787      1.0  0.32068  0.68041  0.07446  1.0000
  H   H1248     1.0  0.33405  0.66983  0.07857  1.0000
  H   H1249     1.0  0.32561  0.69312  0.06339  1.0000
  H   H1250     1.0  0.31352  0.67294  0.06711  1.0000
  H   H1251     1.0  0.39626  0.84698  0.30853  1.0000
  C   C788      1.0  0.27516  0.84803  0.30710  1.0000
  N   N80       1.0  0.35756  0.77746  0.23448  1.0000
  H   H1252     1.0  0.38180  0.77018  0.21116  1.0000
  H   H1253     1.0  0.27655  0.67682  0.16284  1.0000
  H   H1254     1.0  0.42104  0.81179  0.27513  1.0000
  C   C789      1.0  0.40956  0.82111  0.28435  1.0000
  N   N81       1.0  0.30166  0.52381  0.15925  1.0000
  H   H1255     1.0  0.36137  0.55805  0.25053  1.0000
  C   C790      1.0  0.48950  0.64504  0.26893  1.0000
  H   H1256     1.0  0.37935  0.55378  0.26551  1.0000
  H   H1257     1.0  0.40949  0.81355  0.29996  1.0000
  N   N82       1.0  0.34921  0.55914  0.28095  1.0000
  H   H1258     1.0  0.37381  0.74933  0.22842  1.0000
  C   C791      1.0  0.32698  0.91834  0.28598  1.0000
  H   H1259     1.0  0.43560  0.85503  0.28370  1.0000
  H   H1260     1.0  0.34213  0.56401  0.31046  1.0000
  N   N83       1.0  0.30707  0.68687  0.09185  1.0000
  H   H1261     1.0  0.47809  0.68975  0.29744  1.0000
  H   H1262     1.0  0.31003  0.96313  0.25919  1.0000
  C   C792      1.0  0.30862  0.50283  0.15796  1.0000
  H   H1263     1.0  0.45702  0.65591  0.20912  1.0000
  C   C793      1.0  0.47873  0.68603  0.26030  1.0000
  C   C794      1.0  0.35589  0.80809  0.30224  1.0000
  H   H1264     1.0  0.48107  0.69922  0.19697  1.0000
  C   C795      1.0  0.40738  0.70214  0.29285  1.0000
  C   C796      1.0  0.25799  0.72571  0.12845  1.0000
  S   S316      1.0  0.37545  0.98140  0.21565  1.0000
  C   C797      1.0  0.30061  0.66962  0.10595  1.0000
  H   H1265     1.0  0.30414  0.51874  0.18935  1.0000
  H   H1266     1.0  0.36808  0.55826  0.30041  1.0000
  H   H1267     1.0  0.27368  0.52581  0.15210  1.0000
  C   C798      1.0  0.28242  0.85909  0.28889  1.0000
  C   C799      1.0  0.27356  0.87881  0.28319  1.0000
  S   S317      1.0  0.30350  0.74260  0.02132  1.0000
  S   S318      1.0  0.41637  0.64465  0.23431  1.0000
  H   H1268     1.0  0.32830  0.78823  0.22846  1.0000
  H   H1269     1.0  0.38278  0.85417  0.28883  1.0000
  H   H1270     1.0  0.36188  0.76909  0.26431  1.0000
  H   H1271     1.0  0.26238  0.74443  0.06101  1.0000
  C   C800      1.0  0.26290  0.50367  0.28423  1.0000
  Fe  Fe158     1.0  0.32509  0.51939  0.21666  1.0000
  C   C801      1.0  0.46445  0.67454  0.26423  1.0000
  C   C802      1.0  0.41447  0.85030  0.25963  1.0000
  H   H1272     1.0  0.29305  0.66190  0.09927  1.0000
  Fe  Fe159     1.0  0.25012  0.64284  0.11349  1.0000
  H   H1273     1.0  0.27884  0.70571  0.09849  1.0000
  H   H1274     1.0  0.28606  0.85408  0.13892  1.0000
  H   H1275     1.0  0.30738  0.70156  0.11440  1.0000
  C   C803      1.0  0.26661  0.55690  0.27897  1.0000
  Fe  Fe160     1.0  0.42575  0.65562  0.25662  1.0000
  H   H1276     1.0  0.28050  0.51747  0.18592  1.0000
  C   C804      1.0  0.25459  0.59154  0.16874  1.0000
  H   H1277     1.0  0.36327  0.52909  0.29069  1.0000
  H   H1278     1.0  0.31490  0.91080  0.25687  1.0000
  S   S319      1.0  0.25008  0.67216  0.09355  1.0000
  C   C805      1.0  0.25733  0.88749  0.29587  1.0000
  H   H1279     1.0  0.27983  0.83302  0.09880  1.0000
  C   C806      1.0  0.25018  0.87644  0.31431  1.0000
  C   C807      1.0  0.35383  0.82561  0.30842  1.0000
  H   H1280     1.0  0.25296  0.73934  0.11876  1.0000
  H   H1281     1.0  0.27921  0.80271  0.14909  1.0000
  H   H1282     1.0  0.31474  0.50106  0.14254  1.0000
  C   C808      1.0  0.27143  0.69045  0.15321  1.0000
  H   H1283     1.0  0.45753  0.71921  0.30832  1.0000
  H   H1284     1.0  0.26285  0.84626  0.14817  1.0000
  C   C809      1.0  0.36772  0.79087  0.31066  1.0000
  H   H1285     1.0  0.47894  0.63797  0.21302  1.0000
  H   H1286     1.0  0.48626  0.72242  0.28031  1.0000
  C   C810      1.0  0.40108  0.73479  0.30996  1.0000
  C   C811      1.0  0.25733  0.72232  0.03807  1.0000
  C   C812      1.0  0.28655  0.53318  0.14711  1.0000
  H   H1287     1.0  0.49375  0.62915  0.27193  1.0000
  H   H1288     1.0  0.29255  0.53248  0.13138  1.0000
  H   H1289     1.0  0.29520  0.49222  0.21539  1.0000
  H   H1290     1.0  0.26530  0.49408  0.27350  1.0000
  C   C813      1.0  0.25510  0.69235  0.14482  1.0000
  H   H1291     1.0  0.42223  0.68610  0.31654  1.0000
  C   C814      1.0  0.48724  0.66706  0.18172  1.0000
  C   C815      1.0  0.49517  0.72122  0.29143  1.0000
  C   C816      1.0  0.41435  0.70026  0.30998  1.0000
  H   H1292     1.0  0.49448  0.73637  0.29330  1.0000
  H   H1293     1.0  0.49516  0.65217  0.17918  1.0000
  H   H1294     1.0  0.33039  0.79217  0.37418  1.0000
  C   C817      1.0  0.24960  0.74696  0.64798  1.0000
  C   C818      1.0  0.25855  0.87613  0.63539  1.0000
  H   H1295     1.0  0.46690  0.73245  0.32092  1.0000
  H   H1296     1.0  0.28787  0.83402  0.37947  1.0000
  S   S320      1.0  0.33551  0.78008  0.63186  1.0000
  S   S321      1.0  0.41907  0.71313  0.34085  1.0000
  H   H1297     1.0  0.34858  0.72019  0.40656  1.0000
  C   C819      1.0  0.29568  0.80276  0.36272  1.0000
  Fe  Fe161     1.0  0.32002  0.76241  0.62114  1.0000
  S   S322      1.0  0.33459  0.74921  0.59431  1.0000
  H   H1298     1.0  0.30337  0.63470  0.47935  1.0000
  H   H1299     1.0  0.29904  0.82548  0.58527  1.0000
  H   H1300     1.0  0.29480  0.65358  0.49364  1.0000
  H   H1301     1.0  0.33805  0.68581  0.60984  1.0000
  H   H1302     1.0  0.29357  0.84032  0.34309  1.0000
  S   S323      1.0  0.44933  0.73385  0.36360  1.0000
  H   H1303     1.0  0.28638  0.71133  0.62208  1.0000
  Fe  Fe162     1.0  0.42935  0.75265  0.38401  1.0000
  S   S324      1.0  0.43111  0.74152  0.41578  1.0000
  S   S325      1.0  0.43851  0.78053  0.36579  1.0000
  S   S326      1.0  0.40285  0.75603  0.37121  1.0000
  Fe  Fe163     1.0  0.28464  0.72593  0.48526  1.0000
  S   S327      1.0  0.27230  0.75795  0.48411  1.0000
  C   C820      1.0  0.33267  0.80025  0.57523  1.0000
  Fe  Fe164     1.0  0.32691  0.73129  0.47694  1.0000
  S   S328      1.0  0.31826  0.76392  0.47558  1.0000
  S   S329      1.0  0.35741  0.71265  0.47446  1.0000
  Fe  Fe165     1.0  0.29469  0.75622  0.50190  1.0000
  S   S330      1.0  0.28276  0.76853  0.52942  1.0000
  Fe  Fe166     1.0  0.29671  0.76257  0.45801  1.0000
  S   S331      1.0  0.29255  0.78287  0.42912  1.0000
  S   S332      1.0  0.30529  0.72375  0.50487  1.0000
  S   S333      1.0  0.30716  0.73035  0.45752  1.0000
  Fe  Fe167     1.0  0.45623  0.76193  0.34409  1.0000
  S   S334      1.0  0.48705  0.76177  0.32636  1.0000
  H   H1304     1.0  0.28544  0.71169  0.58722  1.0000
  H   H1305     1.0  0.31302  0.83546  0.37767  1.0000
  H   H1306     1.0  0.29769  0.80205  0.56607  1.0000
  H   H1307     1.0  0.37170  0.68156  0.42853  1.0000
  H   H1308     1.0  0.39248  0.69576  0.37521  1.0000
  C   C821      1.0  0.41004  0.73500  0.43230  1.0000
  C   C822      1.0  0.41263  0.71896  0.44788  1.0000
  C   C823      1.0  0.39631  0.71255  0.46085  1.0000
  C   C824      1.0  0.37722  0.72254  0.45880  1.0000
  C   C825      1.0  0.37449  0.73915  0.44368  1.0000
  C   C826      1.0  0.39094  0.74516  0.43015  1.0000
  H   H1309     1.0  0.42734  0.71118  0.44968  1.0000
  H   H1310     1.0  0.39850  0.69979  0.47255  1.0000
  H   H1311     1.0  0.35975  0.74704  0.44216  1.0000
  H   H1312     1.0  0.38890  0.75779  0.41830  1.0000
  C   C827      1.0  0.41110  0.71650  0.31868  1.0000
  C   C828      1.0  0.27106  0.80125  0.43100  1.0000
  C   C829      1.0  0.26351  0.81074  0.41407  1.0000
  N   N84       1.0  0.30928  0.81580  0.36124  1.0000
  H   H1313     1.0  0.33679  0.70782  0.59114  1.0000
  Fe  Fe168     1.0  0.42366  0.73972  0.34893  1.0000
  H   H1314     1.0  0.38463  0.72168  0.37407  1.0000
  C   C830      1.0  0.27118  0.65928  0.46810  1.0000
  H   H1315     1.0  0.25967  0.66408  0.50596  1.0000
  H   H1316     1.0  0.33477  0.79699  0.34776  1.0000
  C   C831      1.0  0.36279  0.71946  0.41069  1.0000
  C   C832      1.0  0.29155  0.64001  0.49128  1.0000
  H   H1317     1.0  0.29978  0.79540  0.34995  1.0000
  H   H1318     1.0  0.31279  0.82438  0.32979  1.0000
  H   H1319     1.0  0.30118  0.81963  0.54344  1.0000
  C   C833      1.0  0.30173  0.70742  0.58388  1.0000
  S   S335      1.0  0.43192  0.76652  0.32770  1.0000
  H   H1320     1.0  0.38805  0.77833  0.33038  1.0000
  H   H1321     1.0  0.48292  0.77278  0.36370  1.0000
  C   C834      1.0  0.38064  0.70718  0.38151  1.0000
  C   C835      1.0  0.32027  0.75420  0.57624  1.0000
  C   C836      1.0  0.32915  0.75083  0.55731  1.0000
  C   C837      1.0  0.31774  0.75474  0.54282  1.0000
  C   C838      1.0  0.29747  0.76222  0.54723  1.0000
  C   C839      1.0  0.28862  0.76526  0.56621  1.0000
  C   C840      1.0  0.29994  0.76107  0.58069  1.0000
  H   H1322     1.0  0.34487  0.74527  0.55379  1.0000
  H   H1323     1.0  0.32466  0.75230  0.52818  1.0000
  H   H1324     1.0  0.27291  0.77085  0.56974  1.0000
  H   H1325     1.0  0.29280  0.76284  0.59537  1.0000
  S   S336      1.0  0.25052  0.84225  0.34248  1.0000
  S   S337      1.0  0.30470  0.83294  0.62207  1.0000
  C   C841      1.0  0.33145  0.69369  0.59678  1.0000
  Fe  Fe169     1.0  0.41343  0.78254  0.35127  1.0000
  C   C842      1.0  0.39734  0.70438  0.40780  1.0000
  H   H1326     1.0  0.27033  0.80614  0.40038  1.0000
  H   H1327     1.0  0.34222  0.80583  0.58179  1.0000
  H   H1328     1.0  0.34566  0.81356  0.53684  1.0000
  H   H1329     1.0  0.34648  0.83092  0.55072  1.0000
  C   C843      1.0  0.27494  0.86486  0.62523  1.0000
  C   C844      1.0  0.26808  0.62572  0.48323  1.0000
  C   C845      1.0  0.24865  0.70679  0.47921  1.0000
  H   H1330     1.0  0.25057  0.88947  0.62753  1.0000
  C   C846      1.0  0.26164  0.80685  0.44890  1.0000
  N   N85       1.0  0.37852  0.70389  0.40304  1.0000
  H   H1331     1.0  0.36006  0.71676  0.42703  1.0000
  H   H1332     1.0  0.28663  0.68072  0.61318  1.0000
  C   C847      1.0  0.37332  0.68448  0.41225  1.0000
  H   H1333     1.0  0.28024  0.81120  0.36310  1.0000
  C   C848      1.0  0.46771  0.71755  0.31841  1.0000
  H   H1334     1.0  0.34213  0.78843  0.56757  1.0000
  H   H1335     1.0  0.31757  0.79604  0.54634  1.0000
  H   H1336     1.0  0.36679  0.70688  0.37728  1.0000
  C   C849      1.0  0.30996  0.83157  0.57264  1.0000
  N   N86       1.0  0.27191  0.64397  0.48626  1.0000
  H   H1337     1.0  0.28190  0.65430  0.45532  1.0000
  C   C850      1.0  0.25260  0.71649  0.45955  1.0000
  H   H1338     1.0  0.26514  0.70956  0.53722  1.0000
  H   H1339     1.0  0.36673  0.73423  0.40497  1.0000
  H   H1340     1.0  0.30952  0.70324  0.62980  1.0000
  S   S338      1.0  0.29185  0.78484  0.62193  1.0000
  H   H1341     1.0  0.27909  0.62003  0.47098  1.0000
  H   H1342     1.0  0.25326  0.62824  0.47965  1.0000
  S   S339      1.0  0.39227  0.81111  0.34455  1.0000
  H   H1343     1.0  0.26750  0.79975  0.46201  1.0000
  H   H1344     1.0  0.34013  0.81332  0.36014  1.0000
  H   H1345     1.0  0.25629  0.66329  0.46431  1.0000
  H   H1346     1.0  0.39632  0.70173  0.42395  1.0000
  H   H1347     1.0  0.27465  0.67302  0.46971  1.0000
  C   C851      1.0  0.25181  0.55606  0.31904  1.0000
  H   H1348     1.0  0.35913  0.68363  0.40906  1.0000
  C   C852      1.0  0.30907  0.80815  0.55405  1.0000
  H   H1349     1.0  0.29574  0.79106  0.37632  1.0000
  H   H1350     1.0  0.40964  0.69306  0.40197  1.0000
  H   H1351     1.0  0.27958  0.86952  0.60954  1.0000
  H   H1352     1.0  0.30732  0.72114  0.57682  1.0000
  S   S340      1.0  0.24778  0.70911  0.60644  1.0000
  H   H1353     1.0  0.32228  0.79317  0.58759  1.0000
  C   C853      1.0  0.33641  0.82481  0.54534  1.0000
  H   H1354     1.0  0.29252  0.62865  0.50502  1.0000
  C   C854      1.0  0.30864  0.83106  0.34305  1.0000
  N   N87       1.0  0.32202  0.81620  0.56180  1.0000
  C   C855      1.0  0.28501  0.84740  0.63525  1.0000
  H   H1355     1.0  0.32890  0.83698  0.53495  1.0000
  C   C856      1.0  0.37842  0.79150  0.32436  1.0000
  H   H1356     1.0  0.31921  0.83792  0.57883  1.0000
  H   H1357     1.0  0.31895  0.84100  0.34124  1.0000
  H   H1358     1.0  0.40165  0.71890  0.40140  1.0000
  H   H1359     1.0  0.26487  0.72398  0.45424  1.0000
  H   H1360     1.0  0.38486  0.67239  0.40678  1.0000
  N   N88       1.0  0.30970  0.69729  0.60178  1.0000
  C   C857      1.0  0.25913  0.85669  0.31986  1.0000
  H   H1361     1.0  0.46183  0.70843  0.33265  1.0000
  H   H1362     1.0  0.26833  0.61391  0.49670  1.0000
  H   H1363     1.0  0.33739  0.68474  0.58522  1.0000
  H   H1364     1.0  0.30587  0.69801  0.57274  1.0000
  H   H1365     1.0  0.24601  0.55558  0.33455  1.0000
  C   C858      1.0  0.30324  0.82531  0.37843  1.0000
  C   C859      1.0  0.30305  0.67837  0.60971  1.0000
  H   H1366     1.0  0.30571  0.72470  0.61082  1.0000
  C   C860      1.0  0.30254  0.70968  0.61675  1.0000
  C   C861      1.0  0.25675  0.65091  0.50252  1.0000
  H   H1367     1.0  0.30164  0.84387  0.56306  1.0000
  H   H1368     1.0  0.30843  0.66844  0.59900  1.0000
  H   H1369     1.0  0.39850  0.98206  0.35341  1.0000
  H   H1370     1.0  0.25658  0.70295  0.56339  1.0000
  S   S341      1.0  0.26456  0.70430  0.49515  1.0000
  C   C862      1.0  0.24688  0.82596  0.41483  1.0000
  H   H1371     1.0  0.30384  0.81420  0.39242  1.0000
  C   C863      1.0  0.32952  0.80404  0.36079  1.0000
  H   H1372     1.0  0.25600  0.63935  0.51621  1.0000
  H   H1373     1.0  0.36284  0.83987  0.32680  1.0000
  H   H1374     1.0  0.30838  0.67050  0.62349  1.0000
  C   C864      1.0  0.37702  0.80930  0.32978  1.0000
  C   C865      1.0  0.25579  0.71522  0.55033  1.0000
  H   H1375     1.0  0.26344  0.76479  0.62195  1.0000
  H   H1376     1.0  0.26248  0.72679  0.55251  1.0000
  C   C866      1.0  0.36425  0.82619  0.32229  1.0000
  H   H1377     1.0  0.26111  0.74479  0.59956  1.0000
  C   C867      1.0  0.25675  0.75211  0.62782  1.0000
  Fe  Fe170     1.0  0.30643  0.80096  0.63513  1.0000
  H   H1378     1.0  0.48381  0.67874  0.32116  1.0000
  C   C868      1.0  0.25517  0.74092  0.61510  1.0000
  H   H1379     1.0  0.26080  0.51039  0.31976  1.0000
  H   H1380     1.0  0.28029  0.53850  0.32327  1.0000
  H   H1381     1.0  0.38409  0.97901  0.32636  1.0000
  H   H1382     1.0  0.25158  0.94165  0.37110  1.0000
  C   C869      1.0  0.24651  0.72441  0.62248  1.0000
  S   S342      1.0  0.24611  0.61420  0.64011  1.0000
  S   S343      1.0  0.31065  0.74467  0.65118  1.0000
  H   H1383     1.0  0.28354  0.81126  0.85581  1.0000
  H   H1384     1.0  0.39303  0.74130  0.72010  1.0000
  C   C870      1.0  0.36539  0.80131  0.67814  1.0000
  H   H1385     1.0  0.27884  0.83688  0.71240  1.0000
  H   H1386     1.0  0.27538  0.70455  0.91239  1.0000
  Fe  Fe171     1.0  0.40001  0.68216  0.85240  1.0000
  S   S344      1.0  0.42513  0.65725  0.84628  1.0000
  S   S345      1.0  0.38364  0.70289  0.82998  1.0000
  Fe  Fe172     1.0  0.39924  0.67229  0.89584  1.0000
  S   S346      1.0  0.42463  0.64663  0.89372  1.0000
  S   S347      1.0  0.38284  0.67839  0.92534  1.0000
  Fe  Fe173     1.0  0.43837  0.66644  0.86712  1.0000
  Fe  Fe174     1.0  0.40953  0.63953  0.87323  1.0000
  S   S348      1.0  0.40733  0.60795  0.87701  1.0000
  S   S349      1.0  0.41425  0.69303  0.87104  1.0000
  S   S350      1.0  0.38306  0.66359  0.87753  1.0000
  Fe  Fe175     1.0  0.29475  0.75841  0.95087  1.0000
  S   S351      1.0  0.26385  0.77509  0.95021  1.0000
  S   S352      1.0  0.31189  0.75169  0.92160  1.0000
  H   H1387     1.0  0.29218  0.85355  0.71540  1.0000
  C   C871      1.0  0.48844  0.81262  0.73404  1.0000
  H   H1388     1.0  0.25410  0.69763  0.92948  1.0000
  H   H1389     1.0  0.29966  0.54224  0.80800  1.0000
  Fe  Fe176     1.0  0.27071  0.79342  0.96773  1.0000
  S   S353      1.0  0.25969  0.82607  0.95917  1.0000
  C   C872      1.0  0.25169  0.85852  0.77735  1.0000
  S   S354      1.0  0.30233  0.77796  0.96672  1.0000
  Fe  Fe177     1.0  0.44163  0.81020  0.73258  1.0000
  S   S355      1.0  0.43555  0.79056  0.76215  1.0000
  Fe  Fe178     1.0  0.40473  0.80551  0.72123  1.0000
  S   S356      1.0  0.39583  0.78560  0.74991  1.0000
  Fe  Fe179     1.0  0.40415  0.80657  0.76330  1.0000
  S   S357      1.0  0.38586  0.81309  0.79214  1.0000
  Fe  Fe180     1.0  0.42783  0.77145  0.74609  1.0000
  S   S358      1.0  0.43863  0.73870  0.75290  1.0000
  S   S359      1.0  0.41064  0.82795  0.73488  1.0000
  S   S360      1.0  0.43638  0.78971  0.71619  1.0000
  Fe  Fe181     1.0  0.28095  0.92741  0.83913  1.0000
  S   S361      1.0  0.26717  0.90445  0.86210  1.0000
  S   S362      1.0  0.26882  0.95951  0.83956  1.0000
  Fe  Fe182     1.0  0.30606  0.89751  0.81471  1.0000
  S   S363      1.0  0.29477  0.87210  0.83589  1.0000
  S   S364      1.0  0.32412  0.89371  0.78508  1.0000
  Fe  Fe183     1.0  0.26538  0.89246  0.83669  1.0000
  H   H1390     1.0  0.32539  0.49217  0.74921  1.0000
  Fe  Fe184     1.0  0.29794  0.88639  0.85903  1.0000
  S   S365      1.0  0.31263  0.86817  0.88396  1.0000
  S   S366      1.0  0.27643  0.91698  0.81411  1.0000
  S   S367      1.0  0.31205  0.91030  0.83769  1.0000
  Fe  Fe185     1.0  0.31030  0.54997  0.87235  1.0000
  S   S368      1.0  0.30580  0.57948  0.85229  1.0000
  S   S369      1.0  0.29768  0.54747  0.90444  1.0000
  Fe  Fe186     1.0  0.29813  0.56399  0.83281  1.0000
  S   S370      1.0  0.27324  0.57778  0.81684  1.0000
  Fe  Fe187     1.0  0.33709  0.56971  0.83775  1.0000
  S   S371      1.0  0.35384  0.59433  0.82512  1.0000
  H   H1391     1.0  0.27908  0.94174  0.75262  1.0000
  H   H1392     1.0  0.30308  0.77547  0.88318  1.0000
  H   H1393     1.0  0.30635  0.49596  0.85564  1.0000
  C   C873      1.0  0.27508  0.56424  0.79905  1.0000
  H   H1394     1.0  0.29962  0.80217  0.91148  1.0000
  H   H1395     1.0  0.25427  0.68766  0.96488  1.0000
  H   H1396     1.0  0.31241  0.80562  0.74523  1.0000
  C   C874      1.0  0.29205  0.53698  0.78299  1.0000
  C   C875      1.0  0.28990  0.54742  0.79767  1.0000
  S   S372      1.0  0.33967  0.75450  0.68717  1.0000
  H   H1397     1.0  0.42939  0.72297  0.67890  1.0000
  H   H1398     1.0  0.25350  0.58708  0.85544  1.0000
  C   C876      1.0  0.29484  0.57021  0.91064  1.0000
  C   C877      1.0  0.30620  0.58380  0.89899  1.0000
  C   C878      1.0  0.30152  0.60320  0.90183  1.0000
  C   C879      1.0  0.28564  0.60892  0.91647  1.0000
  C   C880      1.0  0.27512  0.59500  0.92892  1.0000
  C   C881      1.0  0.27977  0.57561  0.92606  1.0000
  H   H1399     1.0  0.31824  0.57950  0.88741  1.0000
  H   H1400     1.0  0.27524  0.66567  0.94227  1.0000
  S   S373      1.0  0.29492  0.78692  0.66617  1.0000
  H   H1401     1.0  0.48803  0.57578  0.88055  1.0000
  C   C882      1.0  0.33837  0.60532  0.77900  1.0000
  H   H1402     1.0  0.31821  0.63228  0.75371  1.0000
  N   N89       1.0  0.29502  0.80667  0.88200  1.0000
  H   H1403     1.0  0.31465  0.62255  0.80783  1.0000
  H   H1404     1.0  0.27467  0.86452  0.81101  1.0000
  C   C883      1.0  0.36863  0.83544  0.78994  1.0000
  C   C884      1.0  0.36505  0.84621  0.77154  1.0000
  C   C885      1.0  0.35144  0.86418  0.77008  1.0000
  C   C886      1.0  0.34127  0.87133  0.78702  1.0000
  C   C887      1.0  0.34473  0.86047  0.80543  1.0000
  C   C888      1.0  0.35835  0.84253  0.80688  1.0000
  H   H1405     1.0  0.37274  0.84073  0.75844  1.0000
  H   H1406     1.0  0.34884  0.87254  0.75582  1.0000
  H   H1407     1.0  0.33721  0.86607  0.81853  1.0000
  H   H1408     1.0  0.36115  0.83432  0.82112  1.0000
  H   H1409     1.0  0.30046  0.88841  0.75558  1.0000
  H   H1410     1.0  0.27584  0.68678  0.97389  1.0000
  N   N90       1.0  0.30827  0.82367  0.71705  1.0000
  C   C889      1.0  0.35486  0.78828  0.67569  1.0000
  H   H1411     1.0  0.27643  0.81756  0.90716  1.0000
  H   H1412     1.0  0.32724  0.84212  0.71854  1.0000
  H   H1413     1.0  0.34532  0.60481  0.76341  1.0000
  C   C890      1.0  0.27447  0.83786  0.93844  1.0000
  C   C891      1.0  0.26563  0.85360  0.92526  1.0000
  C   C892      1.0  0.27720  0.86287  0.90835  1.0000
  C   C893      1.0  0.29770  0.85681  0.90489  1.0000
  C   C894      1.0  0.30656  0.84133  0.91825  1.0000
  C   C895      1.0  0.29495  0.83170  0.93486  1.0000
  S   S374      1.0  0.28145  0.52890  0.75257  1.0000
  H   H1414     1.0  0.27022  0.87476  0.89814  1.0000
  H   H1415     1.0  0.32242  0.83663  0.91568  1.0000
  H   H1416     1.0  0.30188  0.81975  0.94510  1.0000
  C   C896      1.0  0.39907  0.71175  0.80815  1.0000
  C   C897      1.0  0.39079  0.72620  0.79368  1.0000
  C   C898      1.0  0.40291  0.73431  0.77658  1.0000
  C   C899      1.0  0.42336  0.72788  0.77382  1.0000
  C   C900      1.0  0.43164  0.71313  0.78811  1.0000
  C   C901      1.0  0.41952  0.70523  0.80539  1.0000
  H   H1417     1.0  0.37497  0.73126  0.79578  1.0000
  H   H1418     1.0  0.39635  0.74533  0.76547  1.0000
  H   H1419     1.0  0.44746  0.70814  0.78604  1.0000
  H   H1420     1.0  0.42602  0.69420  0.81658  1.0000
  C   C902      1.0  0.39267  0.60418  0.86238  1.0000
  C   C903      1.0  0.38665  0.61908  0.84699  1.0000
  C   C904      1.0  0.37476  0.61590  0.83563  1.0000
  C   C905      1.0  0.36847  0.59798  0.83986  1.0000
  C   C906      1.0  0.37419  0.58321  0.85549  1.0000
  C   C907      1.0  0.38648  0.58622  0.86656  1.0000
  H   H1421     1.0  0.39130  0.63301  0.84367  1.0000
  H   H1422     1.0  0.37038  0.62738  0.82356  1.0000
  H   H1423     1.0  0.36951  0.56931  0.85878  1.0000
  H   H1424     1.0  0.39112  0.57460  0.87841  1.0000
  C   C908      1.0  0.36335  0.69896  0.92416  1.0000
  C   C909      1.0  0.35248  0.70500  0.94149  1.0000
  C   C910      1.0  0.33683  0.72137  0.94081  1.0000
  C   C911      1.0  0.33192  0.73166  0.92278  1.0000
  C   C912      1.0  0.34270  0.72556  0.90545  1.0000
  C   C913      1.0  0.35843  0.70926  0.90612  1.0000
  H   H1425     1.0  0.35631  0.69712  0.95546  1.0000
  H   H1426     1.0  0.32865  0.72606  0.95424  1.0000
  H   H1427     1.0  0.33888  0.73341  0.89148  1.0000
  H   H1428     1.0  0.36671  0.70465  0.89268  1.0000
  H   H1429     1.0  0.46641  0.65794  0.89963  1.0000
  H   H1430     1.0  0.29930  0.92229  0.75886  1.0000
  H   H1431     1.0  0.40919  0.75305  0.72668  1.0000
  C   C914      1.0  0.48171  0.65820  0.89306  1.0000
  H   H1432     1.0  0.28722  0.82839  0.66344  1.0000
  Fe  Fe188     1.0  0.28329  0.76830  0.65261  1.0000
  H   H1433     1.0  0.25501  0.62020  0.88739  1.0000
  N   N91       1.0  0.47726  0.60553  0.86656  1.0000
  C   C915      1.0  0.28142  0.97113  0.84997  1.0000
  C   C916      1.0  0.29968  0.96167  0.85487  1.0000
  H   H1434     1.0  0.27118  0.56502  0.93530  1.0000
  C   C917      1.0  0.26715  0.69469  0.96232  1.0000
  H   H1435     1.0  0.30481  0.49509  0.73798  1.0000
  H   H1436     1.0  0.30646  0.94724  0.85177  1.0000
  H   H1437     1.0  0.32335  0.96362  0.86760  1.0000
  N   N92       1.0  0.27920  0.69441  0.94238  1.0000
  H   H1438     1.0  0.27630  0.90140  0.78157  1.0000
  C   C918      1.0  0.30433  0.82405  0.87467  1.0000
  H   H1439     1.0  0.29777  0.89727  0.73042  1.0000
  C   C919      1.0  0.28721  0.67383  0.94007  1.0000
  H   H1440     1.0  0.29524  0.80221  0.71129  1.0000
  C   C920      1.0  0.25764  0.51813  0.83209  1.0000
  H   H1441     1.0  0.33334  0.83286  0.69626  1.0000
  C   C921      1.0  0.37325  0.79764  0.69507  1.0000
  H   H1442     1.0  0.42389  0.70922  0.70362  1.0000
  S   S375      1.0  0.46787  0.82502  0.72332  1.0000
  C   C922      1.0  0.25889  0.60802  0.87919  1.0000
  H   H1443     1.0  0.30508  0.70472  0.92460  1.0000
  H   H1444     1.0  0.26085  0.72030  0.92878  1.0000
  C   C923      1.0  0.28850  0.92772  0.74888  1.0000
  H   H1445     1.0  0.28047  0.79138  0.90936  1.0000
  H   H1446     1.0  0.25685  0.92233  0.77635  1.0000
  C   C924      1.0  0.41975  0.72356  0.69360  1.0000
  C   C925      1.0  0.29561  0.70458  0.93948  1.0000
  H   H1447     1.0  0.46363  0.63206  0.84911  1.0000
  S   S376      1.0  0.38685  0.81402  0.69732  1.0000
  H   H1448     1.0  0.49558  0.74317  0.89502  1.0000
  H   H1449     1.0  0.33899  0.81691  0.71862  1.0000
  H   H1450     1.0  0.31480  0.81007  0.69202  1.0000
  C   C926      1.0  0.26285  0.85300  0.66581  1.0000
  S   S377      1.0  0.25355  0.75991  0.66397  1.0000
  Fe  Fe189     1.0  0.32323  0.76476  0.66215  1.0000
  C   C927      1.0  0.27907  0.84152  0.65558  1.0000
  H   H1451     1.0  0.29610  0.67311  0.92507  1.0000
  C   C928      1.0  0.28947  0.89466  0.74582  1.0000
  C   C929      1.0  0.35958  0.76804  0.70733  1.0000
  C   C930      1.0  0.28753  0.80440  0.90341  1.0000
  H   H1452     1.0  0.30365  0.52405  0.78195  1.0000
  C   C931      1.0  0.26281  0.86522  0.80395  1.0000
  H   H1453     1.0  0.31591  0.79005  0.86195  1.0000
  H   H1454     1.0  0.44419  0.75006  0.70895  1.0000
  H   H1455     1.0  0.26955  0.92419  0.72213  1.0000
  H   H1456     1.0  0.24640  0.81556  0.68613  1.0000
  N   N93       1.0  0.31675  0.61211  0.78160  1.0000
  C   C932      1.0  0.31210  0.63209  0.76959  1.0000
  H   H1457     1.0  0.34529  0.61508  0.78391  1.0000
  H   H1458     1.0  0.29589  0.63764  0.77130  1.0000
  H   H1459     1.0  0.31835  0.64273  0.77395  1.0000
  N   N94       1.0  0.30305  0.91829  0.90744  1.0000
  C   C933      1.0  0.29976  0.93683  0.91439  1.0000
  C   C934      1.0  0.28671  0.91887  0.89797  1.0000
  C   C935      1.0  0.30387  0.90141  0.92428  1.0000
  C   C936      1.0  0.32187  0.91597  0.89312  1.0000
  H   H1460     1.0  0.31197  0.93708  0.92133  1.0000
  H   H1461     1.0  0.28579  0.93894  0.92538  1.0000
  H   H1462     1.0  0.29879  0.94989  0.90207  1.0000
  H   H1463     1.0  0.28879  0.90509  0.89261  1.0000
  H   H1464     1.0  0.27228  0.92051  0.90837  1.0000
  H   H1465     1.0  0.28562  0.93137  0.88515  1.0000
  H   H1466     1.0  0.30659  0.88719  0.91944  1.0000
  H   H1467     1.0  0.28979  0.90240  0.93526  1.0000
  H   H1468     1.0  0.31592  0.90057  0.93192  1.0000
  H   H1469     1.0  0.32178  0.92830  0.88013  1.0000
  H   H1470     1.0  0.32484  0.90211  0.88760  1.0000
  H   H1471     1.0  0.33454  0.91552  0.89974  1.0000
  N   N95       1.0  0.35055  0.62108  0.91392  1.0000
  C   C937      1.0  0.35637  0.59973  0.91415  1.0000
  C   C938      1.0  0.33146  0.62518  0.92748  1.0000
  C   C939      1.0  0.34863  0.63193  0.89380  1.0000
  C   C940      1.0  0.36573  0.62749  0.92019  1.0000
  H   H1472     1.0  0.37093  0.59610  0.90439  1.0000
  H   H1473     1.0  0.34549  0.59449  0.90898  1.0000
  H   H1474     1.0  0.35756  0.59101  0.92916  1.0000
  H   H1475     1.0  0.32651  0.64117  0.92749  1.0000
  H   H1476     1.0  0.31973  0.62038  0.92325  1.0000
  H   H1477     1.0  0.33235  0.61727  0.94282  1.0000
  H   H1478     1.0  0.34403  0.64808  0.89305  1.0000
  H   H1479     1.0  0.33760  0.62725  0.88840  1.0000
  H   H1480     1.0  0.36284  0.62930  0.88325  1.0000
  H   H1481     1.0  0.36757  0.61967  0.93533  1.0000
  H   H1482     1.0  0.36197  0.64359  0.92002  1.0000
  H   H1483     1.0  0.38036  0.62448  0.91031  1.0000
  N   N96       1.0  0.40331  0.76117  0.83059  1.0000
  C   C941      1.0  0.40823  0.76320  0.80902  1.0000
  C   C942      1.0  0.42149  0.75873  0.83799  1.0000
  C   C943      1.0  0.39430  0.74376  0.83962  1.0000
  C   C944      1.0  0.38929  0.77901  0.83568  1.0000
  H   H1484     1.0  0.41882  0.75005  0.80457  1.0000
  H   H1485     1.0  0.39487  0.76515  0.80283  1.0000
  H   H1486     1.0  0.43238  0.74540  0.83430  1.0000
  H   H1487     1.0  0.42869  0.77164  0.83137  1.0000
  H   H1488     1.0  0.41835  0.75713  0.85424  1.0000
  H   H1489     1.0  0.38097  0.74468  0.83377  1.0000
  H   H1490     1.0  0.38984  0.74199  0.85586  1.0000
  H   H1491     1.0  0.40476  0.73000  0.83656  1.0000
  H   H1492     1.0  0.38478  0.77783  0.85184  1.0000
  H   H1493     1.0  0.37576  0.78173  0.82955  1.0000
  H   H1494     1.0  0.39586  0.79238  0.82946  1.0000
  H   H1495     1.0  0.45265  0.73743  0.68885  1.0000
  H   H1496     1.0  0.29669  0.66571  0.95090  1.0000
  H   H1497     1.0  0.49116  0.70100  0.89612  1.0000
  N   N97       1.0  0.27650  0.91300  0.75093  1.0000
  H   H1498     1.0  0.27108  0.79651  0.87718  1.0000
  H   H1499     1.0  0.29694  0.93121  0.73362  1.0000
  H   H1500     1.0  0.24646  0.57969  0.90943  1.0000
  C   C945      1.0  0.49102  0.79246  0.74209  1.0000
  C   C946      1.0  0.26380  0.55947  0.77165  1.0000
  H   H1501     1.0  0.26431  0.61416  0.86347  1.0000
  C   C947      1.0  0.26198  0.57027  0.78606  1.0000
  H   H1502     1.0  0.28710  0.81429  0.74268  1.0000
  H   H1503     1.0  0.40081  0.76069  0.68506  1.0000
  S   S378      1.0  0.25726  0.85016  0.75516  1.0000
  S   S379      1.0  0.47082  0.66735  0.85682  1.0000
  S   S380      1.0  0.28580  0.73676  0.97825  1.0000
  C   C948      1.0  0.48757  0.66268  0.87262  1.0000
  H   H1504     1.0  0.34242  0.59030  0.78792  1.0000
  S   S381      1.0  0.34234  0.54098  0.85936  1.0000
  H   H1505     1.0  0.41494  0.77629  0.80180  1.0000
  S   S382      1.0  0.29899  0.53548  0.85438  1.0000
  C   C949      1.0  0.30836  0.61261  0.80250  1.0000
  H   H1506     1.0  0.31168  0.59780  0.81187  1.0000
  C   C950      1.0  0.26589  0.90870  0.77145  1.0000
  S   S383      1.0  0.32906  0.55616  0.81665  1.0000
  C   C951      1.0  0.27898  0.54294  0.77002  1.0000
  H   H1507     1.0  0.29203  0.61743  0.80517  1.0000
  H   H1508     1.0  0.44921  0.61320  0.85765  1.0000
  H   H1509     1.0  0.31253  0.98544  0.79561  1.0000
  H   H1510     1.0  0.31401  0.59776  0.75967  1.0000
  H   H1511     1.0  0.29181  0.60292  0.77755  1.0000
  C   C952      1.0  0.29374  0.84051  0.70897  1.0000
  C   C953      1.0  0.30816  0.59846  0.77540  1.0000
  H   H1512     1.0  0.30957  0.61394  0.89207  1.0000
  H   H1513     1.0  0.35714  0.75526  0.71875  1.0000
  H   H1514     1.0  0.31145  0.58322  0.78413  1.0000
  H   H1515     1.0  0.30519  0.69747  0.95046  1.0000
  H   H1516     1.0  0.41618  0.77185  0.69339  1.0000
  C   C954      1.0  0.26687  0.70465  0.92761  1.0000
  H   H1517     1.0  0.28183  0.85075  0.78116  1.0000
  H   H1518     1.0  0.27135  0.59718  0.88478  1.0000
  C   C955      1.0  0.46452  0.61588  0.85219  1.0000
  S   S384      1.0  0.24932  0.51986  0.72030  1.0000
  C   C956      1.0  0.47870  0.58407  0.86961  1.0000
  C   C957      1.0  0.46865  0.61195  0.88542  1.0000
  C   C958      1.0  0.35220  0.77144  0.69015  1.0000
  H   H1519     1.0  0.26708  0.82267  0.87493  1.0000
  H   H1520     1.0  0.46387  0.58016  0.87510  1.0000
  C   C959      1.0  0.24808  0.58207  0.87143  1.0000
  H   H1521     1.0  0.42608  0.75969  0.67302  1.0000
  C   C960      1.0  0.30970  0.80667  0.70826  1.0000
  Fe  Fe190     1.0  0.33074  0.52836  0.83968  1.0000
  N   N98       1.0  0.42165  0.74015  0.70127  1.0000
  H   H1522     1.0  0.44693  0.72399  0.71373  1.0000
  S   S385      1.0  0.34366  0.49967  0.82929  1.0000
  H   H1523     1.0  0.45373  0.60846  0.89160  1.0000
  H   H1524     1.0  0.26132  0.71002  0.96467  1.0000
  H   H1525     1.0  0.48013  0.78437  0.74207  1.0000
  H   H1526     1.0  0.32214  0.78616  0.88567  1.0000
  C   C961      1.0  0.27846  0.80937  0.87202  1.0000
  H   H1527     1.0  0.37553  0.77849  0.72316  1.0000
  C   C962      1.0  0.26686  0.85737  0.78699  1.0000
  H   H1528     1.0  0.25208  0.93463  0.74135  1.0000
  S   S386      1.0  0.27846  0.63369  0.91837  1.0000
  C   C963      1.0  0.30922  0.97094  0.86377  1.0000
  H   H1529     1.0  0.41302  0.72678  0.73169  1.0000
  H   H1530     1.0  0.36769  0.81415  0.66674  1.0000
  C   C964      1.0  0.30970  0.78884  0.87793  1.0000
  H   H1531     1.0  0.25042  0.58322  0.78716  1.0000
  C   C965      1.0  0.26211  0.92082  0.73779  1.0000
  C   C966      1.0  0.40861  0.74033  0.72075  1.0000
  H   H1532     1.0  0.31067  0.82594  0.85866  1.0000
  H   H1533     1.0  0.32036  0.79363  0.71421  1.0000
  C   C967      1.0  0.36999  0.78116  0.70985  1.0000
  C   C968      1.0  0.41596  0.75888  0.68760  1.0000
  C   C969      1.0  0.44227  0.73778  0.70319  1.0000
  H   H1534     1.0  0.26020  0.57074  0.87732  1.0000
  H   H1535     1.0  0.25852  0.84864  0.68148  1.0000
  H   H1536     1.0  0.30062  0.83083  0.74572  1.0000
  H   H1537     1.0  0.40431  0.72492  0.69203  1.0000
  H   H1538     1.0  0.29803  0.84496  0.69271  1.0000
  C   C970      1.0  0.30187  0.81833  0.73860  1.0000
  H   H1539     1.0  0.47022  0.61105  0.83792  1.0000
  Fe  Fe191     1.0  0.25551  0.75529  0.97904  1.0000
  C   C971      1.0  0.32776  0.82916  0.71241  1.0000
  H   H1540     1.0  0.27192  0.51364  0.82223  1.0000
  H   H1541     1.0  0.34906  0.79116  0.66248  1.0000
  H   H1542     1.0  0.28080  0.88319  0.74749  1.0000
  H   H1543     1.0  0.25582  0.53410  0.83178  1.0000
  H   H1544     1.0  0.49114  0.65061  0.92086  1.0000
  H   H1545     1.0  0.29005  0.72021  0.94097  1.0000
  H   H1546     1.0  0.46713  0.62812  0.88353  1.0000
  H   H1547     1.0  0.26335  0.59914  0.94072  1.0000
  H   H1548     1.0  0.24977  0.85838  0.92801  1.0000
  H   H1549     1.0  0.25897  0.50998  0.84726  1.0000
  C   C972      1.0  0.25241  0.87016  0.65566  1.0000
  H   H1550     1.0  0.31643  0.82294  0.88238  1.0000
  H   H1551     1.0  0.29347  0.83782  0.87696  1.0000
  H   H1552     1.0  0.48777  0.71209  0.91693  1.0000
  Fe  Fe192     1.0  0.25268  0.52480  0.74876  1.0000
  H   H1553     1.0  0.48522  0.57868  0.85569  1.0000
  H   H1554     1.0  0.25870  0.58456  0.67234  1.0000
  H   H1555     1.0  0.25364  0.56407  0.76164  1.0000
  H   H1556     1.0  0.47801  0.60472  0.89657  1.0000
  H   H1557     1.0  0.25264  0.91012  0.73922  1.0000
  H   H1558     1.0  0.25577  0.89864  0.77323  1.0000
  H   H1559     1.0  0.25311  0.52103  0.79506  1.0000
  C   C973      1.0  0.64199  0.16419  0.19663  1.0000
  C   C974      1.0  0.66375  0.07861  0.27987  1.0000
  H   H1560     1.0  0.68119  0.15180  0.16090  1.0000
  C   C975      1.0  0.64642  0.31582  0.29006  1.0000
  N   N99       1.0  0.66138  0.32245  0.29645  1.0000
  H   H1561     1.0  0.72189  0.17080  0.99031  1.0000
  H   H1562     1.0  0.74225  0.07880  0.01045  1.0000
  H   H1563     1.0  0.58277  0.28221  0.13135  1.0000
  S   S387      1.0  0.57072  0.15745  0.30727  1.0000
  C   C976      1.0  0.52881  0.23240  0.27144  1.0000
  H   H1564     1.0  0.59903  0.25062  0.16416  1.0000
  S   S388      1.0  0.68842  0.47818  0.26168  1.0000
  S   S389      1.0  0.70714  0.02468  0.26858  1.0000
  Fe  Fe193     1.0  0.71989  0.03749  0.21174  1.0000
  S   S390      1.0  0.68893  0.03742  0.22812  1.0000
  H   H1565     1.0  0.67317  0.29353  0.31165  1.0000
  Fe  Fe194     1.0  0.69664  0.05260  0.24808  1.0000
  H   H1566     1.0  0.66469  0.02592  0.30191  1.0000
  H   H1567     1.0  0.74474  0.13203  0.99424  1.0000
  C   C977      1.0  0.55432  0.28137  0.16393  1.0000
  H   H1568     1.0  0.70302  0.26662  0.12547  1.0000
  H   H1569     1.0  0.73374  0.32390  0.20211  1.0000
  Fe  Fe195     1.0  0.71871  0.15637  0.12973  1.0000
  S   S391      1.0  0.69939  0.15155  0.11177  1.0000
  C   C978      1.0  0.73046  0.08216  0.15312  1.0000
  Fe  Fe196     1.0  0.72437  0.19609  0.10360  1.0000
  S   S392      1.0  0.70476  0.19518  0.08413  1.0000
  Fe  Fe197     1.0  0.68529  0.18326  0.11188  1.0000
  S   S393      1.0  0.65284  0.19318  0.12145  1.0000
  Fe  Fe198     1.0  0.72096  0.16392  0.08565  1.0000
  C   C979      1.0  0.65254  0.32978  0.31482  1.0000
  S   S394      1.0  0.70329  0.18742  0.13129  1.0000
  N   N100      1.0  0.64096  0.02310  0.29008  1.0000
  Fe  Fe199     1.0  0.62574  0.22094  0.22902  1.0000
  S   S395      1.0  0.61096  0.23935  0.25158  1.0000
  S   S396      1.0  0.63467  0.18809  0.23630  1.0000
  Fe  Fe200     1.0  0.62769  0.25605  0.19570  1.0000
  S   S397      1.0  0.61322  0.27786  0.21521  1.0000
  S   S398      1.0  0.63835  0.26474  0.16310  1.0000
  Fe  Fe201     1.0  0.63289  0.25859  0.23566  1.0000
  S   S399      1.0  0.65043  0.26662  0.25371  1.0000
  Fe  Fe202     1.0  0.59255  0.25681  0.22934  1.0000
  S   S400      1.0  0.55959  0.26752  0.23732  1.0000
  S   S401      1.0  0.64907  0.23859  0.21482  1.0000
  S   S402      1.0  0.60550  0.23666  0.20820  1.0000
  H   H1570     1.0  0.72353  0.46176  0.28554  1.0000
  C   C980      1.0  0.66861  0.33846  0.28103  1.0000
  C   C981      1.0  0.67149  0.06394  0.29451  1.0000
  S   S403      1.0  0.72752  0.04691  0.17888  1.0000
  S   S404      1.0  0.70503  0.36749  0.25747  1.0000
  H   H1571     1.0  0.72518  0.11871  0.02518  1.0000
  Fe  Fe203     1.0  0.72025  0.34516  0.28005  1.0000
  S   S405      1.0  0.68373  0.16068  0.99515  1.0000
  Fe  Fe204     1.0  0.71442  0.34328  0.24033  1.0000
  S   S406      1.0  0.69443  0.33845  0.22263  1.0000
  H   H1572     1.0  0.71317  0.09879  0.02728  1.0000
  H   H1573     1.0  0.62247  0.10025  0.30830  1.0000
  C   C982      1.0  0.72952  0.10262  0.14872  1.0000
  H   H1574     1.0  0.63720  0.15850  0.21264  1.0000
  C   C983      1.0  0.72420  0.24734  0.15333  1.0000
  C   C984      1.0  0.72001  0.45949  0.23764  1.0000
  H   H1575     1.0  0.55490  0.10150  0.31503  1.0000
  H   H1576     1.0  0.68792  0.22864  0.14606  1.0000
  H   H1577     1.0  0.63713  0.04000  0.26138  1.0000
  H   H1578     1.0  0.64254  0.17995  0.19485  1.0000
  H   H1579     1.0  0.65647  0.12527  0.20796  1.0000
  H   H1580     1.0  0.63037  0.16364  0.18906  1.0000
  C   C985      1.0  0.73228  0.44282  0.23117  1.0000
  C   C986      1.0  0.52445  0.27201  0.22627  1.0000
  C   C987      1.0  0.54378  0.26114  0.22564  1.0000
  C   C988      1.0  0.54994  0.24519  0.21615  1.0000
  C   C989      1.0  0.53702  0.24047  0.20694  1.0000
  C   C990      1.0  0.51771  0.25139  0.20755  1.0000
  H   H1581     1.0  0.56454  0.23629  0.21615  1.0000
  H   H1582     1.0  0.54188  0.22815  0.19958  1.0000
  C   C991      1.0  0.66371  0.28572  0.24354  1.0000
  C   C992      1.0  0.65855  0.30079  0.22790  1.0000
  C   C993      1.0  0.66833  0.31674  0.22135  1.0000
  C   C994      1.0  0.68337  0.31763  0.23030  1.0000
  C   C995      1.0  0.68904  0.30216  0.24539  1.0000
  C   C996      1.0  0.67913  0.28635  0.25210  1.0000
  H   H1583     1.0  0.64664  0.30047  0.22126  1.0000
  H   H1584     1.0  0.66389  0.32863  0.20961  1.0000
  H   H1585     1.0  0.70101  0.30239  0.25194  1.0000
  H   H1586     1.0  0.68336  0.27458  0.26403  1.0000
  C   C997      1.0  0.64888  0.21319  0.13274  1.0000
  C   C998      1.0  0.64051  0.21128  0.15271  1.0000
  C   C999      1.0  0.63818  0.22677  0.16219  1.0000
  C   C1000     1.0  0.64288  0.24475  0.15150  1.0000
  C   C1001     1.0  0.65102  0.24681  0.13140  1.0000
  C   C1002     1.0  0.65447  0.23086  0.12212  1.0000
  H   H1587     1.0  0.63606  0.19770  0.16089  1.0000
  H   H1588     1.0  0.63261  0.22471  0.17774  1.0000
  H   H1589     1.0  0.65471  0.26066  0.12299  1.0000
  H   H1590     1.0  0.66101  0.23233  0.10664  1.0000
  C   C1003     1.0  0.70325  0.22975  0.14574  1.0000
  H   H1591     1.0  0.65164  0.00708  0.31632  1.0000
  H   H1592     1.0  0.49667  0.27584  0.21757  1.0000
  C   C1004     1.0  0.65714  0.01447  0.30103  1.0000
  H   H1593     1.0  0.50372  0.22617  0.30605  1.0000
  C   C1005     1.0  0.72306  0.07273  0.17220  1.0000
  H   H1594     1.0  0.74251  0.19859  0.03346  1.0000
  H   H1595     1.0  0.73978  0.05455  0.26666  1.0000
  H   H1596     1.0  0.65970  0.02213  0.26177  1.0000
  H   H1597     1.0  0.52678  0.19668  0.26720  1.0000
  C   C1006     1.0  0.63159  0.00728  0.28907  1.0000
  N   N101      1.0  0.72942  0.10854  0.99829  1.0000
  H   H1598     1.0  0.72482  0.37163  0.16631  1.0000
  C   C1007     1.0  0.66010  0.13185  0.19201  1.0000
  S   S407      1.0  0.50187  0.24517  0.19584  1.0000
  C   C1008     1.0  0.63967  0.17147  0.31113  1.0000
  C   C1009     1.0  0.71972  0.15997  0.03978  1.0000
  C   C1010     1.0  0.72729  0.16519  0.01966  1.0000
  C   C1011     1.0  0.71578  0.16702  0.00579  1.0000
  C   C1012     1.0  0.69684  0.16292  0.01202  1.0000
  C   C1013     1.0  0.68903  0.15830  0.03220  1.0000
  C   C1014     1.0  0.70036  0.15706  0.04608  1.0000
  H   H1599     1.0  0.72502  0.32022  0.16435  1.0000
  H   H1600     1.0  0.62039  0.03110  0.31569  1.0000
  H   H1601     1.0  0.67437  0.15514  0.03712  1.0000
  H   H1602     1.0  0.69442  0.15302  0.06161  1.0000
  H   H1603     1.0  0.49697  0.24690  0.25474  1.0000
  S   S408      1.0  0.73242  0.00795  0.22870  1.0000
  H   H1604     1.0  0.63581  0.15135  0.26420  1.0000
  H   H1605     1.0  0.54855  0.29752  0.16229  1.0000
  H   H1606     1.0  0.69492  0.27839  0.14630  1.0000
  H   H1607     1.0  0.65252  0.31070  0.27595  1.0000
  C   C1015     1.0  0.71396  0.10403  0.18248  1.0000
  H   H1608     1.0  0.67654  0.24474  0.17434  1.0000
  H   H1609     1.0  0.67263  0.14841  0.21500  1.0000
  C   C1016     1.0  0.54563  0.11419  0.30674  1.0000
  C   C1017     1.0  0.71391  0.08391  0.18654  1.0000
  H   H1610     1.0  0.70855  0.33386  0.18182  1.0000
  H   H1611     1.0  0.73735  0.07361  0.14188  1.0000
  H   H1612     1.0  0.73999  0.47520  0.26724  1.0000
  S   S409      1.0  0.74310  0.35241  0.22496  1.0000
  H   H1613     1.0  0.74461  0.44452  0.21904  1.0000
  C   C1018     1.0  0.73615  0.12659  0.98645  1.0000
  H   H1614     1.0  0.74217  0.16759  0.01489  1.0000
  H   H1615     1.0  0.74195  0.22590  0.04970  1.0000
  N   N102      1.0  0.70361  0.24687  0.15347  1.0000
  C   C1019     1.0  0.64895  0.03286  0.26996  1.0000
  C   C1020     1.0  0.72176  0.11343  0.16360  1.0000
  H   H1616     1.0  0.74424  0.19720  0.13294  1.0000
  C   C1021     1.0  0.67802  0.30580  0.29991  1.0000
  S   S410      1.0  0.73898  0.22204  0.09517  1.0000
  S   S411      1.0  0.72680  0.05469  0.23037  1.0000
  H   H1617     1.0  0.69183  0.25801  0.18009  1.0000
  S   S412      1.0  0.67507  0.07985  0.25509  1.0000
  H   H1618     1.0  0.68761  0.43701  0.27404  1.0000
  H   H1619     1.0  0.74335  0.36494  0.18105  1.0000
  C   C1022     1.0  0.73093  0.36009  0.17808  1.0000
  C   C1023     1.0  0.64626  0.09193  0.28494  1.0000
  C   C1024     1.0  0.70390  0.45749  0.25313  1.0000
  C   C1025     1.0  0.63624  0.09026  0.30454  1.0000
  H   H1620     1.0  0.64098  0.30338  0.30109  1.0000
  H   H1621     1.0  0.51238  0.13341  0.29381  1.0000
  H   H1622     1.0  0.71925  0.35973  0.19161  1.0000
  H   H1623     1.0  0.69835  0.23162  0.18362  1.0000
  C   C1026     1.0  0.70009  0.43865  0.26208  1.0000
  C   C1027     1.0  0.71732  0.11241  0.01739  1.0000
  C   C1028     1.0  0.73787  0.46651  0.28256  1.0000
  H   H1624     1.0  0.71197  0.08897  0.99611  1.0000
  H   H1625     1.0  0.64025  0.10335  0.27364  1.0000
  C   C1029     1.0  0.69484  0.26513  0.14098  1.0000
  C   C1030     1.0  0.58316  0.18309  0.27401  1.0000
  H   H1626     1.0  0.67950  0.34409  0.28568  1.0000
  H   H1627     1.0  0.65643  0.35115  0.27770  1.0000
  H   H1628     1.0  0.69116  0.14634  0.19308  1.0000
  H   H1629     1.0  0.67925  0.26530  0.14092  1.0000
  C   C1031     1.0  0.69211  0.24524  0.17379  1.0000
  H   H1630     1.0  0.64011  0.34255  0.31273  1.0000
  C   C1032     1.0  0.60699  0.15342  0.28289  1.0000
  H   H1631     1.0  0.70939  0.40747  0.26264  1.0000
  H   H1632     1.0  0.67732  0.17006  0.19705  1.0000
  C   C1033     1.0  0.49705  0.23072  0.29273  1.0000
  N   N103      1.0  0.66134  0.15275  0.18874  1.0000
  H   H1633     1.0  0.68525  0.05400  0.29076  1.0000
  S   S413      1.0  0.74181  0.16546  0.10385  1.0000
  H   H1634     1.0  0.51952  0.28433  0.23365  1.0000
  H   H1635     1.0  0.72271  0.47390  0.23021  1.0000
  H   H1636     1.0  0.61356  0.04417  0.29263  1.0000
  H   H1637     1.0  0.71034  0.21571  0.15439  1.0000
  H   H1638     1.0  0.56855  0.19204  0.27684  1.0000
  N   N104      1.0  0.51097  0.22398  0.27563  1.0000
  C   C1034     1.0  0.51424  0.13681  0.30747  1.0000
  H   H1639     1.0  0.67432  0.12292  0.18575  1.0000
  H   H1640     1.0  0.64244  0.99599  0.28157  1.0000
  H   H1641     1.0  0.49918  0.14113  0.31613  1.0000
  C   C1035     1.0  0.71745  0.10250  0.98761  1.0000
  N   N105      1.0  0.62554  0.19014  0.31330  1.0000
  C   C1036     1.0  0.62111  0.16019  0.26687  1.0000
  H   H1642     1.0  0.64865  0.13011  0.18488  1.0000
  H   H1643     1.0  0.74190  0.43124  0.27408  1.0000
  H   H1644     1.0  0.54457  0.10999  0.29319  1.0000
  C   C1037     1.0  0.66699  0.16053  0.16745  1.0000
  S   S414      1.0  0.72271  0.13836  0.15953  1.0000
  H   H1645     1.0  0.65467  0.17407  0.30371  1.0000
  C   C1038     1.0  0.71238  0.42193  0.25560  1.0000
  S   S415      1.0  0.73535  0.15548  0.05652  1.0000
  H   H1646     1.0  0.68970  0.31040  0.30448  1.0000
  H   H1647     1.0  0.61075  0.13927  0.29237  1.0000
  S   S416      1.0  0.70554  0.34061  0.31192  1.0000
  C   C1039     1.0  0.61639  0.17864  0.25475  1.0000
  Fe  Fe205     1.0  0.73497  0.37445  0.24430  1.0000
  H   H1648     1.0  0.59367  0.20428  0.24887  1.0000
  H   H1649     1.0  0.52403  0.19676  0.29275  1.0000
  C   C1040     1.0  0.58806  0.16495  0.28652  1.0000
  N   N106      1.0  0.57586  0.27637  0.16292  1.0000
  C   C1041     1.0  0.58591  0.28656  0.14392  1.0000
  C   C1042     1.0  0.58286  0.25488  0.16472  1.0000
  C   C1043     1.0  0.58044  0.28265  0.17910  1.0000
  H   H1650     1.0  0.55020  0.27642  0.15225  1.0000
  H   H1651     1.0  0.54630  0.27425  0.17828  1.0000
  H   H1652     1.0  0.60222  0.28293  0.14276  1.0000
  H   H1653     1.0  0.58116  0.30284  0.14209  1.0000
  H   H1654     1.0  0.57556  0.24665  0.17881  1.0000
  H   H1655     1.0  0.57980  0.24964  0.15264  1.0000
  H   H1656     1.0  0.59659  0.27942  0.17858  1.0000
  H   H1657     1.0  0.57346  0.27498  0.19370  1.0000
  H   H1658     1.0  0.57506  0.29873  0.17845  1.0000
  C   C1044     1.0  0.59738  0.19003  0.25823  1.0000
  H   H1659     1.0  0.66886  0.17602  0.16444  1.0000
  C   C1045     1.0  0.67628  0.15444  0.19892  1.0000
  H   H1660     1.0  0.71426  0.34573  0.15649  1.0000
  H   H1661     1.0  0.63506  0.16333  0.30228  1.0000
  H   H1662     1.0  0.70802  0.11224  0.19409  1.0000
  C   C1046     1.0  0.62458  0.20289  0.29371  1.0000
  H   H1663     1.0  0.65574  0.16020  0.15928  1.0000
  H   H1664     1.0  0.70334  0.12309  0.01544  1.0000
  H   H1665     1.0  0.68501  0.29979  0.28644  1.0000
  S   S417      1.0  0.72743  0.32042  0.26390  1.0000
  H   H1666     1.0  0.70727  0.07698  0.20099  1.0000
  Fe  Fe206     1.0  0.70193  0.00951  0.24705  1.0000
  H   H1667     1.0  0.61410  0.21715  0.29476  1.0000
  H   H1668     1.0  0.63350  0.32794  0.28767  1.0000
  C   C1047     1.0  0.51146  0.26717  0.21725  1.0000
  C   C1048     1.0  0.72848  0.42402  0.24009  1.0000
  H   H1669     1.0  0.55367  0.12657  0.30218  1.0000
  S   S418      1.0  0.74442  0.40345  0.23185  1.0000
  H   H1670     1.0  0.73139  0.23369  0.16246  1.0000
  H   H1671     1.0  0.65669  0.04449  0.27009  1.0000
  Fe  Fe207     1.0  0.73667  0.02533  0.24873  1.0000
  H   H1672     1.0  0.72511  0.26000  0.15914  1.0000
  H   H1673     1.0  0.52520  0.24880  0.26792  1.0000
  H   H1674     1.0  0.67592  0.33343  0.26706  1.0000
  H   H1675     1.0  0.60058  0.17793  0.31449  1.0000
  H   H1676     1.0  0.71127  0.23078  0.13022  1.0000
  H   H1677     1.0  0.51142  0.22576  0.24512  1.0000
  H   H1678     1.0  0.53637  0.22786  0.28416  1.0000
  H   H1679     1.0  0.52139  0.14979  0.30318  1.0000
  C   C1049     1.0  0.62624  0.03772  0.30019  1.0000
  H   H1680     1.0  0.63922  0.20627  0.28583  1.0000
  H   H1681     1.0  0.61960  0.19572  0.28428  1.0000
  C   C1050     1.0  0.50145  0.23057  0.25836  1.0000
  H   H1682     1.0  0.63276  0.05014  0.30057  1.0000
  N   N107      1.0  0.73746  0.34066  0.17244  1.0000
  H   H1683     1.0  0.66850  0.00336  0.29379  1.0000
  H   H1684     1.0  0.53965  0.22759  0.25862  1.0000
  H   H1685     1.0  0.50334  0.19547  0.28342  1.0000
  H   H1686     1.0  0.51301  0.09912  0.31138  1.0000
  H   H1687     1.0  0.73715  0.43241  0.30920  1.0000
  H   H1688     1.0  0.73554  0.10985  0.13408  1.0000
  H   H1689     1.0  0.61945  0.01319  0.28071  1.0000
  C   C1051     1.0  0.66144  0.06219  0.31411  1.0000
  C   C1052     1.0  0.72058  0.33486  0.16855  1.0000
  H   H1690     1.0  0.73650  0.47675  0.29240  1.0000
  H   H1691     1.0  0.73327  0.24857  0.13818  1.0000
  H   H1692     1.0  0.74391  0.07972  0.28264  1.0000
  C   C1053     1.0  0.51653  0.20225  0.27996  1.0000
  H   H1693     1.0  0.62532  0.99961  0.30399  1.0000
  C   C1054     1.0  0.74528  0.32578  0.18855  1.0000
  Fe  Fe208     1.0  0.70003  0.18120  0.59826  1.0000
  S   S419      1.0  0.68691  0.19788  0.62262  1.0000
  S   S420      1.0  0.68534  0.18908  0.57221  1.0000
  Fe  Fe209     1.0  0.71052  0.14244  0.48165  1.0000
  S   S421      1.0  0.68395  0.16268  0.47136  1.0000
  S   S422      1.0  0.71482  0.13077  0.51301  1.0000
  Fe  Fe210     1.0  0.73429  0.14270  0.43960  1.0000
  S   S423      1.0  0.70965  0.16305  0.42586  1.0000
  S   S424      1.0  0.73088  0.18423  0.59637  1.0000
  Fe  Fe211     1.0  0.70577  0.17945  0.44990  1.0000
  S   S425      1.0  0.70445  0.21193  0.44615  1.0000
  Fe  Fe212     1.0  0.69017  0.14436  0.44831  1.0000
  S   S426      1.0  0.66766  0.12999  0.44282  1.0000
  S   S427      1.0  0.73179  0.16036  0.46189  1.0000
  S   S428      1.0  0.71531  0.12268  0.46036  1.0000
  Fe  Fe213     1.0  0.60802  0.13705  0.36345  1.0000
  H   H1694     1.0  0.65328  0.16261  0.58266  1.0000
  S   S429      1.0  0.62665  0.15603  0.36859  1.0000
  Fe  Fe214     1.0  0.57184  0.11795  0.37376  1.0000
  S   S430      1.0  0.57877  0.10813  0.34515  1.0000
  S   S431      1.0  0.54230  0.11548  0.39354  1.0000
  Fe  Fe215     1.0  0.60993  0.09998  0.34965  1.0000
  S   S432      1.0  0.63066  0.07205  0.34339  1.0000
  H   H1695     1.0  0.72219  0.24769  0.55454  1.0000
  H   H1696     1.0  0.69158  0.12896  0.38755  1.0000
  S   S433      1.0  0.60267  0.10704  0.37976  1.0000
  S   S434      1.0  0.57647  0.14871  0.36029  1.0000
  H   H1697     1.0  0.72624  0.27206  0.54274  1.0000
  S   S435      1.0  0.70329  0.15142  0.61802  1.0000
  C   C1055     1.0  0.70674  0.35245  0.34479  1.0000
  Fe  Fe216     1.0  0.69236  0.16817  0.64242  1.0000
  C   C1056     1.0  0.60582  0.18592  0.32298  1.0000
  H   H1698     1.0  0.72138  0.30183  0.40580  1.0000
  H   H1699     1.0  0.64345  0.18976  0.60053  1.0000
  C   C1057     1.0  0.52809  0.12500  0.33669  1.0000
  H   H1700     1.0  0.69133  0.08523  0.39925  1.0000
  C   C1058     1.0  0.50760  0.07976  0.37530  1.0000
  H   H1701     1.0  0.72345  0.19127  0.51047  1.0000
  C   C1059     1.0  0.52910  0.10148  0.38673  1.0000
  C   C1060     1.0  0.53865  0.08406  0.38019  1.0000
  C   C1061     1.0  0.52786  0.07308  0.37477  1.0000
  C   C1062     1.0  0.71680  0.11257  0.41213  1.0000
  H   H1702     1.0  0.55431  0.07886  0.37966  1.0000
  H   H1703     1.0  0.53526  0.05942  0.37006  1.0000
  C   C1063     1.0  0.70494  0.11838  0.38211  1.0000
  H   H1704     1.0  0.61813  0.14752  0.61189  1.0000
  C   C1064     1.0  0.64375  0.07528  0.31911  1.0000
  S   S436      1.0  0.72261  0.17005  0.64475  1.0000
  C   C1065     1.0  0.73201  0.22813  0.45393  1.0000
  C   C1066     1.0  0.64587  0.14538  0.63214  1.0000
  H   H1705     1.0  0.72672  0.33560  0.40348  1.0000
  S   S437      1.0  0.72896  0.22562  0.62113  1.0000
  Fe  Fe217     1.0  0.73300  0.15588  0.61854  1.0000
  H   H1706     1.0  0.69119  0.35219  0.34898  1.0000
  C   C1067     1.0  0.65620  0.13788  0.42222  1.0000
  C   C1068     1.0  0.65980  0.15448  0.40776  1.0000
  C   C1069     1.0  0.65067  0.15989  0.39135  1.0000
  C   C1070     1.0  0.63798  0.14872  0.38928  1.0000
  C   C1071     1.0  0.63457  0.13204  0.40366  1.0000
  C   C1072     1.0  0.64359  0.12671  0.42008  1.0000
  H   H1707     1.0  0.66946  0.16321  0.40930  1.0000
  H   H1708     1.0  0.65332  0.17286  0.38032  1.0000
  H   H1709     1.0  0.62478  0.12337  0.40228  1.0000
  H   H1710     1.0  0.64071  0.11387  0.43124  1.0000
  H   H1711     1.0  0.66132  0.14343  0.63393  1.0000
  C   C1073     1.0  0.72851  0.21464  0.44465  1.0000
  Fe  Fe218     1.0  0.71821  0.19825  0.62259  1.0000
  H   H1712     1.0  0.74192  0.09664  0.38340  1.0000
  C   C1074     1.0  0.69295  0.17248  0.55617  1.0000
  C   C1075     1.0  0.68657  0.17762  0.53825  1.0000
  C   C1076     1.0  0.69278  0.16473  0.52507  1.0000
  C   C1077     1.0  0.70524  0.14653  0.52987  1.0000
  C   C1078     1.0  0.71116  0.14118  0.54805  1.0000
  C   C1079     1.0  0.70522  0.15420  0.56108  1.0000
  H   H1713     1.0  0.67699  0.19172  0.53441  1.0000
  H   H1714     1.0  0.68808  0.16896  0.51111  1.0000
  H   H1715     1.0  0.72076  0.12709  0.55184  1.0000
  H   H1716     1.0  0.71022  0.15007  0.57487  1.0000
  C   C1080     1.0  0.71759  0.34733  0.32709  1.0000
  H   H1717     1.0  0.53657  0.11234  0.34572  1.0000
  C   C1081     1.0  0.62145  0.16179  0.61222  1.0000
  H   H1718     1.0  0.72126  0.28032  0.57562  1.0000
  H   H1719     1.0  0.61104  0.16739  0.62490  1.0000
  H   H1720     1.0  0.73099  0.01585  0.32424  1.0000
  H   H1721     1.0  0.72947  0.12000  0.40504  1.0000
  H   H1722     1.0  0.68250  0.10232  0.41544  1.0000
  H   H1723     1.0  0.72071  0.10165  0.42535  1.0000
  C   C1082     1.0  0.71582  0.35842  0.35688  1.0000
  H   H1724     1.0  0.50128  0.10625  0.33429  1.0000
  C   C1083     1.0  0.73584  0.35918  0.35142  1.0000
  H   H1725     1.0  0.63300  0.19098  0.34027  1.0000
  Fe  Fe219     1.0  0.58510  0.13821  0.33202  1.0000
  H   H1726     1.0  0.72624  0.08224  0.37990  1.0000
  H   H1727     1.0  0.64088  0.16158  0.32570  1.0000
  C   C1084     1.0  0.72929  0.08919  0.39075  1.0000
  H   H1728     1.0  0.67119  0.15022  0.59747  1.0000
  H   H1729     1.0  0.71973  0.23823  0.46055  1.0000
  C   C1085     1.0  0.63207  0.20026  0.32539  1.0000
  C   C1086     1.0  0.73380  0.18330  0.49935  1.0000
  N   N108      1.0  0.71173  0.10310  0.39850  1.0000
  C   C1087     1.0  0.49810  0.09734  0.38155  1.0000
  H   H1730     1.0  0.70045  0.08064  0.42158  1.0000
  H   H1731     1.0  0.73677  0.32628  0.42554  1.0000
  C   C1088     1.0  0.74044  0.32830  0.40923  1.0000
  C   C1089     1.0  0.65545  0.15213  0.59672  1.0000
  C   C1090     1.0  0.51579  0.10292  0.32444  1.0000
  H   H1732     1.0  0.71650  0.12699  0.37400  1.0000
  C   C1091     1.0  0.64581  0.17875  0.61423  1.0000
  H   H1733     1.0  0.71729  0.25588  0.58720  1.0000
  H   H1734     1.0  0.73578  0.26495  0.59308  1.0000
  H   H1735     1.0  0.63610  0.18482  0.62695  1.0000
  H   H1736     1.0  0.73994  0.31934  0.37521  1.0000
  H   H1737     1.0  0.70724  0.36269  0.37038  1.0000
  H   H1738     1.0  0.74183  0.19153  0.42847  1.0000
  N   N109      1.0  0.64214  0.15949  0.61383  1.0000
  H   H1739     1.0  0.66127  0.17742  0.61544  1.0000
  H   H1740     1.0  0.73209  0.29277  0.42736  1.0000
  H   H1741     1.0  0.63614  0.15056  0.64535  1.0000
  C   C1092     1.0  0.73778  0.34752  0.32189  1.0000
  H   H1742     1.0  0.65307  0.13766  0.59577  1.0000
  C   C1093     1.0  0.69583  0.09231  0.40911  1.0000
  H   H1743     1.0  0.61817  0.17238  0.59857  1.0000
  S   S438      1.0  0.61710  0.12928  0.33363  1.0000
  H   H1744     1.0  0.64333  0.13062  0.63240  1.0000
  H   H1745     1.0  0.62165  0.21433  0.32746  1.0000
  H   H1746     1.0  0.70101  0.11181  0.37147  1.0000
  H   H1747     1.0  0.70422  0.12392  0.41739  1.0000
  H   H1748     1.0  0.60595  0.17656  0.33792  1.0000
  H   H1749     1.0  0.74133  0.16839  0.53520  1.0000
  H   H1750     1.0  0.53608  0.13735  0.33306  1.0000
  H   H1751     1.0  0.66734  0.05074  0.32542  1.0000
  C   C1094     1.0  0.74438  0.20162  0.43610  1.0000
  H   H1752     1.0  0.50137  0.12150  0.39258  1.0000
  C   C1095     1.0  0.50876  0.10800  0.38758  1.0000
  H   H1753     1.0  0.59467  0.19964  0.32464  1.0000
  H   H1754     1.0  0.51354  0.12944  0.34614  1.0000
  H   H1755     1.0  0.52450  0.08952  0.33248  1.0000
  C   C1096     1.0  0.74395  0.22422  0.63770  1.0000
  H   H1756     1.0  0.72923  0.12584  0.64985  1.0000
  C   C1097     1.0  0.73361  0.25693  0.54900  1.0000
  C   C1098     1.0  0.72880  0.26495  0.58081  1.0000
  H   H1757     1.0  0.72715  0.17113  0.49858  1.0000
  H   H1758     1.0  0.74323  0.00578  0.35571  1.0000
  H   H1759     1.0  0.73438  0.07710  0.40270  1.0000
  N   N110      1.0  0.74350  0.25701  0.56478  1.0000
  C   C1099     1.0  0.73555  0.29571  0.41100  1.0000
  H   H1760     1.0  0.73444  0.19355  0.48479  1.0000
  H   H1761     1.0  0.66359  0.33477  0.32001  1.0000
  H   H1762     1.0  0.64684  0.31814  0.32682  1.0000
  N   N111      1.0  0.52593  0.11972  0.31883  1.0000
  H   H1763     1.0  0.74181  0.28125  0.40655  1.0000
  H   H1764     1.0  0.74224  0.22690  0.57858  1.0000
  H   H1765     1.0  0.74435  0.25094  0.53671  1.0000
  H   H1766     1.0  0.64690  0.20368  0.31852  1.0000
  Fe  Fe220     1.0  0.71241  0.35095  0.87179  1.0000
  S   S439      1.0  0.68533  0.37388  0.86725  1.0000
  H   H1767     1.0  0.73367  0.22461  0.96141  1.0000
  Fe  Fe221     1.0  0.70695  0.35334  0.91424  1.0000
  S   S440      1.0  0.67914  0.37639  0.91360  1.0000
  S   S441      1.0  0.71914  0.33941  0.94163  1.0000
  Fe  Fe222     1.0  0.67136  0.35808  0.89645  1.0000
  S   S442      1.0  0.64238  0.34824  0.90357  1.0000
  Fe  Fe223     1.0  0.69565  0.39024  0.88448  1.0000
  S   S443      1.0  0.69501  0.42269  0.87204  1.0000
  S   S444      1.0  0.69773  0.33387  0.89973  1.0000
  S   S445      1.0  0.72417  0.36856  0.88643  1.0000
  Fe  Fe224     1.0  0.60083  0.24893  0.85096  1.0000
  S   S446      1.0  0.57343  0.25078  0.87427  1.0000
  S   S447      1.0  0.61411  0.22210  0.83779  1.0000
  Fe  Fe225     1.0  0.60598  0.29005  0.85077  1.0000
  S   S448      1.0  0.57836  0.29555  0.87339  1.0000
  S   S449      1.0  0.62715  0.31091  0.83887  1.0000
  Fe  Fe226     1.0  0.58950  0.26472  0.88846  1.0000
  S   S450      1.0  0.59168  0.25514  0.92028  1.0000
  Fe  Fe227     1.0  0.56500  0.28122  0.85671  1.0000
  S   S451      1.0  0.61779  0.25992  0.86669  1.0000
  S   S452      1.0  0.59175  0.27859  0.83248  1.0000
  S   S453      1.0  0.71029  0.18936  0.90705  1.0000
  Fe  Fe228     1.0  0.57407  0.18384  0.73050  1.0000
  S   S454      1.0  0.57169  0.15201  0.74073  1.0000
  S   S455      1.0  0.58487  0.19823  0.69911  1.0000
  Fe  Fe229     1.0  0.56321  0.19154  0.77216  1.0000
  S   S456      1.0  0.56115  0.16022  0.78566  1.0000
  S   S457      1.0  0.55326  0.21369  0.79174  1.0000
  Fe  Fe230     1.0  0.58827  0.15239  0.76341  1.0000
  S   S458      1.0  0.61639  0.13059  0.76759  1.0000
  Fe  Fe231     1.0  0.54456  0.16300  0.76196  1.0000
  S   S459      1.0  0.51512  0.15398  0.77389  1.0000
  S   S460      1.0  0.59204  0.18367  0.75205  1.0000
  S   S461      1.0  0.54529  0.19485  0.74955  1.0000
  Fe  Fe232     1.0  0.68279  0.05800  0.87642  1.0000
  S   S462      1.0  0.67067  0.08196  0.85310  1.0000
  S   S463      1.0  0.69077  0.06479  0.90229  1.0000
  S   S464      1.0  0.67546  0.04735  0.82853  1.0000
  Fe  Fe233     1.0  0.69411  0.06651  0.83203  1.0000
  Fe  Fe234     1.0  0.65305  0.06066  0.85195  1.0000
  S   S465      1.0  0.62149  0.07106  0.84864  1.0000
  S   S466      1.0  0.66316  0.03747  0.87709  1.0000
  C   C1100     1.0  0.70854  0.45498  0.87233  1.0000
  H   H1768     1.0  0.65804  0.01488  0.82016  1.0000
  C   C1101     1.0  0.54610  0.28345  0.77157  1.0000
  S   S467      1.0  0.67120  0.15439  0.66791  1.0000
  H   H1769     1.0  0.74285  0.99486  0.82712  1.0000
  C   C1102     1.0  0.61005  0.01620  0.82071  1.0000
  C   C1103     1.0  0.65106  0.29031  0.96368  1.0000
  C   C1104     1.0  0.52294  0.25866  0.86120  1.0000
  H   H1770     1.0  0.74317  0.38106  0.84415  1.0000
  H   H1771     1.0  0.62359  0.00848  0.85401  1.0000
  C   C1105     1.0  0.64676  0.16672  0.67463  1.0000
  N   N112      1.0  0.64017  0.29791  0.94741  1.0000
  S   S468      1.0  0.67812  0.15517  0.90367  1.0000
  C   C1106     1.0  0.62404  0.02342  0.84478  1.0000
  H   H1772     1.0  0.67238  0.45899  0.90336  1.0000
  N   N113      1.0  0.74327  0.00398  0.79607  1.0000
  H   H1773     1.0  0.72909  0.10586  0.68341  1.0000
  H   H1774     1.0  0.63633  0.02854  0.84766  1.0000
  H   H1775     1.0  0.52183  0.16077  0.73127  1.0000
  C   C1107     1.0  0.60843  0.18598  0.68918  1.0000
  C   C1108     1.0  0.62115  0.19631  0.67432  1.0000
  H   H1776     1.0  0.72605  0.09952  0.97308  1.0000
  H   H1777     1.0  0.56440  0.30480  0.78438  1.0000
  C   C1109     1.0  0.63369  0.15625  0.68871  1.0000
  C   C1110     1.0  0.61475  0.16590  0.69624  1.0000
  C   C1111     1.0  0.64537  0.01041  0.81723  1.0000
  H   H1778     1.0  0.54497  0.27000  0.76712  1.0000
  H   H1779     1.0  0.63832  0.14065  0.69413  1.0000
  H   H1780     1.0  0.60497  0.15774  0.70745  1.0000
  C   C1112     1.0  0.61719  0.11498  0.79067  1.0000
  C   C1113     1.0  0.60000  0.11140  0.80416  1.0000
  C   C1114     1.0  0.60131  0.09808  0.82215  1.0000
  C   C1115     1.0  0.61976  0.08865  0.82676  1.0000
  C   C1116     1.0  0.63688  0.09259  0.81340  1.0000
  C   C1117     1.0  0.63560  0.10552  0.79532  1.0000
  H   H1781     1.0  0.58575  0.11857  0.80058  1.0000
  H   H1782     1.0  0.58802  0.09507  0.83244  1.0000
  H   H1783     1.0  0.65117  0.08557  0.81686  1.0000
  H   H1784     1.0  0.64892  0.10824  0.78494  1.0000
  C   C1118     1.0  0.66970  0.12376  0.89479  1.0000
  C   C1119     1.0  0.67231  0.10379  0.89435  1.0000
  C   C1120     1.0  0.68590  0.08969  0.90421  1.0000
  C   C1121     1.0  0.69645  0.09565  0.91501  1.0000
  H   H1785     1.0  0.65931  0.13455  0.88690  1.0000
  H   H1786     1.0  0.66368  0.09931  0.88651  1.0000
  C   C1122     1.0  0.59714  0.21755  0.82633  1.0000
  C   C1123     1.0  0.60370  0.20746  0.81080  1.0000
  C   C1124     1.0  0.59020  0.20535  0.80055  1.0000
  C   C1125     1.0  0.57012  0.21309  0.80606  1.0000
  C   C1126     1.0  0.56350  0.22211  0.82230  1.0000
  C   C1127     1.0  0.57699  0.22464  0.83220  1.0000
  H   H1787     1.0  0.61928  0.20186  0.80628  1.0000
  H   H1788     1.0  0.59539  0.19825  0.78808  1.0000
  H   H1789     1.0  0.54792  0.22743  0.82712  1.0000
  H   H1790     1.0  0.57172  0.23213  0.84434  1.0000
  C   C1128     1.0  0.65679  0.24465  0.92162  1.0000
  C   C1129     1.0  0.62835  0.26403  0.90814  1.0000
  C   C1130     1.0  0.61633  0.25213  0.92180  1.0000
  C   C1131     1.0  0.62435  0.23717  0.93606  1.0000
  C   C1132     1.0  0.64459  0.23339  0.93592  1.0000
  H   H1791     1.0  0.73576  0.11891  0.86260  1.0000
  H   H1792     1.0  0.61500  0.22821  0.94692  1.0000
  H   H1793     1.0  0.65066  0.22196  0.94709  1.0000
  C   C1133     1.0  0.74398  0.41669  0.84934  1.0000
  Fe  Fe235     1.0  0.68717  0.02580  0.85353  1.0000
  H   H1794     1.0  0.53716  0.25470  0.80199  1.0000
  H   H1795     1.0  0.57220  0.25144  0.78391  1.0000
  H   H1796     1.0  0.51627  0.16736  0.80882  1.0000
  C   C1134     1.0  0.70575  0.43612  0.88252  1.0000
  C   C1135     1.0  0.71084  0.42877  0.90098  1.0000
  C   C1136     1.0  0.71803  0.44058  0.90945  1.0000
  H   H1797     1.0  0.74102  0.32794  0.90544  1.0000
  C   C1137     1.0  0.69788  0.12216  0.84039  1.0000
  S   S469      1.0  0.71315  0.19375  0.95077  1.0000
  H   H1798     1.0  0.70881  0.41420  0.90893  1.0000
  H   H1799     1.0  0.70574  0.26048  0.85768  1.0000
  H   H1800     1.0  0.66339  0.28286  0.92771  1.0000
  C   C1138     1.0  0.50944  0.24648  0.86411  1.0000
  C   C1139     1.0  0.63733  0.33914  0.88511  1.0000
  C   C1140     1.0  0.62335  0.32715  0.89011  1.0000
  C   C1141     1.0  0.62011  0.31855  0.87597  1.0000
  C   C1142     1.0  0.63033  0.32238  0.85657  1.0000
  C   C1143     1.0  0.64377  0.33498  0.85138  1.0000
  C   C1144     1.0  0.64743  0.34316  0.86567  1.0000
  H   H1801     1.0  0.61510  0.32428  0.90496  1.0000
  H   H1802     1.0  0.60962  0.30903  0.88011  1.0000
  H   H1803     1.0  0.65143  0.33835  0.83631  1.0000
  H   H1804     1.0  0.65789  0.35274  0.86155  1.0000
  H   H1805     1.0  0.66532  0.28872  0.85754  1.0000
  H   H1806     1.0  0.71004  0.12197  0.87314  1.0000
  H   H1807     1.0  0.61881  0.31896  0.96254  1.0000
  H   H1808     1.0  0.64928  0.46499  0.89548  1.0000
  C   C1145     1.0  0.57260  0.26517  0.78826  1.0000
  C   C1146     1.0  0.74291  0.11718  0.65383  1.0000
  H   H1809     1.0  0.71172  0.01283  0.80239  1.0000
  C   C1147     1.0  0.71569  0.46675  0.88080  1.0000
  H   H1810     1.0  0.68986  0.26920  0.87863  1.0000
  C   C1148     1.0  0.74498  0.25728  0.93904  1.0000
  H   H1811     1.0  0.65041  0.19498  0.65637  1.0000
  H   H1812     1.0  0.61630  0.21187  0.66881  1.0000
  H   H1813     1.0  0.68151  0.27923  0.83712  1.0000
  C   C1149     1.0  0.65068  0.16029  0.75249  1.0000
  H   H1814     1.0  0.72122  0.99774  0.78415  1.0000
  H   H1815     1.0  0.74445  0.01938  0.76600  1.0000
  H   H1816     1.0  0.69566  0.13823  0.83411  1.0000
  H   H1817     1.0  0.62206  0.27607  0.89757  1.0000
  H   H1818     1.0  0.57805  0.26067  0.80233  1.0000
  S   S470      1.0  0.72867  0.33544  0.84716  1.0000
  H   H1819     1.0  0.51294  0.23119  0.87131  1.0000
  H   H1820     1.0  0.62814  0.04442  0.79619  1.0000
  S   S471      1.0  0.67290  0.18457  0.94348  1.0000
  H   H1821     1.0  0.54389  0.26375  0.82010  1.0000
  H   H1822     1.0  0.61247  0.05396  0.81686  1.0000
  C   C1150     1.0  0.49892  0.21068  0.82439  1.0000
  H   H1823     1.0  0.63375  0.26975  0.94904  1.0000
  Fe  Fe236     1.0  0.69508  0.17041  0.96279  1.0000
  H   H1824     1.0  0.51305  0.20988  0.78625  1.0000
  H   H1825     1.0  0.73074  0.10982  0.81546  1.0000
  H   H1826     1.0  0.63450  0.16476  0.75311  1.0000
  H   H1827     1.0  0.53670  0.25267  0.86608  1.0000
  C   C1151     1.0  0.69004  0.30760  0.86444  1.0000
  C   C1152     1.0  0.74520  0.00765  0.81482  1.0000
  N   N114      1.0  0.66127  0.15645  0.73293  1.0000
  C   C1153     1.0  0.68270  0.15103  0.73249  1.0000
  C   C1154     1.0  0.65479  0.14008  0.72891  1.0000
  C   C1155     1.0  0.65689  0.17434  0.71779  1.0000
  H   H1828     1.0  0.52404  0.27786  0.80826  1.0000
  H   H1829     1.0  0.69105  0.14791  0.71791  1.0000
  H   H1830     1.0  0.68643  0.13756  0.74377  1.0000
  H   H1831     1.0  0.68817  0.16306  0.73534  1.0000
  C   C1156     1.0  0.62644  0.04370  0.81217  1.0000
  H   H1832     1.0  0.66270  0.13659  0.71437  1.0000
  H   H1833     1.0  0.61018  0.03350  0.85005  1.0000
  H   H1834     1.0  0.64090  0.17840  0.71725  1.0000
  H   H1835     1.0  0.66508  0.17212  0.70290  1.0000
  H   H1836     1.0  0.66102  0.18718  0.72063  1.0000
  H   H1837     1.0  0.70250  0.30800  0.87095  1.0000
  H   H1838     1.0  0.70762  0.31061  0.82666  1.0000
  H   H1839     1.0  0.70695  0.08479  0.92272  1.0000
  N   N115      1.0  0.62648  0.19679  0.89682  1.0000
  C   C1157     1.0  0.62719  0.18768  0.91762  1.0000
  C   C1158     1.0  0.63007  0.18131  0.88537  1.0000
  C   C1159     1.0  0.64173  0.20889  0.88872  1.0000
  C   C1160     1.0  0.60686  0.20938  0.89550  1.0000
  H   H1840     1.0  0.62449  0.19906  0.92657  1.0000
  H   H1841     1.0  0.64183  0.17812  0.91919  1.0000
  H   H1842     1.0  0.61594  0.17838  0.92420  1.0000
  H   H1843     1.0  0.62931  0.18782  0.86966  1.0000
  H   H1844     1.0  0.64488  0.17171  0.88574  1.0000
  H   H1845     1.0  0.61900  0.17172  0.89122  1.0000
  H   H1846     1.0  0.64168  0.21584  0.87298  1.0000
  H   H1847     1.0  0.65672  0.19981  0.88971  1.0000
  H   H1848     1.0  0.63930  0.22092  0.89684  1.0000
  H   H1849     1.0  0.60369  0.22138  0.90376  1.0000
  H   H1850     1.0  0.59494  0.20081  0.90157  1.0000
  H   H1851     1.0  0.60582  0.21635  0.88000  1.0000
  N   N116      1.0  0.69542  0.29188  0.85301  1.0000
  C   C1161     1.0  0.70173  0.27272  0.86578  1.0000
  C   C1162     1.0  0.71177  0.29605  0.83637  1.0000
  C   C1163     1.0  0.67820  0.29120  0.84545  1.0000
  H   H1852     1.0  0.62055  0.32428  0.93646  1.0000
  H   H1853     1.0  0.66444  0.30809  0.92616  1.0000
  N   N117      1.0  0.71782  0.11421  0.84482  1.0000
  H   H1854     1.0  0.64090  0.29012  0.97821  1.0000
  H   H1855     1.0  0.72161  0.43499  0.92390  1.0000
  H   H1856     1.0  0.73623  0.08432  0.76812  1.0000
  H   H1857     1.0  0.63860  0.04966  0.81416  1.0000
  H   H1858     1.0  0.71480  0.27271  0.87159  1.0000
  H   H1859     1.0  0.72958  0.26025  0.94738  1.0000
  C   C1164     1.0  0.53889  0.26820  0.80583  1.0000
  C   C1165     1.0  0.50699  0.15832  0.73723  1.0000
  H   H1860     1.0  0.51577  0.17220  0.83235  1.0000
  H   H1861     1.0  0.64655  0.30261  0.91591  1.0000
  H   H1862     1.0  0.63871  0.14376  0.72890  1.0000
  H   H1863     1.0  0.68355  0.48390  0.91428  1.0000
  C   C1166     1.0  0.74283  0.10583  0.67283  1.0000
  C   C1167     1.0  0.62927  0.31823  0.94830  1.0000
  H   H1864     1.0  0.70483  0.46068  0.85794  1.0000
  S   S472      1.0  0.71071  0.08402  0.80560  1.0000
  S   S473      1.0  0.70036  0.99503  0.84832  1.0000
  H   H1865     1.0  0.65880  0.99672  0.86532  1.0000
  C   C1168     1.0  0.55426  0.29645  0.79585  1.0000
  H   H1866     1.0  0.65545  0.17225  0.75627  1.0000
  H   H1867     1.0  0.53956  0.30638  0.79840  1.0000
  C   C1169     1.0  0.64854  0.26032  0.90805  1.0000
  H   H1868     1.0  0.65945  0.27497  0.96343  1.0000
  S   S474      1.0  0.70779  0.04403  0.85521  1.0000
  C   C1170     1.0  0.65429  0.29782  0.92849  1.0000
  C   C1171     1.0  0.69380  0.11568  0.91551  1.0000
  H   H1869     1.0  0.69519  0.11482  0.82961  1.0000
  H   H1870     1.0  0.73919  0.05851  0.82850  1.0000
  N   N118      1.0  0.55298  0.27833  0.79036  1.0000
  H   H1871     1.0  0.55639  0.29109  0.75952  1.0000
  H   H1872     1.0  0.65772  0.26939  0.89721  1.0000
  C   C1172     1.0  0.64041  0.18675  0.66719  1.0000
  H   H1873     1.0  0.61798  0.29029  0.93680  1.0000
  H   H1874     1.0  0.66963  0.47545  0.88034  1.0000
  S   S475      1.0  0.72782  0.47472  0.91119  1.0000
  H   H1875     1.0  0.73770  0.24749  0.90809  1.0000
  C   C1173     1.0  0.51588  0.17911  0.81661  1.0000
  H   H1876     1.0  0.71755  0.08486  0.84306  1.0000
  Fe  Fe237     1.0  0.72938  0.17460  0.92916  1.0000
  N   N119      1.0  0.62649  0.02343  0.82371  1.0000
  S   S476      1.0  0.53547  0.29400  0.84765  1.0000
  H   H1877     1.0  0.72501  0.29667  0.84158  1.0000
  H   H1878     1.0  0.61492  0.28531  0.96306  1.0000
  S   S477      1.0  0.68228  0.23923  0.92056  1.0000
  C   C1174     1.0  0.66199  0.47114  0.89581  1.0000
  C   C1175     1.0  0.73688  0.23622  0.92197  1.0000
  H   H1879     1.0  0.55981  0.29296  0.80976  1.0000
  Fe  Fe238     1.0  0.69246  0.20644  0.92985  1.0000
  C   C1176     1.0  0.62609  0.28528  0.94918  1.0000
  H   H1880     1.0  0.61140  0.01602  0.80496  1.0000
  C   C1177     1.0  0.50019  0.15451  0.75756  1.0000
  Fe  Fe239     1.0  0.69248  0.16622  0.92235  1.0000
  C   C1178     1.0  0.74020  0.32130  0.93658  1.0000
  H   H1881     1.0  0.60966  0.00092  0.82923  1.0000
  H   H1882     1.0  0.68630  0.32238  0.85496  1.0000
  H   H1883     1.0  0.64809  0.01066  0.80123  1.0000
  C   C1179     1.0  0.68054  0.12979  0.90521  1.0000
  H   H1884     1.0  0.71617  0.28466  0.82722  1.0000
  H   H1885     1.0  0.67709  0.30563  0.87656  1.0000
  H   H1886     1.0  0.51261  0.21675  0.81852  1.0000
  H   H1887     1.0  0.58373  0.27242  0.77697  1.0000
  H   H1888     1.0  0.70227  0.12020  0.92353  1.0000
  S   S478      1.0  0.71312  0.14985  0.94286  1.0000
  H   H1889     1.0  0.65735  0.12645  0.74033  1.0000
  H   H1890     1.0  0.63945  0.32839  0.94632  1.0000
  C   C1180     1.0  0.51852  0.27850  0.85210  1.0000
  H   H1891     1.0  0.65301  0.14688  0.76423  1.0000
  H   H1892     1.0  0.67334  0.30524  0.83535  1.0000
  C   C1181     1.0  0.72019  0.45973  0.89953  1.0000
  H   H1893     1.0  0.53128  0.29330  0.77271  1.0000
  H   H1894     1.0  0.50001  0.16147  0.70888  1.0000
  C   C1182     1.0  0.50059  0.28598  0.84564  1.0000
  H   H1895     1.0  0.73276  0.20080  0.65952  1.0000
  H   H1896     1.0  0.72129  0.23836  0.93000  1.0000
  H   H1897     1.0  0.68628  0.11985  0.85383  1.0000
  H   H1898     1.0  0.71773  0.48123  0.87280  1.0000
  H   H1899     1.0  0.71885  0.14058  0.85342  1.0000
  H   H1900     1.0  0.52990  0.18451  0.81060  1.0000
  H   H1901     1.0  0.63213  0.47612  0.92650  1.0000
  C   C1183     1.0  0.73530  0.07241  0.79897  1.0000
  H   H1902     1.0  0.66181  0.29957  0.96271  1.0000
  C   C1184     1.0  0.72079  0.12439  0.85907  1.0000
  H   H1903     1.0  0.59559  0.02570  0.82550  1.0000
  H   H1904     1.0  0.74059  0.22148  0.91793  1.0000
  H   H1905     1.0  0.73834  0.39919  0.82274  1.0000
  H   H1906     1.0  0.64557  0.99484  0.82506  1.0000
  H   H1907     1.0  0.74304  0.31101  0.96683  1.0000
  N   N120      1.0  0.65569  0.48802  0.90577  1.0000
  H   H1908     1.0  0.70891  0.09001  0.86711  1.0000
  C   C1185     1.0  0.74328  0.21036  0.65539  1.0000
  C   C1186     1.0  0.72339  0.00024  0.79808  1.0000
  H   H1909     1.0  0.73406  0.02063  0.81901  1.0000
  C   C1187     1.0  0.71991  0.09292  0.85333  1.0000
  H   H1910     1.0  0.65525  0.46966  0.93454  1.0000
  H   H1911     1.0  0.73723  0.40744  0.86308  1.0000
  H   H1912     1.0  0.73475  0.08629  0.85686  1.0000
  N   N121      1.0  0.49865  0.19529  0.81413  1.0000
  H   H1913     1.0  0.73181  0.42526  0.84162  1.0000
  H   H1914     1.0  0.49709  0.30130  0.83853  1.0000
  H   H1915     1.0  0.49821  0.20484  0.84041  1.0000
  C   C1188     1.0  0.73269  0.11728  0.82652  1.0000
  C   C1189     1.0  0.74438  0.07516  0.77916  1.0000
  H   H1916     1.0  0.73159  0.13319  0.81972  1.0000
  C   C1190     1.0  0.64544  0.48169  0.92615  1.0000
  H   H1917     1.0  0.73559  0.03491  0.78380  1.0000
  H   H1918     1.0  0.49938  0.19260  0.78478  1.0000
  C   C1191     1.0  0.49943  0.20386  0.79300  1.0000
  H   H1919     1.0  0.72344  0.13862  0.98319  1.0000
  H   H1920     1.0  0.70430  0.11427  0.98479  1.0000
  H   H1921     1.0  0.74565  0.12414  0.97209  1.0000
  S   S479      1.0  0.72953  0.85667  0.24469  1.0000
  H   H1922     1.0  0.64388  0.71384  0.25511  1.0000
  H   H1923     1.0  0.70288  0.88986  0.19173  1.0000
  S   S480      1.0  0.66784  0.71827  0.03591  1.0000
  C   C1192     1.0  0.69252  0.96458  0.24858  1.0000
  H   H1924     1.0  0.66399  0.82402  0.25576  1.0000
  C   C1193     1.0  0.71082  0.94894  0.22134  1.0000
  H   H1925     1.0  0.51136  0.67421  0.20164  1.0000
  Fe  Fe240     1.0  0.67383  0.85793  0.26126  1.0000
  S   S481      1.0  0.69617  0.83032  0.26829  1.0000
  S   S482      1.0  0.64151  0.85827  0.27109  1.0000
  Fe  Fe241     1.0  0.70463  0.88233  0.23964  1.0000
  N   N122      1.0  0.61832  0.79078  0.23040  1.0000
  S   S483      1.0  0.71272  0.91048  0.22040  1.0000
  Fe  Fe242     1.0  0.71123  0.83944  0.23706  1.0000
  S   S484      1.0  0.72488  0.81881  0.21611  1.0000
  Fe  Fe243     1.0  0.71213  0.85008  0.27538  1.0000
  H   H1926     1.0  0.69270  0.63649  0.00673  1.0000
  S   S485      1.0  0.68768  0.86565  0.22954  1.0000
  S   S486      1.0  0.68845  0.87709  0.27096  1.0000
  Fe  Fe244     1.0  0.69280  0.54682  0.26291  1.0000
  S   S487      1.0  0.68487  0.53646  0.23942  1.0000
  S   S488      1.0  0.67433  0.57070  0.27881  1.0000
  Fe  Fe245     1.0  0.70002  0.50630  0.25303  1.0000
  C   C1194     1.0  0.61930  0.72439  0.28733  1.0000
  S   S489      1.0  0.70513  0.51641  0.27817  1.0000
  C   C1195     1.0  0.50193  0.66336  0.20973  1.0000
  Fe  Fe246     1.0  0.56884  0.66616  0.29576  1.0000
  S   S490      1.0  0.55532  0.69633  0.28132  1.0000
  H   H1927     1.0  0.72897  0.71193  0.16437  1.0000
  Fe  Fe247     1.0  0.58568  0.65233  0.25755  1.0000
  S   S491      1.0  0.57338  0.68125  0.23945  1.0000
  S   S492      1.0  0.60213  0.62641  0.24373  1.0000
  Fe  Fe248     1.0  0.58375  0.69449  0.25927  1.0000
  S   S493      1.0  0.60033  0.71923  0.24821  1.0000
  Fe  Fe249     1.0  0.54599  0.68053  0.26283  1.0000
  S   S494      1.0  0.51568  0.69235  0.25566  1.0000
  S   S495      1.0  0.59822  0.66570  0.27554  1.0000
  S   S496      1.0  0.55724  0.65035  0.27920  1.0000
  Fe  Fe250     1.0  0.67696  0.73068  0.15756  1.0000
  S   S497      1.0  0.65746  0.75985  0.14904  1.0000
  S   S498      1.0  0.66427  0.70378  0.17249  1.0000
  Fe  Fe251     1.0  0.71412  0.74642  0.13941  1.0000
  S   S499      1.0  0.69781  0.77711  0.12940  1.0000
  Fe  Fe252     1.0  0.67828  0.77213  0.15924  1.0000
  S   S500      1.0  0.66528  0.79440  0.17873  1.0000
  Fe  Fe253     1.0  0.67868  0.76200  0.12008  1.0000
  S   S501      1.0  0.66710  0.77407  0.09189  1.0000
  S   S502      1.0  0.69616  0.74261  0.17013  1.0000
  S   S503      1.0  0.69653  0.73169  0.12783  1.0000
  H   H1928     1.0  0.65383  0.68582  0.30416  1.0000
  H   H1929     1.0  0.65967  0.78950  0.26441  1.0000
  H   H1930     1.0  0.71520  0.60118  0.18820  1.0000
  H   H1931     1.0  0.65970  0.84368  0.30278  1.0000
  H   H1932     1.0  0.60554  0.76490  0.24098  1.0000
  S   S504      1.0  0.66398  0.71045  0.98563  1.0000
  H   H1933     1.0  0.58523  0.58199  0.29820  1.0000
  H   H1934     1.0  0.72192  0.91492  0.27225  1.0000
  H   H1935     1.0  0.73088  0.79226  0.19013  1.0000
  H   H1936     1.0  0.61858  0.73611  0.27383  1.0000
  H   H1937     1.0  0.69064  0.59879  0.24077  1.0000
  H   H1938     1.0  0.70696  0.60131  0.00453  1.0000
  H   H1939     1.0  0.51895  0.64957  0.26614  1.0000
  C   C1196     1.0  0.61838  0.71467  0.22742  1.0000
  C   C1197     1.0  0.62876  0.72930  0.21639  1.0000
  C   C1198     1.0  0.64305  0.72593  0.19963  1.0000
  C   C1199     1.0  0.64698  0.70788  0.19384  1.0000
  C   C1200     1.0  0.63686  0.69310  0.20505  1.0000
  C   C1201     1.0  0.62261  0.69646  0.22187  1.0000
  H   H1940     1.0  0.62559  0.74329  0.22064  1.0000
  H   H1941     1.0  0.65097  0.73733  0.19116  1.0000
  H   H1942     1.0  0.63991  0.67909  0.20066  1.0000
  H   H1943     1.0  0.61491  0.68496  0.23045  1.0000
  C   C1202     1.0  0.65457  0.58614  0.26860  1.0000
  C   C1203     1.0  0.64665  0.60449  0.27382  1.0000
  C   C1204     1.0  0.63088  0.61718  0.26586  1.0000
  C   C1205     1.0  0.62278  0.61148  0.25285  1.0000
  C   C1206     1.0  0.63083  0.59320  0.24749  1.0000
  C   C1207     1.0  0.64670  0.58055  0.25535  1.0000
  H   H1944     1.0  0.65287  0.60895  0.28390  1.0000
  H   H1945     1.0  0.62503  0.63132  0.26983  1.0000
  H   H1946     1.0  0.62455  0.58865  0.23751  1.0000
  H   H1947     1.0  0.65250  0.56632  0.25148  1.0000
  C   C1208     1.0  0.70819  0.81162  0.20622  1.0000
  C   C1209     1.0  0.71528  0.79841  0.19342  1.0000
  C   C1210     1.0  0.70224  0.79302  0.18487  1.0000
  C   C1211     1.0  0.68208  0.80103  0.18894  1.0000
  C   C1212     1.0  0.67504  0.81442  0.20156  1.0000
  C   C1213     1.0  0.68801  0.81955  0.21034  1.0000
  H   H1948     1.0  0.74196  0.94527  0.24142  1.0000
  H   H1949     1.0  0.70781  0.78271  0.17511  1.0000
  H   H1950     1.0  0.65952  0.82087  0.20456  1.0000
  H   H1951     1.0  0.68239  0.82972  0.22018  1.0000
  S   S505      1.0  0.72313  0.84279  0.30381  1.0000
  H   H1952     1.0  0.62593  0.80229  0.19942  1.0000
  H   H1953     1.0  0.72070  0.94959  0.20718  1.0000
  C   C1214     1.0  0.70508  0.96545  0.23017  1.0000
  Fe  Fe254     1.0  0.73375  0.52094  0.25838  1.0000
  C   C1215     1.0  0.64859  0.80060  0.27095  1.0000
  C   C1216     1.0  0.71166  0.85818  0.17515  1.0000
  H   H1954     1.0  0.72206  0.90165  0.17633  1.0000
  H   H1955     1.0  0.64160  0.76528  0.22790  1.0000
  H   H1956     1.0  0.74035  0.55634  0.31193  1.0000
  C   C1217     1.0  0.63849  0.77979  0.23213  1.0000
  H   H1957     1.0  0.72413  0.67383  0.00923  1.0000
  C   C1218     1.0  0.65119  0.82010  0.26625  1.0000
  S   S506      1.0  0.72152  0.55727  0.19219  1.0000
  H   H1958     1.0  0.68752  0.63974  0.19691  1.0000
  H   H1959     1.0  0.64084  0.77712  0.24740  1.0000
  C   C1219     1.0  0.63196  0.79546  0.28444  1.0000
  H   H1960     1.0  0.62641  0.81883  0.22562  1.0000
  C   C1220     1.0  0.61568  0.79335  0.21005  1.0000
  H   H1961     1.0  0.60044  0.80098  0.20830  1.0000
  H   H1962     1.0  0.68450  0.58908  0.19468  1.0000
  H   H1963     1.0  0.61656  0.80900  0.25066  1.0000
  H   H1964     1.0  0.71044  0.97879  0.22276  1.0000
  C   C1221     1.0  0.62029  0.82944  0.28802  1.0000
  C   C1222     1.0  0.59370  0.59340  0.29718  1.0000
  N   N123      1.0  0.68963  0.60894  0.21006  1.0000
  H   H1965     1.0  0.66458  0.59573  0.21427  1.0000
  H   H1966     1.0  0.56407  0.61860  0.31452  1.0000
  H   H1967     1.0  0.73620  0.92596  0.29521  1.0000
  C   C1223     1.0  0.71123  0.60403  0.20339  1.0000
  H   H1968     1.0  0.60552  0.77752  0.25965  1.0000
  C   C1224     1.0  0.70404  0.93154  0.23089  1.0000
  C   C1225     1.0  0.69115  0.93089  0.24908  1.0000
  C   C1226     1.0  0.68543  0.94734  0.25792  1.0000
  H   H1969     1.0  0.68552  0.91774  0.25638  1.0000
  H   H1970     1.0  0.67559  0.94663  0.27209  1.0000
  H   H1971     1.0  0.60045  0.81927  0.23352  1.0000
  H   H1972     1.0  0.61873  0.77897  0.20549  1.0000
  H   H1973     1.0  0.65374  0.73548  0.27182  1.0000
  C   C1227     1.0  0.66968  0.73440  0.04995  1.0000
  C   C1228     1.0  0.67849  0.72673  0.06646  1.0000
  C   C1229     1.0  0.67895  0.73903  0.07872  1.0000
  C   C1230     1.0  0.66999  0.75897  0.07495  1.0000
  C   C1231     1.0  0.66156  0.76672  0.05820  1.0000
  C   C1232     1.0  0.66156  0.75451  0.04562  1.0000
  H   H1974     1.0  0.68492  0.71120  0.06975  1.0000
  H   H1975     1.0  0.68584  0.73298  0.09129  1.0000
  H   H1976     1.0  0.65467  0.78214  0.05512  1.0000
  H   H1977     1.0  0.65476  0.76055  0.03291  1.0000
  H   H1978     1.0  0.58845  0.78763  0.24336  1.0000
  H   H1979     1.0  0.64977  0.78798  0.22236  1.0000
  S   S507      1.0  0.62891  0.77102  0.29062  1.0000
  H   H1980     1.0  0.66888  0.61643  0.23561  1.0000
  C   C1233     1.0  0.74473  0.85154  0.30097  1.0000
  H   H1981     1.0  0.65647  0.80902  0.30827  1.0000
  H   H1982     1.0  0.70316  0.89788  0.16590  1.0000
  H   H1983     1.0  0.70665  0.70083  0.98694  1.0000
  H   H1984     1.0  0.50337  0.68197  0.30002  1.0000
  C   C1234     1.0  0.74423  0.70525  0.16006  1.0000
  H   H1985     1.0  0.66500  0.63105  0.20159  1.0000
  H   H1986     1.0  0.72795  0.86145  0.20366  1.0000
  H   H1987     1.0  0.66898  0.71397  0.28365  1.0000
  C   C1235     1.0  0.68090  0.59245  0.20964  1.0000
  H   H1988     1.0  0.52834  0.76166  0.31370  1.0000
  Fe  Fe255     1.0  0.66412  0.73117  0.00453  1.0000
  C   C1236     1.0  0.73731  0.91018  0.26456  1.0000
  S   S508      1.0  0.72964  0.50901  0.23414  1.0000
  C   C1237     1.0  0.50378  0.65658  0.26561  1.0000
  C   C1238     1.0  0.68130  0.62695  0.19694  1.0000
  H   H1989     1.0  0.65846  0.69238  0.26770  1.0000
  N   N124      1.0  0.62743  0.73235  0.11942  1.0000
  C   C1239     1.0  0.61803  0.71509  0.12459  1.0000
  C   C1240     1.0  0.61734  0.74593  0.13292  1.0000
  C   C1241     1.0  0.62616  0.74269  0.09900  1.0000
  C   C1242     1.0  0.64831  0.72570  0.12121  1.0000
  H   H1990     1.0  0.62532  0.70467  0.11454  1.0000
  H   H1991     1.0  0.60219  0.71953  0.12358  1.0000
  H   H1992     1.0  0.61895  0.70687  0.13986  1.0000
  H   H1993     1.0  0.61846  0.73874  0.14842  1.0000
  H   H1994     1.0  0.62404  0.75922  0.12913  1.0000
  H   H1995     1.0  0.60147  0.75109  0.13222  1.0000
  H   H1996     1.0  0.63225  0.75635  0.09500  1.0000
  H   H1997     1.0  0.61067  0.74713  0.09682  1.0000
  H   H1998     1.0  0.63466  0.73334  0.08821  1.0000
  H   H1999     1.0  0.65576  0.73839  0.11755  1.0000
  H   H2000     1.0  0.65652  0.71555  0.11113  1.0000
  H   H2001     1.0  0.64985  0.71782  0.13641  1.0000
  N   N125      1.0  0.63902  0.71142  0.28635  1.0000
  C   C1243     1.0  0.64377  0.70242  0.26891  1.0000
  H   H2002     1.0  0.68446  0.62489  0.18152  1.0000
  C   C1244     1.0  0.65384  0.72314  0.28486  1.0000
  C   C1245     1.0  0.49842  0.67712  0.26093  1.0000
  H   H2003     1.0  0.71794  0.59043  0.21294  1.0000
  H   H2004     1.0  0.60765  0.71601  0.28883  1.0000
  H   H2005     1.0  0.57990  0.69234  0.31420  1.0000
  H   H2006     1.0  0.70210  0.86374  0.16401  1.0000
  C   C1246     1.0  0.61767  0.80994  0.29273  1.0000
  H   H2007     1.0  0.63263  0.69376  0.26941  1.0000
  H   H2008     1.0  0.60934  0.84057  0.29467  1.0000
  H   H2009     1.0  0.74394  0.71602  0.08066  1.0000
  H   H2010     1.0  0.71839  0.61611  0.20346  1.0000
  Fe  Fe256     1.0  0.71527  0.54007  0.22300  1.0000
  C   C1247     1.0  0.60383  0.77971  0.24417  1.0000
  C   C1248     1.0  0.61529  0.81032  0.23524  1.0000
  C   C1249     1.0  0.63726  0.83444  0.27510  1.0000
  C   C1250     1.0  0.68506  0.61229  0.23034  1.0000
  C   C1251     1.0  0.71269  0.89113  0.17697  1.0000
  H   H2011     1.0  0.60445  0.80620  0.30260  1.0000
  C   C1252     1.0  0.70582  0.64013  0.99557  1.0000
  C   C1253     1.0  0.71916  0.60628  0.99282  1.0000
  H   H2012     1.0  0.69176  0.62433  0.23137  1.0000
  S   S509      1.0  0.63973  0.75473  0.99331  1.0000
  H   H2013     1.0  0.72856  0.88028  0.14224  1.0000
  S   S510      1.0  0.72229  0.55235  0.24558  1.0000
  C   C1254     1.0  0.73004  0.67635  0.99359  1.0000
  H   H2014     1.0  0.68663  0.57872  0.21966  1.0000
  H   H2015     1.0  0.51049  0.64842  0.20797  1.0000
  H   H2016     1.0  0.73695  0.54133  0.28555  1.0000
  H   H2017     1.0  0.61858  0.60908  0.30885  1.0000
  C   C1255     1.0  0.63912  0.69578  0.30430  1.0000
  S   S511      1.0  0.68612  0.98437  0.26076  1.0000
  H   H2018     1.0  0.72026  0.84331  0.17308  1.0000
  H   H2019     1.0  0.62820  0.68655  0.30583  1.0000
  H   H2020     1.0  0.71742  0.63959  0.00368  1.0000
  H   H2021     1.0  0.49923  0.66375  0.22560  1.0000
  H   H2022     1.0  0.61546  0.73188  0.29996  1.0000
  H   H2023     1.0  0.59718  0.62734  0.30361  1.0000
  C   C1256     1.0  0.60254  0.61398  0.31423  1.0000
  H   H2024     1.0  0.60936  0.58760  0.29096  1.0000
  H   H2025     1.0  0.70184  0.85602  0.18986  1.0000
  H   H2026     1.0  0.58830  0.60657  0.28630  1.0000
  H   H2027     1.0  0.51073  0.71523  0.28511  1.0000
  C   C1257     1.0  0.73745  0.87415  0.15393  1.0000
  C   C1258     1.0  0.74262  0.94348  0.25712  1.0000
  H   H2028     1.0  0.70175  0.65566  0.98772  1.0000
  N   N126      1.0  0.72472  0.87177  0.17367  1.0000
  C   C1259     1.0  0.74341  0.70518  0.09487  1.0000
  H   H2029     1.0  0.49633  0.67788  0.17261  1.0000
  H   H2030     1.0  0.65085  0.72984  0.29800  1.0000
  H   H2031     1.0  0.72743  0.94881  0.26496  1.0000
  H   H2032     1.0  0.73687  0.91063  0.24906  1.0000
  H   H2033     1.0  0.72877  0.70093  0.09888  1.0000
  H   H2034     1.0  0.74409  0.71301  0.10619  1.0000
  H   H2035     1.0  0.74437  0.66853  0.11713  1.0000
  H   H2036     1.0  0.68294  0.83612  0.31042  1.0000
  H   H2037     1.0  0.74248  0.58201  0.16020  1.0000
  H   H2038     1.0  0.74409  0.67282  0.08189  1.0000
  C   C1260     1.0  0.73713  0.86356  0.18866  1.0000
  H   H2039     1.0  0.74240  0.89452  0.27140  1.0000
  H   H2040     1.0  0.73157  0.60551  0.00001  1.0000
  C   C1261     1.0  0.66673  0.83970  0.31578  1.0000
  H   H2041     1.0  0.74255  0.67936  0.18303  1.0000
  H   H2042     1.0  0.68004  0.80125  0.31536  1.0000
  H   H2043     1.0  0.63540  0.70208  0.31778  1.0000
  N   N127      1.0  0.59162  0.59830  0.31650  1.0000
  H   H2044     1.0  0.56559  0.72584  0.40323  1.0000
  C   C1262     1.0  0.69329  0.82801  0.48663  1.0000
  S   S512      1.0  0.61368  0.69621  0.36473  1.0000
  H   H2045     1.0  0.73833  0.88440  0.63992  1.0000
  H   H2046     1.0  0.74522  0.81236  0.33408  1.0000
  H   H2047     1.0  0.68597  0.81428  0.34215  1.0000
  H   H2048     1.0  0.57467  0.71947  0.36976  1.0000
  H   H2049     1.0  0.72939  0.83029  0.46440  1.0000
  H   H2050     1.0  0.70698  0.86513  0.49815  1.0000
  C   C1263     1.0  0.69670  0.85680  0.49606  1.0000
  S   S513      1.0  0.71444  0.80636  0.61737  1.0000
  Fe  Fe257     1.0  0.71118  0.77443  0.48483  1.0000
  H   H2051     1.0  0.73840  0.85610  0.33062  1.0000
  S   S514      1.0  0.69715  0.77974  0.51548  1.0000
  Fe  Fe258     1.0  0.70894  0.75875  0.44964  1.0000
  H   H2052     1.0  0.71248  0.85283  0.45849  1.0000
  S   S515      1.0  0.69440  0.74046  0.43812  1.0000
  H   H2053     1.0  0.70960  0.82161  0.51813  1.0000
  C   C1264     1.0  0.49811  0.77176  0.35615  1.0000
  Fe  Fe259     1.0  0.72149  0.79756  0.44336  1.0000
  S   S516      1.0  0.72120  0.82827  0.42562  1.0000
  S   S517      1.0  0.72370  0.74526  0.47576  1.0000
  S   S518      1.0  0.69412  0.78674  0.46037  1.0000
  Fe  Fe260     1.0  0.58118  0.76700  0.35643  1.0000
  S   S519      1.0  0.59861  0.74775  0.37880  1.0000
  C   C1265     1.0  0.73498  0.81173  0.34863  1.0000
  S   S520      1.0  0.63682  0.74399  0.34235  1.0000
  H   H2054     1.0  0.54678  0.68971  0.41234  1.0000
  Fe  Fe261     1.0  0.61116  0.72905  0.35604  1.0000
  H   H2055     1.0  0.56180  0.59381  0.32651  1.0000
  Fe  Fe262     1.0  0.62262  0.76454  0.36321  1.0000
  S   S521      1.0  0.63920  0.78023  0.37557  1.0000
  H   H2056     1.0  0.51727  0.71489  0.40357  1.0000
  S   S522      1.0  0.60400  0.78555  0.34262  1.0000
  C   C1266     1.0  0.59972  0.58059  0.33011  1.0000
  H   H2057     1.0  0.55744  0.71282  0.35938  1.0000
  C   C1267     1.0  0.59565  0.66719  0.36407  1.0000
  C   C1268     1.0  0.55879  0.72156  0.36961  1.0000
  H   H2058     1.0  0.72602  0.80062  0.35009  1.0000
  C   C1269     1.0  0.53167  0.77438  0.35524  1.0000
  N   N128      1.0  0.70752  0.83861  0.48907  1.0000
  C   C1270     1.0  0.58422  0.68533  0.32814  1.0000
  C   C1271     1.0  0.73682  0.78147  0.55617  1.0000
  H   H2059     1.0  0.60067  0.61860  0.32839  1.0000
  C   C1272     1.0  0.66397  0.80578  0.32093  1.0000
  N   N129      1.0  0.65961  0.82302  0.33021  1.0000
  H   H2060     1.0  0.63218  0.81622  0.34786  1.0000
  C   C1273     1.0  0.67907  0.75168  0.42075  1.0000
  C   C1274     1.0  0.67057  0.73988  0.41362  1.0000
  C   C1275     1.0  0.65825  0.74838  0.39983  1.0000
  C   C1276     1.0  0.65433  0.76878  0.39309  1.0000
  C   C1277     1.0  0.66287  0.78058  0.40019  1.0000
  C   C1278     1.0  0.67521  0.77208  0.41394  1.0000
  H   H2061     1.0  0.67349  0.72410  0.41886  1.0000
  H   H2062     1.0  0.65177  0.73915  0.39447  1.0000
  H   H2063     1.0  0.65972  0.79638  0.39526  1.0000
  H   H2064     1.0  0.68155  0.78130  0.41945  1.0000
  H   H2065     1.0  0.68430  0.83698  0.47563  1.0000
  C   C1279     1.0  0.72082  0.84369  0.47000  1.0000
  H   H2066     1.0  0.59847  0.58379  0.34482  1.0000
  C   C1280     1.0  0.52638  0.71903  0.38875  1.0000
  C   C1281     1.0  0.54983  0.72776  0.40247  1.0000
  C   C1282     1.0  0.63810  0.82857  0.33707  1.0000
  Fe  Fe263     1.0  0.61656  0.76378  0.32296  1.0000
  H   H2067     1.0  0.57084  0.69187  0.39776  1.0000
  H   H2068     1.0  0.55267  0.76851  0.32914  1.0000
  H   H2069     1.0  0.72171  0.82134  0.38441  1.0000
  C   C1283     1.0  0.71633  0.78562  0.56209  1.0000
  C   C1284     1.0  0.70427  0.78467  0.54966  1.0000
  C   C1285     1.0  0.71263  0.77951  0.53131  1.0000
  N   N130      1.0  0.54744  0.71575  0.38955  1.0000
  S   S523      1.0  0.73727  0.78758  0.46846  1.0000
  H   H2070     1.0  0.70977  0.78964  0.57618  1.0000
  H   H2071     1.0  0.68842  0.78803  0.55424  1.0000
  H   H2072     1.0  0.73162  0.85192  0.47116  1.0000
  H   H2073     1.0  0.72482  0.82635  0.34818  1.0000
  H   H2074     1.0  0.63418  0.84138  0.34435  1.0000
  Fe  Fe264     1.0  0.71954  0.78195  0.64352  1.0000
  H   H2075     1.0  0.73010  0.83335  0.50594  1.0000
  H   H2076     1.0  0.68773  0.86670  0.48542  1.0000
  H   H2077     1.0  0.55371  0.73731  0.36333  1.0000
  C   C1286     1.0  0.74515  0.77620  0.53788  1.0000
  C   C1287     1.0  0.51190  0.77574  0.36482  1.0000
  S   S524      1.0  0.59213  0.74712  0.33482  1.0000
  S   S525      1.0  0.56686  0.65513  0.32817  1.0000
  C   C1288     1.0  0.60031  0.68545  0.35427  1.0000
  C   C1289     1.0  0.58503  0.65817  0.35615  1.0000
  C   C1290     1.0  0.57950  0.66710  0.33808  1.0000
  H   H2078     1.0  0.52403  0.71035  0.37899  1.0000
  H   H2079     1.0  0.68311  0.82373  0.50076  1.0000
  C   C1291     1.0  0.59438  0.69462  0.33639  1.0000
  C   C1292     1.0  0.53755  0.76927  0.33679  1.0000
  Fe  Fe265     1.0  0.73452  0.81957  0.62777  1.0000
  H   H2080     1.0  0.58143  0.64408  0.36387  1.0000
  C   C1293     1.0  0.55489  0.69470  0.39723  1.0000
  C   C1294     1.0  0.73158  0.80668  0.38374  1.0000
  S   S526      1.0  0.54881  0.77815  0.36714  1.0000
  C   C1295     1.0  0.50399  0.76670  0.33768  1.0000
  H   H2081     1.0  0.66341  0.85307  0.32215  1.0000
  H   H2082     1.0  0.66517  0.80515  0.35795  1.0000
  H   H2083     1.0  0.73931  0.80285  0.39627  1.0000
  H   H2084     1.0  0.55342  0.68526  0.38771  1.0000
  C   C1296     1.0  0.73313  0.77514  0.52553  1.0000
  C   C1297     1.0  0.52374  0.76546  0.32804  1.0000
  H   H2085     1.0  0.68652  0.85340  0.51041  1.0000
  H   H2086     1.0  0.54441  0.74375  0.39702  1.0000
  S   S527      1.0  0.73117  0.85159  0.62836  1.0000
  H   H2087     1.0  0.60024  0.66000  0.37787  1.0000
  H   H2088     1.0  0.56847  0.60940  0.33892  1.0000
  C   C1298     1.0  0.66970  0.81805  0.34700  1.0000
  H   H2089     1.0  0.59793  0.70865  0.32872  1.0000
  H   H2090     1.0  0.66620  0.83050  0.35474  1.0000
  S   S528      1.0  0.73505  0.77068  0.43053  1.0000
  H   H2091     1.0  0.65881  0.79290  0.33155  1.0000
  H   H2092     1.0  0.72214  0.79568  0.38640  1.0000
  H   H2093     1.0  0.54150  0.72379  0.41770  1.0000
  H   H2094     1.0  0.59184  0.56843  0.33217  1.0000
  H   H2095     1.0  0.63015  0.83256  0.32464  1.0000
  H   H2096     1.0  0.70094  0.81415  0.48154  1.0000
  H   H2097     1.0  0.73974  0.77103  0.51150  1.0000
  H   H2098     1.0  0.73699  0.86067  0.39915  1.0000
  C   C1299     1.0  0.71920  0.82591  0.50362  1.0000
  Fe  Fe266     1.0  0.74239  0.78960  0.60149  1.0000
  H   H2099     1.0  0.74134  0.98024  0.33898  1.0000
  H   H2100     1.0  0.49572  0.69753  0.33876  1.0000
  H   H2101     1.0  0.50724  0.77973  0.37908  1.0000
  H   H2102     1.0  0.52047  0.73483  0.38292  1.0000
  H   H2103     1.0  0.72749  0.81202  0.49883  1.0000
  H   H2104     1.0  0.61562  0.57500  0.32443  1.0000
  C   C1300     1.0  0.57057  0.60525  0.32449  1.0000
  C   C1301     1.0  0.50097  0.70655  0.32419  1.0000
  H   H2105     1.0  0.50136  0.72117  0.32662  1.0000
  H   H2106     1.0  0.67660  0.80654  0.65080  1.0000
  C   C1302     1.0  0.74547  0.83098  0.41481  1.0000
  H   H2107     1.0  0.51640  0.69944  0.31860  1.0000
  H   H2108     1.0  0.60587  0.73257  0.76488  1.0000
  H   H2109     1.0  0.66884  0.50833  0.91319  1.0000
  H   H2110     1.0  0.71979  0.88002  0.77313  1.0000
  Fe  Fe267     1.0  0.60478  0.80894  0.73275  1.0000
  S   S529      1.0  0.57454  0.82486  0.74470  1.0000
  S   S530      1.0  0.61774  0.82067  0.70121  1.0000
  Fe  Fe268     1.0  0.60750  0.77928  0.77124  1.0000
  S   S531      1.0  0.57765  0.79304  0.78592  1.0000
  S   S532      1.0  0.62431  0.75107  0.78670  1.0000
  Fe  Fe269     1.0  0.56820  0.79462  0.75801  1.0000
  S   S533      1.0  0.54353  0.77976  0.75895  1.0000
  Fe  Fe270     1.0  0.58734  0.82156  0.77129  1.0000
  S   S534      1.0  0.58198  0.84451  0.78937  1.0000
  S   S535      1.0  0.59758  0.77896  0.74407  1.0000
  S   S536      1.0  0.61803  0.80768  0.75843  1.0000
  Fe  Fe271     1.0  0.65682  0.90800  0.84660  1.0000
  S   S537      1.0  0.66975  0.88341  0.86895  1.0000
  S   S538      1.0  0.64343  0.93755  0.85518  1.0000
  Fe  Fe272     1.0  0.66008  0.88069  0.81899  1.0000
  S   S539      1.0  0.67307  0.85398  0.83931  1.0000
  S   S540      1.0  0.65653  0.87703  0.78980  1.0000
  Fe  Fe273     1.0  0.65046  0.86615  0.86317  1.0000
  S   S541      1.0  0.63195  0.84737  0.88680  1.0000
  Fe  Fe274     1.0  0.69132  0.87351  0.84308  1.0000
  S   S542      1.0  0.72255  0.85985  0.84631  1.0000
  S   S543      1.0  0.63578  0.89140  0.84254  1.0000
  S   S544      1.0  0.68017  0.89963  0.82090  1.0000
  Fe  Fe275     1.0  0.56330  0.65666  0.90013  1.0000
  S   S545      1.0  0.57391  0.67058  0.86873  1.0000
  S   S546      1.0  0.53265  0.65004  0.91221  1.0000
  Fe  Fe276     1.0  0.60057  0.65874  0.91296  1.0000
  S   S547      1.0  0.61366  0.67299  0.88269  1.0000
  S   S548      1.0  0.62040  0.65289  0.93472  1.0000
  Fe  Fe277     1.0  0.58347  0.69113  0.88173  1.0000
  S   S549      1.0  0.57692  0.72397  0.87207  1.0000
  Fe  Fe278     1.0  0.60306  0.65086  0.87289  1.0000
  S   S550      1.0  0.62438  0.63583  0.84993  1.0000
  S   S551      1.0  0.57097  0.67875  0.91286  1.0000
  S   S552      1.0  0.59192  0.63511  0.90336  1.0000
  S   S553      1.0  0.66348  0.74880  0.94875  1.0000
  C   C1303     1.0  0.73428  0.87374  0.65308  1.0000
  H   H2111     1.0  0.72208  0.74894  0.94932  1.0000
  S   S554      1.0  0.67001  0.79706  0.95901  1.0000
  C   C1304     1.0  0.64908  0.84618  0.72358  1.0000
  Fe  Fe279     1.0  0.69188  0.54221  0.88733  1.0000
  S   S555      1.0  0.69950  0.52717  0.91660  1.0000
  S   S556      1.0  0.65951  0.54810  0.88720  1.0000
  Fe  Fe280     1.0  0.72041  0.54768  0.91006  1.0000
  H   H2112     1.0  0.63679  0.97377  0.86800  1.0000
  H   H2113     1.0  0.68537  0.85176  0.76735  1.0000
  S   S557      1.0  0.71476  0.52173  0.87042  1.0000
  C   C1305     1.0  0.66827  0.80110  0.66509  1.0000
  C   C1306     1.0  0.67504  0.78231  0.67560  1.0000
  H   H2114     1.0  0.74447  0.84886  0.77198  1.0000
  C   C1307     1.0  0.57278  0.74115  0.79119  1.0000
  H   H2115     1.0  0.64875  0.66636  0.94787  1.0000
  H   H2116     1.0  0.63478  0.91694  0.91908  1.0000
  H   H2117     1.0  0.71035  0.83009  0.79822  1.0000
  C   C1308     1.0  0.51562  0.65452  0.89670  1.0000
  C   C1309     1.0  0.52142  0.65896  0.87627  1.0000
  C   C1310     1.0  0.72401  0.84289  0.66870  1.0000
  C   C1311     1.0  0.72264  0.79321  0.91794  1.0000
  H   H2118     1.0  0.73599  0.76696  0.94826  1.0000
  H   H2119     1.0  0.66925  0.76074  0.70218  1.0000
  H   H2120     1.0  0.53671  0.65909  0.86967  1.0000
  H   H2121     1.0  0.71723  0.85143  0.80110  1.0000
  C   C1312     1.0  0.63391  0.61112  0.85944  1.0000
  C   C1313     1.0  0.65401  0.60330  0.85388  1.0000
  C   C1314     1.0  0.66201  0.58391  0.86234  1.0000
  C   C1315     1.0  0.64982  0.57218  0.87598  1.0000
  C   C1316     1.0  0.62966  0.57986  0.88121  1.0000
  C   C1317     1.0  0.62175  0.59937  0.87310  1.0000
  H   H2122     1.0  0.66344  0.61235  0.84328  1.0000
  H   H2123     1.0  0.67755  0.57799  0.85809  1.0000
  H   H2124     1.0  0.62018  0.57083  0.89175  1.0000
  H   H2125     1.0  0.60619  0.60526  0.87726  1.0000
  C   C1318     1.0  0.61867  0.67396  0.94391  1.0000
  C   C1319     1.0  0.60105  0.68787  0.94570  1.0000
  C   C1320     1.0  0.59979  0.70477  0.95276  1.0000
  C   C1321     1.0  0.61626  0.70813  0.95769  1.0000
  C   C1322     1.0  0.63507  0.67705  0.94924  1.0000
  H   H2126     1.0  0.58821  0.68539  0.94209  1.0000
  H   H2127     1.0  0.73927  0.84834  0.74901  1.0000
  C   C1323     1.0  0.64351  0.83238  0.90589  1.0000
  C   C1324     1.0  0.63476  0.81733  0.91887  1.0000
  C   C1325     1.0  0.64314  0.80600  0.93494  1.0000
  C   C1326     1.0  0.65985  0.81024  0.93845  1.0000
  C   C1327     1.0  0.66859  0.82527  0.92547  1.0000
  C   C1328     1.0  0.66074  0.83597  0.90894  1.0000
  H   H2128     1.0  0.62141  0.81452  0.91657  1.0000
  H   H2129     1.0  0.63628  0.79446  0.94498  1.0000
  H   H2130     1.0  0.68144  0.82870  0.92820  1.0000
  H   H2131     1.0  0.66775  0.84733  0.89886  1.0000
  C   C1329     1.0  0.61288  0.74385  0.81129  1.0000
  C   C1330     1.0  0.59992  0.75768  0.82155  1.0000
  C   C1331     1.0  0.58892  0.75151  0.84023  1.0000
  C   C1332     1.0  0.59104  0.73147  0.84884  1.0000
  C   C1333     1.0  0.60458  0.71764  0.83896  1.0000
  C   C1334     1.0  0.61563  0.72385  0.82029  1.0000
  H   H2132     1.0  0.59850  0.77319  0.81518  1.0000
  H   H2133     1.0  0.57873  0.76231  0.84794  1.0000
  H   H2134     1.0  0.60646  0.70214  0.84558  1.0000
  H   H2135     1.0  0.62597  0.71309  0.81262  1.0000
  H   H2136     1.0  0.55285  0.73491  0.76706  1.0000
  Fe  Fe281     1.0  0.73476  0.54224  0.86809  1.0000
  C   C1335     1.0  0.52222  0.79291  0.74979  1.0000
  C   C1336     1.0  0.51953  0.81315  0.74205  1.0000
  H   H2137     1.0  0.70961  0.77299  0.95371  1.0000
  H   H2138     1.0  0.53027  0.82125  0.74239  1.0000
  H   H2139     1.0  0.53574  0.68876  0.88994  1.0000
  C   C1337     1.0  0.60306  0.85285  0.78968  1.0000
  C   C1338     1.0  0.61864  0.85354  0.77345  1.0000
  C   C1339     1.0  0.63497  0.86102  0.77362  1.0000
  C   C1340     1.0  0.63599  0.86745  0.79018  1.0000
  C   C1341     1.0  0.62058  0.86644  0.80654  1.0000
  C   C1342     1.0  0.60404  0.85941  0.80617  1.0000
  H   H2140     1.0  0.61775  0.84884  0.76060  1.0000
  H   H2141     1.0  0.64678  0.86196  0.76092  1.0000
  H   H2142     1.0  0.62121  0.87135  0.81936  1.0000
  H   H2143     1.0  0.59200  0.85896  0.81874  1.0000
  C   C1343     1.0  0.52514  0.71742  0.91027  1.0000
  C   C1344     1.0  0.56921  0.73070  0.76307  1.0000
  H   H2144     1.0  0.70984  0.80176  0.92675  1.0000
  C   C1345     1.0  0.64228  0.50395  0.89507  1.0000
  S   S558      1.0  0.71353  0.71233  0.94487  1.0000
  H   H2145     1.0  0.57487  0.69469  0.78637  1.0000
  H   H2146     1.0  0.66749  0.82042  0.70102  1.0000
  Fe  Fe282     1.0  0.72365  0.50772  0.89945  1.0000
  C   C1346     1.0  0.65038  0.81260  0.67281  1.0000
  C   C1347     1.0  0.63953  0.80561  0.69133  1.0000
  C   C1348     1.0  0.64648  0.78700  0.70200  1.0000
  C   C1349     1.0  0.66405  0.77527  0.69401  1.0000
  H   H2147     1.0  0.67949  0.60347  0.88405  1.0000
  C   C1350     1.0  0.56067  0.83653  0.69712  1.0000
  H   H2148     1.0  0.63832  0.78153  0.71635  1.0000
  C   C1351     1.0  0.57796  0.81854  0.67159  1.0000
  C   C1352     1.0  0.69197  0.96133  0.84398  1.0000
  C   C1353     1.0  0.67955  0.94842  0.84539  1.0000
  C   C1354     1.0  0.65958  0.95299  0.85385  1.0000
  H   H2149     1.0  0.63973  0.83601  0.72320  1.0000
  S   S559      1.0  0.69681  0.76709  0.66592  1.0000
  H   H2150     1.0  0.70742  0.95764  0.83748  1.0000
  H   H2151     1.0  0.68542  0.93495  0.83989  1.0000
  N   N131      1.0  0.57823  0.72472  0.78066  1.0000
  N   N132      1.0  0.61862  0.89935  0.91129  1.0000
  C   C1355     1.0  0.63012  0.88046  0.92023  1.0000
  C   C1356     1.0  0.60042  0.90508  0.92542  1.0000
  C   C1357     1.0  0.61342  0.89708  0.89342  1.0000
  C   C1358     1.0  0.63055  0.91475  0.90600  1.0000
  H   H2152     1.0  0.64414  0.87599  0.91005  1.0000
  H   H2153     1.0  0.62190  0.86829  0.92368  1.0000
  H   H2154     1.0  0.63398  0.88134  0.93403  1.0000
  H   H2155     1.0  0.59135  0.91922  0.91904  1.0000
  C   C1359     1.0  0.66455  0.98340  0.85957  1.0000
  H   H2156     1.0  0.60379  0.90697  0.93909  1.0000
  H   H2157     1.0  0.60433  0.88565  0.89675  1.0000
  H   H2158     1.0  0.62684  0.89231  0.88277  1.0000
  H   H2159     1.0  0.60525  0.91114  0.88582  1.0000
  H   H2160     1.0  0.62248  0.92915  0.89887  1.0000
  H   H2161     1.0  0.64439  0.91087  0.89529  1.0000
  H   H2162     1.0  0.64232  0.84925  0.68777  1.0000
  H   H2163     1.0  0.65704  0.83918  0.73589  1.0000
  H   H2164     1.0  0.72082  0.98698  0.80969  1.0000
  C   C1360     1.0  0.50745  0.66303  0.86430  1.0000
  C   C1361     1.0  0.67476  0.86403  0.70561  1.0000
  H   H2165     1.0  0.53104  0.70302  0.91928  1.0000
  H   H2166     1.0  0.54106  0.71111  0.87371  1.0000
  H   H2167     1.0  0.53785  0.72471  0.90275  1.0000
  H   H2168     1.0  0.73623  0.79615  0.92057  1.0000
  C   C1362     1.0  0.74297  0.58078  0.94685  1.0000
  H   H2169     1.0  0.57831  0.73689  0.80515  1.0000
  H   H2170     1.0  0.64677  0.69678  0.95949  1.0000
  H   H2171     1.0  0.68485  0.86791  0.69131  1.0000
  C   C1363     1.0  0.72720  0.69451  0.96067  1.0000
  H   H2172     1.0  0.64065  0.49408  0.93411  1.0000
  C   C1364     1.0  0.65161  0.85916  0.68878  1.0000
  C   C1365     1.0  0.68448  0.97891  0.85091  1.0000
  N   N133      1.0  0.51480  0.71471  0.89597  1.0000
  C   C1366     1.0  0.72961  0.63249  0.96675  1.0000
  H   H2173     1.0  0.68403  0.85762  0.71695  1.0000
  H   H2174     1.0  0.53834  0.82954  0.67561  1.0000
  H   H2175     1.0  0.69073  0.77691  0.92788  1.0000
  H   H2176     1.0  0.70134  0.61662  0.96177  1.0000
  H   H2177     1.0  0.70313  0.82916  0.76651  1.0000
  N   N134      1.0  0.72224  0.77198  0.92344  1.0000
  H   H2178     1.0  0.54536  0.80312  0.68114  1.0000
  H   H2179     1.0  0.55476  0.71075  0.79876  1.0000
  C   C1367     1.0  0.50275  0.82295  0.73402  1.0000
  H   H2180     1.0  0.68566  0.83379  0.68578  1.0000
  Fe  Fe283     1.0  0.64144  0.73491  0.97271  1.0000
  H   H2181     1.0  0.60460  0.70746  0.76646  1.0000
  H   H2182     1.0  0.63691  0.51676  0.90246  1.0000
  C   C1368     1.0  0.70828  0.84636  0.79347  1.0000
  S   S560      1.0  0.71941  0.56798  0.93006  1.0000
  C   C1369     1.0  0.74090  0.56549  0.93908  1.0000
  H   H2183     1.0  0.72579  0.64809  0.95902  1.0000
  H   H2184     1.0  0.57145  0.78696  0.70042  1.0000
  S   S561      1.0  0.61457  0.73051  0.96453  1.0000
  H   H2185     1.0  0.57771  0.70255  0.80719  1.0000
  H   H2186     1.0  0.66527  0.87803  0.70925  1.0000
  H   H2187     1.0  0.70489  0.84986  0.74634  1.0000
  S   S562      1.0  0.71078  0.56429  0.88198  1.0000
  H   H2188     1.0  0.70330  0.77418  0.90355  1.0000
  C   C1370     1.0  0.49708  0.61029  0.85905  1.0000
  H   H2189     1.0  0.73171  0.59400  0.94658  1.0000
  H   H2190     1.0  0.50406  0.60566  0.84483  1.0000
  N   N135      1.0  0.66289  0.85023  0.70465  1.0000
  H   H2191     1.0  0.63896  0.85992  0.72721  1.0000
  H   H2192     1.0  0.72555  0.88579  0.80755  1.0000
  S   S563      1.0  0.72821  0.86741  0.71186  1.0000
  C   C1371     1.0  0.56984  0.80109  0.70500  1.0000
  N   N136      1.0  0.71373  0.85247  0.77191  1.0000
  C   C1372     1.0  0.72252  0.76490  0.94460  1.0000
  C   C1373     1.0  0.71064  0.87419  0.76638  1.0000
  C   C1374     1.0  0.70125  0.84546  0.76260  1.0000
  C   C1375     1.0  0.72894  0.86340  0.68858  1.0000
  N   N137      1.0  0.56311  0.81822  0.69006  1.0000
  H   H2193     1.0  0.72194  0.79925  0.90217  1.0000
  H   H2194     1.0  0.58440  0.80158  0.70758  1.0000
  H   H2195     1.0  0.73463  0.62321  0.95549  1.0000
  H   H2196     1.0  0.71968  0.83567  0.70027  1.0000
  H   H2197     1.0  0.73954  0.74478  0.91593  1.0000
  C   C1376     1.0  0.50634  0.73415  0.88500  1.0000
  C   C1377     1.0  0.54405  0.81671  0.68659  1.0000
  C   C1378     1.0  0.73960  0.76087  0.91197  1.0000
  H   H2198     1.0  0.50987  0.76698  0.75584  1.0000
  H   H2199     1.0  0.64161  0.87330  0.69131  1.0000
  H   H2200     1.0  0.57479  0.83807  0.69995  1.0000
  C   C1379     1.0  0.74101  0.86031  0.82499  1.0000
  H   H2201     1.0  0.69258  0.85264  0.79890  1.0000
  H   H2202     1.0  0.57436  0.74379  0.75294  1.0000
  H   H2203     1.0  0.57290  0.71868  0.75474  1.0000
  H   H2204     1.0  0.57910  0.75397  0.78214  1.0000
  C   C1380     1.0  0.67603  0.83158  0.70059  1.0000
  C   C1381     1.0  0.63394  0.69423  0.95592  1.0000
  H   H2205     1.0  0.71444  0.87932  0.75018  1.0000
  Fe  Fe284     1.0  0.68595  0.72616  0.96338  1.0000
  H   H2206     1.0  0.73793  0.89052  0.67261  1.0000
  C   C1382     1.0  0.72007  0.69159  0.98094  1.0000
  C   C1383     1.0  0.52892  0.70335  0.88206  1.0000
  H   H2207     1.0  0.50705  0.60296  0.86963  1.0000
  C   C1384     1.0  0.72375  0.84633  0.68714  1.0000
  H   H2208     1.0  0.68565  0.82500  0.71158  1.0000
  H   H2209     1.0  0.64504  0.82695  0.66442  1.0000
  H   H2210     1.0  0.69504  0.88121  0.77126  1.0000
  C   C1385     1.0  0.59989  0.71971  0.77457  1.0000
  H   H2211     1.0  0.71960  0.82993  0.66776  1.0000
  C   C1386     1.0  0.57105  0.70740  0.79382  1.0000
  C   C1387     1.0  0.65216  0.97040  0.86112  1.0000
  C   C1388     1.0  0.74481  0.68267  0.95311  1.0000
  H   H2212     1.0  0.51210  0.66637  0.84849  1.0000
  H   H2213     1.0  0.55929  0.80063  0.71931  1.0000
  Fe  Fe285     1.0  0.66400  0.76641  0.97022  1.0000
  H   H2214     1.0  0.59118  0.89369  0.92969  1.0000
  H   H2215     1.0  0.54959  0.83679  0.71107  1.0000
  H   H2216     1.0  0.55652  0.74637  0.79476  1.0000
  H   H2217     1.0  0.66157  0.86214  0.67421  1.0000
  H   H2218     1.0  0.72437  0.59546  0.98300  1.0000
  H   H2219     1.0  0.58035  0.80486  0.66592  1.0000
  H   H2220     1.0  0.60721  0.71517  0.78745  1.0000
  H   H2221     1.0  0.53262  0.81617  0.70034  1.0000
  N   N138      1.0  0.66401  0.60576  0.91339  1.0000
  C   C1389     1.0  0.64522  0.61595  0.90711  1.0000
  C   C1390     1.0  0.66432  0.58441  0.91980  1.0000
  C   C1391     1.0  0.66591  0.61358  0.92987  1.0000
  C   C1392     1.0  0.68059  0.60909  0.89678  1.0000
  H   H2222     1.0  0.64456  0.63208  0.90191  1.0000
  H   H2223     1.0  0.63236  0.61402  0.91934  1.0000
  H   H2224     1.0  0.64320  0.61027  0.89489  1.0000
  H   H2225     1.0  0.65185  0.58131  0.93212  1.0000
  H   H2226     1.0  0.66318  0.57800  0.90762  1.0000
  H   H2227     1.0  0.67826  0.57627  0.92477  1.0000
  H   H2228     1.0  0.65348  0.61143  0.94257  1.0000
  H   H2229     1.0  0.66556  0.62970  0.92552  1.0000
  H   H2230     1.0  0.67994  0.60614  0.93498  1.0000
  H   H2231     1.0  0.69502  0.60143  0.90099  1.0000
  H   H2232     1.0  0.68087  0.62504  0.89157  1.0000
  N   N139      1.0  0.61924  0.74175  0.89850  1.0000
  C   C1393     1.0  0.59943  0.74005  0.91036  1.0000
  C   C1394     1.0  0.63429  0.72703  0.90818  1.0000
  C   C1395     1.0  0.62254  0.76173  0.89676  1.0000
  C   C1396     1.0  0.62063  0.73818  0.87874  1.0000
  H   H2233     1.0  0.58769  0.75085  0.90342  1.0000
  H   H2234     1.0  0.59787  0.74268  0.92539  1.0000
  H   H2235     1.0  0.59646  0.72513  0.91200  1.0000
  H   H2236     1.0  0.64938  0.72728  0.89925  1.0000
  H   H2237     1.0  0.63421  0.72990  0.92275  1.0000
  H   H2238     1.0  0.63164  0.71183  0.91071  1.0000
  H   H2239     1.0  0.61146  0.77324  0.88949  1.0000
  H   H2240     1.0  0.63739  0.76355  0.88797  1.0000
  H   H2241     1.0  0.62148  0.76488  0.91148  1.0000
  H   H2242     1.0  0.63536  0.73930  0.86929  1.0000
  H   H2243     1.0  0.60944  0.74905  0.87106  1.0000
  H   H2244     1.0  0.61802  0.72327  0.87957  1.0000
  C   C1397     1.0  0.50791  0.78262  0.74984  1.0000
  H   H2245     1.0  0.52162  0.70066  0.87124  1.0000
  H   H2246     1.0  0.58603  0.71535  0.95432  1.0000
  C   C1398     1.0  0.73873  0.87441  0.80775  1.0000
  H   H2247     1.0  0.50489  0.68924  0.91515  1.0000
  H   H2248     1.0  0.64988  0.50962  0.87988  1.0000
  H   H2249     1.0  0.70333  0.75299  0.92334  1.0000
  H   H2250     1.0  0.62919  0.49887  0.89397  1.0000
  H   H2251     1.0  0.73754  0.82753  0.76906  1.0000
  H   H2252     1.0  0.59250  0.81970  0.67381  1.0000
  C   C1399     1.0  0.70412  0.76886  0.91934  1.0000
  H   H2253     1.0  0.51806  0.74262  0.87694  1.0000
  H   H2254     1.0  0.57342  0.83127  0.65994  1.0000
  C   C1400     1.0  0.73467  0.84388  0.76521  1.0000
  H   H2255     1.0  0.50068  0.83860  0.72800  1.0000
  H   H2256     1.0  0.49854  0.73259  0.87401  1.0000
  C   C1401     1.0  0.67314  0.49536  0.90609  1.0000
  H   H2257     1.0  0.55565  0.84979  0.68620  1.0000
  C   C1402     1.0  0.73418  0.87715  0.67155  1.0000
  S   S564      1.0  0.73776  0.79624  0.65483  1.0000
  H   H2258     1.0  0.73987  0.76579  0.89592  1.0000
  H   H2259     1.0  0.51513  0.72655  0.92059  1.0000
  H   H2260     1.0  0.74249  0.63114  0.97342  1.0000
  H   H2261     1.0  0.68141  0.50006  0.89098  1.0000
  C   C1403     1.0  0.49891  0.70386  0.90649  1.0000
  H   H2262     1.0  0.49635  0.62644  0.85653  1.0000
  N   N140      1.0  0.71280  0.62643  0.98182  1.0000
  C   C1404     1.0  0.69663  0.62688  0.97217  1.0000
  H   H2263     1.0  0.69162  0.64193  0.96373  1.0000
  H   H2264     1.0  0.68364  0.62250  0.98312  1.0000
  S   S565      1.0  0.68815  0.74459  0.98327  1.0000
  S   S566      1.0  0.74569  0.52675  0.89588  1.0000
  C   C1405     1.0  0.72952  0.85642  0.65161  1.0000
  C   C1406     1.0  0.49573  0.65406  0.90504  1.0000
  H   H2265     1.0  0.79916  0.34512  0.17457  1.0000
  H   H2266     1.0  0.78955  0.28280  0.22166  1.0000
  H   H2267     1.0  0.76435  0.07503  0.21174  1.0000
  H   H2268     1.0  0.74960  0.44761  0.31635  1.0000
  H   H2269     1.0  0.77240  0.46639  0.29127  1.0000
  H   H2270     1.0  0.79961  0.05844  0.20794  1.0000
  H   H2271     1.0  0.75056  0.07502  0.19406  1.0000
  C   C1407     1.0  0.85465  0.33183  0.30032  1.0000
  C   C1408     1.0  0.84190  0.11012  0.27505  1.0000
  C   C1409     1.0  0.75306  0.34190  0.15456  1.0000
  Fe  Fe286     1.0  0.91864  0.27131  0.24508  1.0000
  S   S567      1.0  0.94152  0.26640  0.21818  1.0000
  S   S568      1.0  0.90156  0.24908  0.26484  1.0000
  Fe  Fe287     1.0  0.92103  0.31398  0.23923  1.0000
  S   S569      1.0  0.94404  0.31323  0.21162  1.0000
  S   S570      1.0  0.90901  0.34077  0.25260  1.0000
  Fe  Fe288     1.0  0.92572  0.29581  0.20406  1.0000
  S   S571      1.0  0.91566  0.30349  0.17521  1.0000
  Fe  Fe289     1.0  0.95787  0.28406  0.22815  1.0000
  S   S572      1.0  0.90153  0.29934  0.23024  1.0000
  S   S573      1.0  0.93618  0.28623  0.25644  1.0000
  Fe  Fe290     1.0  0.83199  0.26817  0.10700  1.0000
  S   S574      1.0  0.83882  0.23825  0.12605  1.0000
  S   S575      1.0  0.84454  0.27096  0.07454  1.0000
  Fe  Fe291     1.0  0.81396  0.28751  0.14253  1.0000
  S   S576      1.0  0.81950  0.25895  0.16396  1.0000
  C   C1410     1.0  0.78875  0.20390  0.03223  1.0000
  Fe  Fe292     1.0  0.84896  0.25373  0.14418  1.0000
  S   S577      1.0  0.87693  0.24180  0.15619  1.0000
  Fe  Fe293     1.0  0.80860  0.24687  0.14357  1.0000
  S   S578      1.0  0.78812  0.22549  0.15554  1.0000
  S   S579      1.0  0.84424  0.28307  0.12391  1.0000
  S   S580      1.0  0.80089  0.27603  0.12335  1.0000
  H   H2272     1.0  0.78175  0.35542  0.28741  1.0000
  C   C1411     1.0  0.79204  0.29630  0.21141  1.0000
  H   H2273     1.0  0.83634  0.25949  0.24727  1.0000
  H   H2274     1.0  0.83449  0.25568  0.01537  1.0000
  C   C1412     1.0  0.77297  0.45666  0.28116  1.0000
  H   H2275     1.0  0.94362  0.23985  0.26288  1.0000
  H   H2276     1.0  0.80913  0.36769  0.23590  1.0000
  H   H2277     1.0  0.79180  0.04680  0.16314  1.0000
  C   C1413     1.0  0.96933  0.34243  0.27799  1.0000
  H   H2278     1.0  0.82257  0.14766  0.26776  1.0000
  C   C1414     1.0  0.90486  0.28613  0.17045  1.0000
  C   C1415     1.0  0.91135  0.26591  0.17678  1.0000
  C   C1416     1.0  0.90277  0.25237  0.17226  1.0000
  C   C1417     1.0  0.88734  0.25901  0.16187  1.0000
  C   C1418     1.0  0.88048  0.27925  0.15610  1.0000
  C   C1419     1.0  0.88953  0.29274  0.15995  1.0000
  H   H2279     1.0  0.92327  0.26069  0.18479  1.0000
  H   H2280     1.0  0.90810  0.23674  0.17688  1.0000
  H   H2281     1.0  0.86834  0.28461  0.14852  1.0000
  H   H2282     1.0  0.88440  0.30838  0.15510  1.0000
  H   H2283     1.0  0.76333  0.42554  0.30825  1.0000
  H   H2284     1.0  0.81150  0.10305  0.30410  1.0000
  H   H2285     1.0  0.79286  0.35058  0.24441  1.0000
  S   S581      1.0  0.79221  0.25880  0.02080  1.0000
  H   H2286     1.0  0.80190  0.04705  0.28936  1.0000
  H   H2287     1.0  0.76459  0.22994  0.05286  1.0000
  Fe  Fe294     1.0  0.75536  0.33158  0.24994  1.0000
  H   H2288     1.0  0.76623  0.05823  0.16621  1.0000
  H   H2289     1.0  0.76903  0.08955  0.18720  1.0000
  C   C1420     1.0  0.87732  0.35269  0.28041  1.0000
  C   C1421     1.0  0.88839  0.33717  0.27129  1.0000
  C   C1422     1.0  0.88279  0.31890  0.27699  1.0000
  H   H2290     1.0  0.76554  0.18316  0.02543  1.0000
  H   H2291     1.0  0.99465  0.19626  0.30375  1.0000
  H   H2292     1.0  0.88164  0.36684  0.27607  1.0000
  H   H2293     1.0  0.89142  0.30674  0.27029  1.0000
  H   H2294     1.0  0.97742  0.30233  0.28648  1.0000
  H   H2295     1.0  0.76591  0.34648  0.15700  1.0000
  H   H2296     1.0  0.84243  0.28151  0.24954  1.0000
  C   C1423     1.0  0.77739  0.23589  0.11957  1.0000
  H   H2297     1.0  0.74761  0.01152  0.30177  1.0000
  H   H2298     1.0  0.95902  0.35696  0.27784  1.0000
  H   H2299     1.0  0.78507  0.29957  0.02113  1.0000
  H   H2300     1.0  0.87160  0.24731  0.23319  1.0000
  H   H2301     1.0  0.78682  0.24643  0.11558  1.0000
  H   H2302     1.0  0.79615  0.20845  0.04182  1.0000
  H   H2303     1.0  0.75995  0.03846  0.19944  1.0000
  H   H2304     1.0  0.82357  0.28314  0.23632  1.0000
  C   C1424     1.0  0.81770  0.13708  0.26189  1.0000
  H   H2305     1.0  0.79823  0.02247  0.27232  1.0000
  C   C1425     1.0  0.82081  0.46070  0.31372  1.0000
  H   H2306     1.0  0.98587  0.31585  0.21572  1.0000
  H   H2307     1.0  0.93125  0.33972  0.28359  1.0000
  H   H2308     1.0  0.79082  0.21402  0.01769  1.0000
  C   C1426     1.0  0.93693  0.23000  0.27537  1.0000
  C   C1427     1.0  0.75352  0.05309  0.27115  1.0000
  H   H2309     1.0  0.80432  0.07306  0.18353  1.0000
  H   H2310     1.0  0.81114  0.04666  0.18749  1.0000
  S   S582      1.0  0.74936  0.35420  0.26822  1.0000
  C   C1428     1.0  0.80719  0.26047  0.03621  1.0000
  C   C1429     1.0  0.79838  0.26453  0.05488  1.0000
  C   C1430     1.0  0.80982  0.26718  0.06700  1.0000
  C   C1431     1.0  0.83007  0.26625  0.06029  1.0000
  C   C1432     1.0  0.83887  0.26215  0.04160  1.0000
  C   C1433     1.0  0.82752  0.25898  0.02969  1.0000
  H   H2311     1.0  0.78267  0.26568  0.06000  1.0000
  H   H2312     1.0  0.80291  0.27031  0.08138  1.0000
  H   H2313     1.0  0.85454  0.26131  0.03637  1.0000
  C   C1434     1.0  0.77608  0.22315  0.13794  1.0000
  H   H2314     1.0  0.83110  0.48726  0.31030  1.0000
  C   C1435     1.0  0.78074  0.05919  0.16859  1.0000
  H   H2315     1.0  0.75876  0.32741  0.15006  1.0000
  C   C1436     1.0  0.75846  0.19845  0.02744  1.0000
  H   H2316     1.0  0.88412  0.26248  0.21239  1.0000
  N   N141      1.0  0.96144  0.32886  0.27094  1.0000
  C   C1437     1.0  0.75341  0.20805  0.12921  1.0000
  H   H2317     1.0  0.76800  0.42366  0.27314  1.0000
  N   N142      1.0  0.80858  0.35201  0.26580  1.0000
  S   S583      1.0  0.82850  0.21927  0.99248  1.0000
  H   H2318     1.0  0.74770  0.35276  0.14196  1.0000
  C   C1438     1.0  0.75093  0.43826  0.30566  1.0000
  C   C1439     1.0  0.79103  0.31312  0.21840  1.0000
  S   S584      1.0  0.78527  0.31238  0.24372  1.0000
  C   C1440     1.0  0.78846  0.04887  0.28416  1.0000
  N   N143      1.0  0.79617  0.31592  0.99269  1.0000
  C   C1441     1.0  0.94239  0.32569  0.28380  1.0000
  C   C1442     1.0  0.76625  0.23518  0.10632  1.0000
  H   H2319     1.0  0.79656  0.18886  0.02998  1.0000
  C   C1443     1.0  0.79968  0.05917  0.19222  1.0000
  H   H2320     1.0  0.78833  0.33248  0.27906  1.0000
  H   H2321     1.0  0.78615  0.37353  0.25243  1.0000
  H   H2322     1.0  0.85113  0.10947  0.26019  1.0000
  H   H2323     1.0  0.82752  0.37288  0.25917  1.0000
  C   C1444     1.0  0.79434  0.34375  0.28269  1.0000
  H   H2324     1.0  0.79317  0.12264  0.29464  1.0000
  C   C1445     1.0  0.97556  0.30982  0.27128  1.0000
  H   H2325     1.0  0.77189  0.19534  0.07051  1.0000
  N   N144      1.0  0.90198  0.25801  0.09444  1.0000
  C   C1446     1.0  0.90502  0.26736  0.10932  1.0000
  C   C1447     1.0  0.89200  0.27318  0.07990  1.0000
  C   C1448     1.0  0.88959  0.24326  0.10419  1.0000
  C   C1449     1.0  0.92120  0.24820  0.08443  1.0000
  H   H2326     1.0  0.91177  0.25624  0.12102  1.0000
  H   H2327     1.0  0.89078  0.27525  0.11678  1.0000
  H   H2328     1.0  0.91470  0.27826  0.10269  1.0000
  H   H2329     1.0  0.88913  0.26661  0.06862  1.0000
  H   H2330     1.0  0.87740  0.28081  0.08701  1.0000
  H   H2331     1.0  0.90087  0.28460  0.07218  1.0000
  H   H2332     1.0  0.88630  0.23632  0.09344  1.0000
  H   H2333     1.0  0.87528  0.25018  0.11227  1.0000
  H   H2334     1.0  0.89664  0.23142  0.11519  1.0000
  H   H2335     1.0  0.93092  0.25892  0.07684  1.0000
  H   H2336     1.0  0.91934  0.24090  0.07321  1.0000
  H   H2337     1.0  0.92906  0.23671  0.09508  1.0000
  N   N145      1.0  0.85319  0.27418  0.22102  1.0000
  C   C1450     1.0  0.84709  0.26478  0.20799  1.0000
  C   C1451     1.0  0.85513  0.29452  0.21097  1.0000
  C   C1452     1.0  0.87233  0.26282  0.22579  1.0000
  C   C1453     1.0  0.83821  0.27461  0.23934  1.0000
  H   H2338     1.0  0.84543  0.24942  0.21506  1.0000
  H   H2339     1.0  0.85814  0.26409  0.19412  1.0000
  H   H2340     1.0  0.83282  0.27308  0.20387  1.0000
  H   H2341     1.0  0.85970  0.30208  0.22038  1.0000
  H   H2342     1.0  0.86650  0.29471  0.19721  1.0000
  H   H2343     1.0  0.84100  0.30347  0.20693  1.0000
  H   H2344     1.0  0.87723  0.26931  0.23586  1.0000
  C   C1454     1.0  0.79815  0.31465  0.17779  1.0000
  H   H2345     1.0  0.77113  0.32400  0.01498  1.0000
  C   C1455     1.0  0.76427  0.20904  0.14265  1.0000
  C   C1456     1.0  0.78636  0.03497  0.27454  1.0000
  C   C1457     1.0  0.75582  0.06728  0.28030  1.0000
  C   C1458     1.0  0.79534  0.29715  0.19115  1.0000
  H   H2346     1.0  0.81985  0.32472  0.25582  1.0000
  H   H2347     1.0  0.76700  0.24538  0.09230  1.0000
  H   H2348     1.0  0.93604  0.31552  0.27888  1.0000
  H   H2349     1.0  0.82234  0.10265  0.25096  1.0000
  H   H2350     1.0  0.78441  0.07324  0.15919  1.0000
  H   H2351     1.0  0.77600  0.46541  0.26593  1.0000
  C   C1459     1.0  0.91985  0.20418  0.30759  1.0000
  H   H2352     1.0  0.81394  0.46615  0.30102  1.0000
  S   S585      1.0  0.83268  0.32854  0.31708  1.0000
  H   H2353     1.0  0.89223  0.21937  0.29898  1.0000
  C   C1460     1.0  0.94880  0.21563  0.28713  1.0000
  H   H2354     1.0  0.76001  0.20816  0.01260  1.0000
  C   C1461     1.0  0.77312  0.06497  0.28716  1.0000
  N   N146      1.0  0.75439  0.44953  0.28523  1.0000
  H   H2355     1.0  0.81611  0.08838  0.27525  1.0000
  H   H2356     1.0  0.74943  0.03050  0.31302  1.0000
  H   H2357     1.0  0.80186  0.14282  0.26113  1.0000
  H   H2358     1.0  0.78580  0.44427  0.28307  1.0000
  H   H2359     1.0  0.76523  0.16654  0.98715  1.0000
  C   C1462     1.0  0.81614  0.36687  0.27127  1.0000
  H   H2360     1.0  0.75592  0.09692  0.00986  1.0000
  C   C1463     1.0  0.94027  0.20269  0.30325  1.0000
  C   C1464     1.0  0.81408  0.10355  0.26612  1.0000
  H   H2361     1.0  0.85180  0.36215  0.30169  1.0000
  C   C1465     1.0  0.95847  0.33757  0.25064  1.0000
  C   C1466     1.0  0.76543  0.07523  0.19594  1.0000
  N   N147      1.0  0.82075  0.11714  0.27434  1.0000
  C   C1467     1.0  0.91652  0.23130  0.27957  1.0000
  Fe  Fe295     1.0  0.80732  0.24809  0.99286  1.0000
  C   C1468     1.0  0.86046  0.35002  0.29495  1.0000
  H   H2362     1.0  0.74949  0.19145  0.06658  1.0000
  C   C1469     1.0  0.77450  0.03975  0.20143  1.0000
  H   H2363     1.0  0.79253  0.34387  0.21043  1.0000
  H   H2364     1.0  0.80135  0.33644  0.29562  1.0000
  S   S586      1.0  0.98999  0.27352  0.23036  1.0000
  N   N148      1.0  0.76761  0.20460  0.04066  1.0000
  H   H2365     1.0  0.77232  0.17562  0.05883  1.0000
  H   H2366     1.0  0.83648  0.34163  0.24806  1.0000
  C   C1470     1.0  0.79877  0.36138  0.24890  1.0000
  C   C1471     1.0  0.76873  0.03682  0.26844  1.0000
  H   H2367     1.0  0.77341  0.03876  0.21739  1.0000
  H   H2368     1.0  0.82303  0.36044  0.28437  1.0000
  H   H2369     1.0  0.94728  0.35157  0.24993  1.0000
  H   H2370     1.0  0.76342  0.19898  0.15675  1.0000
  H   H2371     1.0  0.81391  0.12782  0.30124  1.0000
  S   S587      1.0  0.82824  0.06023  0.31086  1.0000
  H   H2372     1.0  0.83248  0.32829  0.27299  1.0000
  C   C1472     1.0  0.78631  0.31492  0.01352  1.0000
  C   C1473     1.0  0.76532  0.19113  0.06000  1.0000
  H   H2373     1.0  0.97065  0.29957  0.26497  1.0000
  H   H2374     1.0  0.79808  0.10824  0.26571  1.0000
  C   C1474     1.0  0.82509  0.33597  0.26038  1.0000
  C   C1475     1.0  0.86591  0.31626  0.29142  1.0000
  C   C1476     1.0  0.80927  0.11782  0.29441  1.0000
  H   H2375     1.0  0.84473  0.09511  0.28441  1.0000
  C   C1477     1.0  0.75412  0.22141  0.11120  1.0000
  H   H2376     1.0  0.86153  0.30214  0.29557  1.0000
  H   H2377     1.0  0.94393  0.31929  0.29928  1.0000
  C   C1478     1.0  0.79725  0.33146  0.18482  1.0000
  H   H2378     1.0  0.79484  0.28447  0.18599  1.0000
  H   H2379     1.0  0.97233  0.34086  0.24064  1.0000
  H   H2380     1.0  0.80412  0.37941  0.27498  1.0000
  C   C1479     1.0  0.79356  0.33074  0.20511  1.0000
  H   H2381     1.0  0.84733  0.11984  0.28155  1.0000
  S   S588      1.0  0.76546  0.01800  0.25873  1.0000
  H   H2382     1.0  0.96458  0.21451  0.28363  1.0000
  C   C1480     1.0  0.75788  0.22488  0.04303  1.0000
  S   S589      1.0  0.80118  0.31629  0.15242  1.0000
  H   H2383     1.0  0.82614  0.13715  0.24661  1.0000
  S   S590      1.0  0.77521  0.08187  0.30003  1.0000
  H   H2384     1.0  0.78538  0.02666  0.19724  1.0000
  H   H2385     1.0  0.95311  0.32747  0.24460  1.0000
  C   C1481     1.0  0.74674  0.09273  0.00170  1.0000
  N   N149      1.0  0.78010  0.05833  0.18954  1.0000
  C   C1482     1.0  0.90800  0.21837  0.29567  1.0000
  H   H2386     1.0  0.79466  0.32013  0.02173  1.0000
  C   C1483     1.0  0.74648  0.01534  0.31618  1.0000
  H   H2387     1.0  0.97178  0.33635  0.29326  1.0000
  H   H2388     1.0  0.74643  0.34273  0.30875  1.0000
  H   H2389     1.0  0.78278  0.99844  0.30147  1.0000
  H   H2390     1.0  0.78483  0.01581  0.31481  1.0000
  H   H2391     1.0  0.75122  0.31114  0.18444  1.0000
  H   H2392     1.0  0.80580  0.34267  0.99035  1.0000
  H   H2393     1.0  0.78354  0.29290  0.98953  1.0000
  H   H2394     1.0  0.98370  0.34515  0.26854  1.0000
  H   H2395     1.0  0.75748  0.33008  0.19243  1.0000
  H   H2396     1.0  0.75926  0.23550  0.02871  1.0000
  H   H2397     1.0  0.81590  0.28802  0.99806  1.0000
  H   H2398     1.0  0.75843  0.44477  0.25597  1.0000
  C   C1484     1.0  0.75578  0.43670  0.27153  1.0000
  C   C1485     1.0  0.81629  0.30376  0.99153  1.0000
  H   H2399     1.0  0.99037  0.31181  0.26254  1.0000
  C   C1486     1.0  0.78081  0.00138  0.31642  1.0000
  H   H2400     1.0  0.82512  0.30847  0.99965  1.0000
  S   S591      1.0  0.80674  0.42745  0.31808  1.0000
  S   S592      1.0  0.79566  0.18642  0.98570  1.0000
  H   H2401     1.0  0.75630  0.08957  0.98759  1.0000
  S   S593      1.0  0.95541  0.18481  0.31779  1.0000
  H   H2402     1.0  0.77552  0.18998  0.43241  1.0000
  C   C1487     1.0  0.88344  0.24078  0.55096  1.0000
  C   C1488     1.0  0.76057  0.11725  0.64011  1.0000
  H   H2403     1.0  0.96673  0.17954  0.39098  1.0000
  Fe  Fe296     1.0  0.82137  0.26204  0.62081  1.0000
  C   C1489     1.0  0.76445  0.07864  0.42069  1.0000
  S   S594      1.0  0.81477  0.27814  0.59108  1.0000
  H   H2404     1.0  0.82162  0.31390  0.39385  1.0000
  H   H2405     1.0  0.87221  0.24405  0.54161  1.0000
  H   H2406     1.0  0.75385  0.23715  0.46398  1.0000
  H   H2407     1.0  0.79188  0.10589  0.63478  1.0000
  H   H2408     1.0  0.75018  0.09907  0.43985  1.0000
  H   H2409     1.0  0.85471  0.31061  0.40119  1.0000
  C   C1490     1.0  0.87371  0.11723  0.33126  1.0000
  H   H2410     1.0  0.75781  0.24773  0.61911  1.0000
  H   H2411     1.0  0.76441  0.23023  0.56086  1.0000
  H   H2412     1.0  0.87666  0.27658  0.55961  1.0000
  Fe  Fe297     1.0  0.80550  0.24048  0.50320  1.0000
  S   S595      1.0  0.77843  0.24816  0.48998  1.0000
  S   S596      1.0  0.80254  0.22782  0.53578  1.0000
  Fe  Fe298     1.0  0.83284  0.24804  0.46318  1.0000
  S   S597      1.0  0.80802  0.25695  0.44697  1.0000
  S   S598      1.0  0.86326  0.24629  0.44425  1.0000
  Fe  Fe299     1.0  0.79204  0.27330  0.47083  1.0000
  S   S599      1.0  0.77374  0.30308  0.46155  1.0000
  Fe  Fe300     1.0  0.79706  0.23112  0.46737  1.0000
  S   S600      1.0  0.79024  0.20887  0.45444  1.0000
  S   S601      1.0  0.81795  0.26694  0.48554  1.0000
  S   S602      1.0  0.82292  0.22097  0.48228  1.0000
  Fe  Fe301     1.0  0.90537  0.16835  0.37965  1.0000
  S   S603      1.0  0.91770  0.13794  0.39453  1.0000
  S   S604      1.0  0.87524  0.18128  0.39477  1.0000
  H   H2413     1.0  0.85131  0.23916  0.59458  1.0000
  S   S605      1.0  0.95342  0.13657  0.35636  1.0000
  Fe  Fe302     1.0  0.92275  0.13038  0.36505  1.0000
  S   S606      1.0  0.91393  0.10180  0.36660  1.0000
  Fe  Fe303     1.0  0.94697  0.14695  0.38462  1.0000
  S   S607      1.0  0.90862  0.16037  0.35061  1.0000
  S   S608      1.0  0.93416  0.17830  0.37242  1.0000
  H   H2414     1.0  0.76047  0.02173  0.34466  1.0000
  N   N150      1.0  0.75353  0.17568  0.50434  1.0000
  H   H2415     1.0  0.75662  0.06721  0.42932  1.0000
  C   C1491     1.0  0.86558  0.26735  0.56745  1.0000
  Fe  Fe304     1.0  0.79882  0.05600  0.36408  1.0000
  S   S609      1.0  0.78033  0.05426  0.39450  1.0000
  S   S610      1.0  0.79720  0.08470  0.34258  1.0000
  Fe  Fe305     1.0  0.81549  0.36492  0.37105  1.0000
  C   C1492     1.0  0.82019  0.44158  0.32455  1.0000
  S   S611      1.0  0.76438  0.13509  0.42083  1.0000
  C   C1493     1.0  0.77117  0.48482  0.39148  1.0000
  C   C1494     1.0  0.75847  0.26944  0.55680  1.0000
  S   S612      1.0  0.79015  0.39027  0.36661  1.0000
  C   C1495     1.0  0.84926  0.26816  0.39209  1.0000
  C   C1496     1.0  0.82462  0.29761  0.39573  1.0000
  C   C1497     1.0  0.78463  0.10822  0.39843  1.0000
  S   S613      1.0  0.87717  0.20636  0.62633  1.0000
  H   H2416     1.0  0.99455  0.16880  0.33253  1.0000
  H   H2417     1.0  0.78187  0.16006  0.49189  1.0000
  C   C1498     1.0  0.82958  0.43447  0.34067  1.0000
  C   C1499     1.0  0.83898  0.44674  0.34620  1.0000
  H   H2418     1.0  0.78629  0.18737  0.60049  1.0000
  S   S614      1.0  0.82931  0.35331  0.39758  1.0000
  C   C1500     1.0  0.85288  0.29890  0.36922  1.0000
  H   H2419     1.0  0.82931  0.41966  0.34906  1.0000
  C   C1501     1.0  0.80072  0.18320  0.63269  1.0000
  H   H2420     1.0  0.79227  0.11970  0.38962  1.0000
  Fe  Fe306     1.0  0.77822  0.36956  0.35600  1.0000
  Fe  Fe307     1.0  0.81808  0.35341  0.33277  1.0000
  H   H2421     1.0  0.86552  0.21854  0.58419  1.0000
  H   H2422     1.0  0.75063  0.33884  0.40365  1.0000
  C   C1502     1.0  0.76689  0.21330  0.44865  1.0000
  S   S615      1.0  0.85117  0.26107  0.62605  1.0000
  S   S616      1.0  0.80200  0.34370  0.36329  1.0000
  C   C1503     1.0  0.98138  0.17289  0.39367  1.0000
  Fe  Fe308     1.0  0.82997  0.07536  0.33405  1.0000
  S   S617      1.0  0.84934  0.48189  0.34401  1.0000
  C   C1504     1.0  0.77795  0.07558  0.40339  1.0000
  H   H2423     1.0  0.87279  0.28836  0.39900  1.0000
  H   H2424     1.0  0.75222  0.19992  0.51748  1.0000
  C   C1505     1.0  0.78919  0.46008  0.37262  1.0000
  Fe  Fe309     1.0  0.85224  0.22904  0.63802  1.0000
  C   C1506     1.0  0.77021  0.23539  0.64505  1.0000
  C   C1507     1.0  0.89520  0.10166  0.35465  1.0000
  C   C1508     1.0  0.88642  0.08515  0.35971  1.0000
  C   C1509     1.0  0.87120  0.08472  0.35070  1.0000
  H   H2425     1.0  0.81406  0.15913  0.60680  1.0000
  H   H2426     1.0  0.76379  0.32331  0.37470  1.0000
  C   C1510     1.0  0.88872  0.11777  0.34047  1.0000
  H   H2427     1.0  0.89139  0.07263  0.37066  1.0000
  H   H2428     1.0  0.86452  0.07193  0.35472  1.0000
  C   C1511     1.0  0.75362  0.31281  0.38124  1.0000
  H   H2429     1.0  0.89553  0.13047  0.33632  1.0000
  C   C1512     1.0  0.85916  0.23457  0.58054  1.0000
  S   S618      1.0  0.83359  0.37284  0.34093  1.0000
  H   H2430     1.0  0.78216  0.48042  0.40121  1.0000
  Fe  Fe310     1.0  0.80692  0.39646  0.33558  1.0000
  Fe  Fe311     1.0  0.93879  0.16749  0.34457  1.0000
  Fe  Fe312     1.0  0.82683  0.03330  0.33494  1.0000
  H   H2431     1.0  0.79960  0.08755  0.37983  1.0000
  C   C1513     1.0  0.78886  0.31843  0.44517  1.0000
  H   H2432     1.0  0.84371  0.26097  0.40748  1.0000
  H   H2433     1.0  0.81895  0.29156  0.41146  1.0000
  C   C1514     1.0  0.81341  0.34115  0.41680  1.0000
  C   C1515     1.0  0.82124  0.32608  0.43112  1.0000
  C   C1516     1.0  0.80906  0.31441  0.44497  1.0000
  C   C1517     1.0  0.76670  0.16555  0.48893  1.0000
  C   C1518     1.0  0.76161  0.19224  0.50571  1.0000
  H   H2434     1.0  0.83681  0.32308  0.43120  1.0000
  H   H2435     1.0  0.81532  0.30243  0.45559  1.0000
  C   C1519     1.0  0.86684  0.22874  0.42980  1.0000
  C   C1520     1.0  0.85189  0.21867  0.43167  1.0000
  C   C1521     1.0  0.85456  0.20451  0.42047  1.0000
  C   C1522     1.0  0.87222  0.20028  0.40724  1.0000
  C   C1523     1.0  0.88708  0.21073  0.40479  1.0000
  C   C1524     1.0  0.88443  0.22491  0.41618  1.0000
  H   H2436     1.0  0.83814  0.22164  0.44180  1.0000
  H   H2437     1.0  0.84290  0.19666  0.42228  1.0000
  H   H2438     1.0  0.90055  0.20791  0.39415  1.0000
  H   H2439     1.0  0.89594  0.23291  0.41443  1.0000
  H   H2440     1.0  0.84793  0.23663  0.57151  1.0000
  H   H2441     1.0  0.76518  0.33765  0.43197  1.0000
  H   H2442     1.0  0.76930  0.15149  0.64501  1.0000
  H   H2443     1.0  0.89519  0.24913  0.54282  1.0000
  H   H2444     1.0  0.86523  0.26158  0.38839  1.0000
  C   C1525     1.0  0.75313  0.23668  0.57250  1.0000
  S   S619      1.0  0.79389  0.03976  0.34332  1.0000
  S   S620      1.0  0.82367  0.22955  0.63055  1.0000
  H   H2445     1.0  0.89013  0.22480  0.55259  1.0000
  H   H2446     1.0  0.79025  0.19582  0.63829  1.0000
  C   C1526     1.0  0.81090  0.26419  0.57595  1.0000
  C   C1527     1.0  0.80597  0.24569  0.58371  1.0000
  C   C1528     1.0  0.80388  0.23447  0.57118  1.0000
  C   C1529     1.0  0.80644  0.24179  0.55086  1.0000
  C   C1530     1.0  0.81108  0.26040  0.54312  1.0000
  C   C1531     1.0  0.81323  0.27159  0.55565  1.0000
  H   H2447     1.0  0.80344  0.24016  0.59937  1.0000
  H   H2448     1.0  0.80003  0.22019  0.57727  1.0000
  H   H2449     1.0  0.81282  0.26628  0.52751  1.0000
  H   H2450     1.0  0.81680  0.28601  0.54959  1.0000
  H   H2451     1.0  0.81194  0.99574  0.36121  1.0000
  C   C1532     1.0  0.77034  0.11170  0.41510  1.0000
  H   H2452     1.0  0.85156  0.28800  0.41846  1.0000
  S   S621      1.0  0.83190  0.04760  0.35741  1.0000
  C   C1533     1.0  0.74692  0.35345  0.33404  1.0000
  S   S622      1.0  0.84264  0.00401  0.32712  1.0000
  H   H2453     1.0  0.79699  0.14304  0.61786  1.0000
  C   C1534     1.0  0.79319  0.34524  0.41701  1.0000
  H   H2454     1.0  0.80753  0.48900  0.37205  1.0000
  H   H2455     1.0  0.81595  0.29406  0.38666  1.0000
  H   H2456     1.0  0.85366  0.27112  0.55886  1.0000
  H   H2457     1.0  0.90170  0.25021  0.57500  1.0000
  N   N151      1.0  0.79016  0.16969  0.62889  1.0000
  C   C1535     1.0  0.90959  0.17974  0.63599  1.0000
  H   H2458     1.0  0.84591  0.44130  0.35886  1.0000
  C   C1536     1.0  0.85672  0.29440  0.40268  1.0000
  H   H2459     1.0  0.74661  0.14854  0.52248  1.0000
  N   N152      1.0  0.84589  0.28975  0.38991  1.0000
  H   H2460     1.0  0.78050  0.24517  0.64094  1.0000
  C   C1537     1.0  0.75194  0.16158  0.52337  1.0000
  H   H2461     1.0  0.77808  0.45071  0.37980  1.0000
  H   H2462     1.0  0.76677  0.26925  0.56813  1.0000
  H   H2463     1.0  0.78704  0.35700  0.40607  1.0000
  H   H2464     1.0  0.91077  0.17523  0.62238  1.0000
  C   C1538     1.0  0.83913  0.46612  0.33563  1.0000
  C   C1539     1.0  0.76067  0.09670  0.42656  1.0000
  H   H2465     1.0  0.85062  0.31522  0.36719  1.0000
  Fe  Fe313     1.0  0.79569  0.06777  0.32106  1.0000
  H   H2466     1.0  0.84167  0.26404  0.38239  1.0000
  S   S623      1.0  0.80553  0.26912  0.65021  1.0000
  C   C1540     1.0  0.89438  0.19507  0.64153  1.0000
  H   H2467     1.0  0.84484  0.29599  0.35912  1.0000
  H   H2468     1.0  0.76249  0.35348  0.33002  1.0000
  C   C1541     1.0  0.99492  0.18484  0.39159  1.0000
  H   H2469     1.0  0.81046  0.18948  0.61909  1.0000
  H   H2470     1.0  0.89684  0.22575  0.58475  1.0000
  C   C1542     1.0  0.77779  0.16142  0.64744  1.0000
  H   H2471     1.0  0.85874  0.27192  0.58175  1.0000
  C   C1543     1.0  0.78853  0.09013  0.39266  1.0000
  H   H2472     1.0  0.98095  0.18541  0.34819  1.0000
  S   S624      1.0  0.96952  0.13732  0.40410  1.0000
  S   S625      1.0  0.76080  0.13282  0.61692  1.0000
  H   H2473     1.0  0.76784  0.17558  0.47426  1.0000
  S   S626      1.0  0.79293  0.37758  0.32451  1.0000
  H   H2474     1.0  0.81427  0.14484  0.63134  1.0000
  H   H2475     1.0  0.76058  0.23616  0.58459  1.0000
  H   H2476     1.0  0.76512  0.29787  0.42663  1.0000
  H   H2477     1.0  0.88360  0.24533  0.59694  1.0000
  H   H2478     1.0  0.76963  0.17080  0.61109  1.0000
  H   H2479     1.0  0.77851  0.31078  0.40473  1.0000
  C   C1544     1.0  0.78085  0.33421  0.43153  1.0000
  N   N153      1.0  0.91567  0.16512  0.44354  1.0000
  C   C1545     1.0  0.92187  0.17444  0.42281  1.0000
  C   C1546     1.0  0.89568  0.17549  0.45131  1.0000
  C   C1547     1.0  0.92973  0.16630  0.45500  1.0000
  C   C1548     1.0  0.91548  0.14425  0.44482  1.0000
  H   H2480     1.0  0.93693  0.16711  0.41649  1.0000
  H   H2481     1.0  0.92204  0.19027  0.42115  1.0000
  H   H2482     1.0  0.91171  0.17352  0.41373  1.0000
  H   H2483     1.0  0.89045  0.16893  0.46696  1.0000
  H   H2484     1.0  0.89522  0.19138  0.45030  1.0000
  H   H2485     1.0  0.88478  0.17486  0.44286  1.0000
  H   H2486     1.0  0.92559  0.15936  0.47076  1.0000
  H   H2487     1.0  0.93030  0.18188  0.45422  1.0000
  H   H2488     1.0  0.94494  0.15866  0.44932  1.0000
  H   H2489     1.0  0.91141  0.13650  0.46030  1.0000
  H   H2490     1.0  0.93020  0.13620  0.43835  1.0000
  H   H2491     1.0  0.90466  0.14288  0.43666  1.0000
  N   N154      1.0  0.84140  0.13516  0.38944  1.0000
  C   C1549     1.0  0.82781  0.12592  0.40634  1.0000
  C   C1550     1.0  0.86199  0.12529  0.39069  1.0000
  C   C1551     1.0  0.83873  0.15625  0.38970  1.0000
  C   C1552     1.0  0.83709  0.13322  0.37099  1.0000
  H   H2492     1.0  0.81213  0.13330  0.40607  1.0000
  H   H2493     1.0  0.83082  0.12679  0.42055  1.0000
  H   H2494     1.0  0.82910  0.11010  0.40635  1.0000
  H   H2495     1.0  0.86585  0.12650  0.40437  1.0000
  H   H2496     1.0  0.86467  0.10936  0.39040  1.0000
  H   H2497     1.0  0.87262  0.13195  0.37815  1.0000
  H   H2498     1.0  0.84890  0.16366  0.37725  1.0000
  H   H2499     1.0  0.84188  0.15827  0.40343  1.0000
  H   H2500     1.0  0.82340  0.16424  0.38871  1.0000
  H   H2501     1.0  0.84693  0.14020  0.35792  1.0000
  H   H2502     1.0  0.82160  0.14025  0.36965  1.0000
  H   H2503     1.0  0.83928  0.11746  0.37016  1.0000
  N   N155      1.0  0.87453  0.24611  0.57028  1.0000
  N   N156      1.0  0.74937  0.30937  0.40293  1.0000
  C   C1553     1.0  0.88988  0.24170  0.58218  1.0000
  C   C1554     1.0  0.75727  0.23688  0.63269  1.0000
  C   C1555     1.0  0.75127  0.22746  0.45594  1.0000
  C   C1556     1.0  0.76349  0.20086  0.43820  1.0000
  H   H2504     1.0  0.76253  0.20332  0.49169  1.0000
  C   C1557     1.0  0.98663  0.15252  0.40000  1.0000
  H   H2505     1.0  0.93489  0.15812  0.64377  1.0000
  H   H2506     1.0  0.75169  0.28504  0.55139  1.0000
  H   H2507     1.0  0.76617  0.19265  0.62032  1.0000
  H   H2508     1.0  0.86886  0.29324  0.36423  1.0000
  C   C1558     1.0  0.86490  0.10074  0.33636  1.0000
  N   N157      1.0  0.78044  0.48123  0.37156  1.0000
  H   H2509     1.0  0.76641  0.15604  0.52798  1.0000
  C   C1559     1.0  0.80455  0.15349  0.62087  1.0000
  H   H2510     1.0  0.76116  0.15275  0.48779  1.0000
  C   C1560     1.0  0.77754  0.18063  0.61455  1.0000
  H   H2511     1.0  0.76939  0.26423  0.54422  1.0000
  N   N158      1.0  0.76050  0.00106  0.32754  1.0000
  H   H2512     1.0  0.79545  0.45687  0.35769  1.0000
  H   H2513     1.0  0.80143  0.45524  0.38091  1.0000
  H   H2514     1.0  0.77677  0.18718  0.50883  1.0000
  H   H2515     1.0  0.98073  0.21276  0.31943  1.0000
  C   C1561     1.0  0.76787  0.30071  0.41029  1.0000
  H   H2516     1.0  0.80401  0.03578  0.63711  1.0000
  S   S627      1.0  0.84583  0.10086  0.32476  1.0000
  H   H2517     1.0  0.77508  0.28641  0.40583  1.0000
  H   H2518     1.0  0.75313  0.47920  0.36540  1.0000
  H   H2519     1.0  0.76906  0.99647  0.35530  1.0000
  H   H2520     1.0  0.75927  0.47635  0.39846  1.0000
  C   C1562     1.0  0.77818  0.10580  0.64536  1.0000
  H   H2521     1.0  0.76050  0.29891  0.37588  1.0000
  H   H2522     1.0  0.76892  0.03504  0.63950  1.0000
  C   C1563     1.0  0.75819  0.00649  0.34665  1.0000
  H   H2523     1.0  0.80996  0.17565  0.64387  1.0000
  H   H2524     1.0  0.99058  0.20066  0.38736  1.0000
  S   S628      1.0  0.74667  0.36658  0.36707  1.0000
  H   H2525     1.0  0.99352  0.21446  0.34842  1.0000
  H   H2526     1.0  0.79170  0.99000  0.32390  1.0000
  H   H2527     1.0  0.77190  0.48418  0.34411  1.0000
  C   C1564     1.0  0.76543  0.48725  0.35909  1.0000
  C   C1565     1.0  0.92325  0.17007  0.64807  1.0000
  H   H2528     1.0  0.91315  0.19434  0.32000  1.0000
  H   H2529     1.0  0.86895  0.12964  0.32012  1.0000
  H   H2530     1.0  0.79189  0.00391  0.64936  1.0000
  C   C1566     1.0  0.83036  0.47282  0.31912  1.0000
  Fe  Fe314     1.0  0.82502  0.34182  0.75110  1.0000
  S   S629      1.0  0.83977  0.32631  0.77656  1.0000
  Fe  Fe315     1.0  0.83564  0.38091  0.74899  1.0000
  S   S630      1.0  0.85177  0.36909  0.77399  1.0000
  S   S631      1.0  0.82770  0.41247  0.73353  1.0000
  Fe  Fe316     1.0  0.86382  0.34257  0.76018  1.0000
  S   S632      1.0  0.89466  0.32502  0.75755  1.0000
  Fe  Fe317     1.0  0.82658  0.35372  0.78860  1.0000
  S   S633      1.0  0.81408  0.35325  0.82061  1.0000
  S   S634      1.0  0.85028  0.35587  0.73353  1.0000
  S   S635      1.0  0.80931  0.36778  0.76487  1.0000
  Fe  Fe318     1.0  0.97844  0.23393  0.84552  1.0000
  S   S636      1.0  0.96778  0.20981  0.83903  1.0000
  H   H2531     1.0  0.90563  0.19576  0.68476  1.0000
  Fe  Fe319     1.0  0.94070  0.26338  0.83957  1.0000
  S   S637      1.0  0.92752  0.24160  0.83231  1.0000
  S   S638      1.0  0.92033  0.29276  0.83994  1.0000
  Fe  Fe320     1.0  0.93911  0.22086  0.85771  1.0000
  S   S639      1.0  0.91904  0.20095  0.87690  1.0000
  Fe  Fe321     1.0  0.95735  0.23289  0.81435  1.0000
  S   S640      1.0  0.96503  0.22510  0.78464  1.0000
  S   S641      1.0  0.95039  0.24325  0.86649  1.0000
  S   S642      1.0  0.96990  0.25643  0.81940  1.0000
  H   H2532     1.0  0.91978  0.15277  0.83418  1.0000
  C   C1567     1.0  0.83786  0.31809  0.70828  1.0000
  H   H2533     1.0  0.93604  0.16155  0.79044  1.0000
  Fe  Fe322     1.0  0.84317  0.23434  0.96302  1.0000
  C   C1568     1.0  0.77196  0.17082  0.97195  1.0000
  S   S643      1.0  0.87571  0.23358  0.95376  1.0000
  H   H2534     1.0  0.86192  0.46083  0.80471  1.0000
  Fe  Fe323     1.0  0.80510  0.25436  0.94981  1.0000
  S   S644      1.0  0.79376  0.27312  0.92331  1.0000
  H   H2535     1.0  0.87722  0.04721  0.79072  1.0000
  S   S645      1.0  0.82544  0.22573  0.94596  1.0000
  Fe  Fe324     1.0  0.89410  0.14583  0.74649  1.0000
  S   S646      1.0  0.86722  0.13220  0.75435  1.0000
  Fe  Fe325     1.0  0.90538  0.18431  0.74510  1.0000
  S   S647      1.0  0.93685  0.17408  0.73152  1.0000
  S   S648      1.0  0.89457  0.21375  0.75370  1.0000
  Fe  Fe326     1.0  0.92461  0.16131  0.71298  1.0000
  S   S649      1.0  0.89319  0.17423  0.72435  1.0000
  S   S650      1.0  0.90362  0.15706  0.76853  1.0000
  H   H2536     1.0  0.93472  0.18729  0.78748  1.0000
  H   H2537     1.0  0.84338  0.03119  0.76881  1.0000
  H   H2538     1.0  0.80301  0.40363  0.67268  1.0000
  H   H2539     1.0  0.94154  0.13898  0.82128  1.0000
  Fe  Fe327     1.0  0.83119  0.06438  0.71065  1.0000
  S   S651      1.0  0.80277  0.07690  0.72888  1.0000
  S   S652      1.0  0.85669  0.08019  0.69974  1.0000
  S   S653      1.0  0.78837  0.03596  0.73133  1.0000
  Fe  Fe328     1.0  0.78857  0.06527  0.71088  1.0000
  S   S654      1.0  0.75969  0.08103  0.70235  1.0000
  Fe  Fe329     1.0  0.80537  0.04648  0.74745  1.0000
  S   S655      1.0  0.79857  0.04114  0.78032  1.0000
  S   S656      1.0  0.81678  0.05521  0.69078  1.0000
  S   S657      1.0  0.83490  0.03458  0.73058  1.0000
  H   H2540     1.0  0.77499  0.22032  0.91773  1.0000
  H   H2541     1.0  0.89687  0.26956  0.71072  1.0000
  H   H2542     1.0  0.83647  0.08381  0.77146  1.0000
  H   H2543     1.0  0.82743  0.38504  0.70473  1.0000
  H   H2544     1.0  0.79674  0.18546  0.91736  1.0000
  C   C1569     1.0  0.74592  0.06048  0.81315  1.0000
  C   C1570     1.0  0.76043  0.09470  0.67827  1.0000
  H   H2545     1.0  0.79227  0.35554  0.70300  1.0000
  H   H2546     1.0  0.82301  0.36060  0.70832  1.0000
  H   H2547     1.0  0.83050  0.45219  0.78925  1.0000
  C   C1571     1.0  0.84585  0.44878  0.78091  1.0000
  H   H2548     1.0  0.80277  0.00034  0.67027  1.0000
  C   C1572     1.0  0.77882  0.03177  0.68423  1.0000
  C   C1573     1.0  0.90656  0.19105  0.67134  1.0000
  C   C1574     1.0  0.77450  0.05370  0.78758  1.0000
  C   C1575     1.0  0.76384  0.06559  0.77345  1.0000
  H   H2549     1.0  0.98457  0.12023  0.71388  1.0000
  H   H2550     1.0  0.77040  0.06729  0.75805  1.0000
  H   H2551     1.0  0.84553  0.47573  0.72750  1.0000
  C   C1576     1.0  0.86457  0.11830  0.73854  1.0000
  C   C1577     1.0  0.88024  0.11195  0.72402  1.0000
  C   C1578     1.0  0.87757  0.10063  0.71183  1.0000
  C   C1579     1.0  0.85932  0.09547  0.71426  1.0000
  C   C1580     1.0  0.84361  0.10219  0.72853  1.0000
  C   C1581     1.0  0.84623  0.11358  0.74060  1.0000
  H   H2552     1.0  0.89445  0.11559  0.72226  1.0000
  H   H2553     1.0  0.88979  0.09553  0.70076  1.0000
  H   H2554     1.0  0.82942  0.09869  0.73028  1.0000
  H   H2555     1.0  0.83398  0.11876  0.75161  1.0000
  H   H2556     1.0  0.79633  0.05411  0.65208  1.0000
  H   H2557     1.0  0.83401  0.19881  0.70557  1.0000
  C   C1582     1.0  0.78908  0.00706  0.66432  1.0000
  C   C1583     1.0  0.94497  0.22504  0.77473  1.0000
  C   C1584     1.0  0.94855  0.21879  0.75701  1.0000
  C   C1585     1.0  0.93292  0.21619  0.75005  1.0000
  C   C1586     1.0  0.91372  0.21955  0.76094  1.0000
  C   C1587     1.0  0.90998  0.22680  0.77812  1.0000
  C   C1588     1.0  0.92559  0.22970  0.78491  1.0000
  H   H2558     1.0  0.96346  0.21561  0.74883  1.0000
  H   H2559     1.0  0.93576  0.21163  0.73623  1.0000
  H   H2560     1.0  0.89511  0.22955  0.78653  1.0000
  H   H2561     1.0  0.92259  0.23504  0.79826  1.0000
  H   H2562     1.0  0.93860  0.18378  0.83954  1.0000
  H   H2563     1.0  0.89062  0.42527  0.79181  1.0000
  Fe  Fe330     1.0  0.81764  0.02649  0.71262  1.0000
  C   C1589     1.0  0.76591  0.29451  0.94788  1.0000
  C   C1590     1.0  0.89297  0.20089  0.65912  1.0000
  H   H2564     1.0  0.85489  0.40930  0.78968  1.0000
  H   H2565     1.0  0.94283  0.14826  0.84192  1.0000
  C   C1591     1.0  0.90789  0.20806  0.89948  1.0000
  C   C1592     1.0  0.88919  0.20431  0.90900  1.0000
  C   C1593     1.0  0.87941  0.21152  0.92608  1.0000
  C   C1594     1.0  0.88830  0.22247  0.93371  1.0000
  C   C1595     1.0  0.90735  0.22541  0.92467  1.0000
  C   C1596     1.0  0.91706  0.21834  0.90754  1.0000
  H   H2566     1.0  0.88212  0.19614  0.90298  1.0000
  H   H2567     1.0  0.86503  0.20856  0.93331  1.0000
  H   H2568     1.0  0.91447  0.23353  0.93070  1.0000
  H   H2569     1.0  0.93175  0.22065  0.90074  1.0000
  C   C1597     1.0  0.85399  0.41693  0.80172  1.0000
  H   H2570     1.0  0.75572  0.19815  0.68149  1.0000
  H   H2571     1.0  0.88130  0.04690  0.75506  1.0000
  H   H2572     1.0  0.88080  0.30413  0.71131  1.0000
  C   C1598     1.0  0.76982  0.22132  0.66259  1.0000
  C   C1599     1.0  0.87696  0.43131  0.73267  1.0000
  C   C1600     1.0  0.86389  0.41912  0.73390  1.0000
  H   H2573     1.0  0.82266  0.45436  0.72855  1.0000
  C   C1601     1.0  0.85799  0.44607  0.81020  1.0000
  H   H2574     1.0  0.89220  0.42487  0.73349  1.0000
  H   H2575     1.0  0.86910  0.40336  0.73559  1.0000
  C   C1602     1.0  0.90150  0.31607  0.78057  1.0000
  C   C1603     1.0  0.89060  0.32388  0.79693  1.0000
  C   C1604     1.0  0.89655  0.31690  0.81512  1.0000
  C   C1605     1.0  0.91309  0.30173  0.81710  1.0000
  C   C1606     1.0  0.92367  0.29360  0.80084  1.0000
  C   C1607     1.0  0.91803  0.30093  0.78256  1.0000
  H   H2576     1.0  0.87778  0.33551  0.79552  1.0000
  H   H2577     1.0  0.88831  0.32324  0.82761  1.0000
  H   H2578     1.0  0.93644  0.28192  0.80222  1.0000
  H   H2579     1.0  0.92654  0.29485  0.76998  1.0000
  S   S658      1.0  0.92487  0.13204  0.73371  1.0000
  H   H2580     1.0  0.78538  0.00143  0.72163  1.0000
  N   N159      1.0  0.87439  0.27211  0.88255  1.0000
  C   C1608     1.0  0.85857  0.26455  0.89800  1.0000
  C   C1609     1.0  0.86606  0.29108  0.87070  1.0000
  C   C1610     1.0  0.88355  0.25778  0.86965  1.0000
  C   C1611     1.0  0.88951  0.27502  0.89175  1.0000
  H   H2581     1.0  0.86442  0.25023  0.90714  1.0000
  H   H2582     1.0  0.84686  0.26218  0.89163  1.0000
  H   H2583     1.0  0.85140  0.27491  0.90811  1.0000
  H   H2584     1.0  0.87772  0.29714  0.85895  1.0000
  H   H2585     1.0  0.85473  0.28941  0.86336  1.0000
  H   H2586     1.0  0.85901  0.30229  0.87990  1.0000
  H   H2587     1.0  0.89536  0.26325  0.85772  1.0000
  H   H2588     1.0  0.87261  0.25496  0.86260  1.0000
  H   H2589     1.0  0.89040  0.24341  0.87795  1.0000
  H   H2590     1.0  0.90174  0.28062  0.88050  1.0000
  H   H2591     1.0  0.89617  0.26098  0.90070  1.0000
  H   H2592     1.0  0.88319  0.28572  0.90161  1.0000
  C   C1612     1.0  0.97846  0.13624  0.71297  1.0000
  N   N160      1.0  0.84796  0.17149  0.69623  1.0000
  C   C1613     1.0  0.83286  0.16063  0.70904  1.0000
  C   C1614     1.0  0.84316  0.17913  0.67646  1.0000
  C   C1615     1.0  0.86746  0.15811  0.69473  1.0000
  C   C1616     1.0  0.84833  0.18809  0.70479  1.0000
  H   H2593     1.0  0.91624  0.18922  0.83050  1.0000
  H   H2594     1.0  0.87178  0.15264  0.70930  1.0000
  H   H2595     1.0  0.81788  0.17020  0.71017  1.0000
  H   H2596     1.0  0.88158  0.21306  0.66322  1.0000
  H   H2597     1.0  0.78649  0.48810  0.82844  1.0000
  H   H2598     1.0  0.78121  0.40258  0.85344  1.0000
  C   C1617     1.0  0.92161  0.17551  0.66588  1.0000
  C   C1618     1.0  0.79020  0.37075  0.69384  1.0000
  H   H2599     1.0  0.96937  0.16594  0.82122  1.0000
  H   H2600     1.0  0.86006  0.19620  0.69594  1.0000
  S   S659      1.0  0.76200  0.17151  0.91888  1.0000
  H   H2601     1.0  0.91465  0.17641  0.80258  1.0000
  H   H2602     1.0  0.96249  0.17169  0.75587  1.0000
  Fe  Fe331     1.0  0.93448  0.14607  0.75355  1.0000
  Fe  Fe332     1.0  0.83582  0.26511  0.65652  1.0000
  H   H2603     1.0  0.79136  0.36980  0.73097  1.0000
  H   H2604     1.0  0.82793  0.06711  0.76214  1.0000
  H   H2605     1.0  0.85429  0.18744  0.66647  1.0000
  H   H2606     1.0  0.85027  0.46312  0.77361  1.0000
  H   H2607     1.0  0.81344  0.03177  0.65911  1.0000
  S   S660      1.0  0.93833  0.16247  0.68119  1.0000
  H   H2608     1.0  0.91370  0.27049  0.72531  1.0000
  N   N161      1.0  0.79901  0.38376  0.70068  1.0000
  C   C1619     1.0  0.78481  0.30841  0.98256  1.0000
  H   H2609     1.0  0.76689  0.17317  0.65406  1.0000
  C   C1620     1.0  0.88330  0.30159  0.72651  1.0000
  H   H2610     1.0  0.85313  0.05532  0.80458  1.0000
  H   H2611     1.0  0.89764  0.30560  0.72554  1.0000
  H   H2612     1.0  0.86036  0.05615  0.74344  1.0000
  H   H2613     1.0  0.84025  0.03108  0.79425  1.0000
  H   H2614     1.0  0.77740  0.99914  0.67377  1.0000
  H   H2615     1.0  0.74791  0.11121  0.82927  1.0000
  H   H2616     1.0  0.79178  0.08621  0.66866  1.0000
  H   H2617     1.0  0.98076  0.17259  0.71494  1.0000
  C   C1621     1.0  0.78961  0.38471  0.72131  1.0000
  H   H2618     1.0  0.87167  0.31203  0.73437  1.0000
  H   H2619     1.0  0.79625  0.39405  0.72711  1.0000
  C   C1622     1.0  0.97684  0.16285  0.75744  1.0000
  H   H2620     1.0  0.86757  0.14501  0.68901  1.0000
  C   C1623     1.0  0.97910  0.14260  0.76497  1.0000
  H   H2621     1.0  0.88619  0.26312  0.76534  1.0000
  H   H2622     1.0  0.82851  0.18932  0.67704  1.0000
  H   H2623     1.0  0.80961  0.19230  0.94354  1.0000
  H   H2624     1.0  0.78668  0.38404  0.83906  1.0000
  H   H2625     1.0  0.93651  0.20057  0.81661  1.0000
  H   H2626     1.0  0.78981  0.34249  0.79976  1.0000
  H   H2627     1.0  0.80259  0.41380  0.69329  1.0000
  C   C1624     1.0  0.78795  0.18027  0.96706  1.0000
  H   H2628     1.0  0.84550  0.32724  0.71229  1.0000
  H   H2629     1.0  0.79185  0.02582  0.69131  1.0000
  H   H2630     1.0  0.83866  0.41829  0.81037  1.0000
  C   C1625     1.0  0.86283  0.05754  0.78978  1.0000
  C   C1626     1.0  0.88664  0.27837  0.75694  1.0000
  H   H2631     1.0  0.90126  0.28139  0.75664  1.0000
  C   C1627     1.0  0.98397  0.16938  0.69996  1.0000
  N   N162      1.0  0.88315  0.28100  0.73689  1.0000
  C   C1628     1.0  0.79158  0.34540  0.82839  1.0000
  C   C1629     1.0  0.78239  0.34185  0.81491  1.0000
  H   H2632     1.0  0.84270  0.44849  0.81896  1.0000
  N   N163      1.0  0.85942  0.43642  0.79382  1.0000
  H   H2633     1.0  0.84560  0.44135  0.76915  1.0000
  C   C1630     1.0  0.84429  0.42739  0.73240  1.0000
  H   H2634     1.0  0.86439  0.02296  0.78038  1.0000
  H   H2635     1.0  0.86560  0.07280  0.78634  1.0000
  S   S661      1.0  0.80735  0.32773  0.73846  1.0000
  H   H2636     1.0  0.96831  0.15545  0.80132  1.0000
  C   C1631     1.0  0.89888  0.26772  0.72602  1.0000
  S   S662      1.0  0.83916  0.23254  0.66898  1.0000
  C   C1632     1.0  0.93099  0.17401  0.79828  1.0000
  C   C1633     1.0  0.85038  0.03399  0.77979  1.0000
  H   H2637     1.0  0.87538  0.28863  0.76535  1.0000
  H   H2638     1.0  0.88160  0.42602  0.77039  1.0000
  H   H2639     1.0  0.86800  0.43722  0.82029  1.0000
  H   H2640     1.0  0.75558  0.33955  0.86924  1.0000
  S   S663      1.0  0.95901  0.13077  0.77019  1.0000
  C   C1634     1.0  0.83470  0.06834  0.77407  1.0000
  H   H2641     1.0  0.89892  0.25206  0.73318  1.0000
  H   H2642     1.0  0.85157  0.28633  0.74582  1.0000
  C   C1635     1.0  0.87984  0.43388  0.78242  1.0000
  N   N164      1.0  0.85374  0.05436  0.77474  1.0000
  C   C1636     1.0  0.86703  0.05762  0.75535  1.0000
  S   S664      1.0  0.78751  0.21804  0.67695  1.0000
  C   C1637     1.0  0.81907  0.31573  0.71878  1.0000
  C   C1638     1.0  0.84675  0.30871  0.69240  1.0000
  H   H2643     1.0  0.77063  0.30229  0.89830  1.0000
  C   C1639     1.0  0.86385  0.27631  0.73805  1.0000
  C   C1640     1.0  0.82032  0.37577  0.69935  1.0000
  H   H2644     1.0  0.86089  0.27776  0.72318  1.0000
  C   C1641     1.0  0.87031  0.45173  0.73083  1.0000
  H   H2645     1.0  0.88421  0.44830  0.77538  1.0000
  H   H2646     1.0  0.78933  0.34633  0.85865  1.0000
  C   C1642     1.0  0.77367  0.29207  0.92854  1.0000
  C   C1643     1.0  0.78206  0.34408  0.84808  1.0000
  C   C1644     1.0  0.83777  0.44786  0.72989  1.0000
  N   N165      1.0  0.99254  0.14830  0.70015  1.0000
  S   S665      1.0  0.84919  0.28485  0.66736  1.0000
  C   C1645     1.0  0.80920  0.30398  0.71324  1.0000
  C   C1646     1.0  0.76471  0.30420  0.91327  1.0000
  S   S666      1.0  0.82676  0.99765  0.70237  1.0000
  C   C1647     1.0  0.93258  0.18664  0.82595  1.0000
  H   H2647     1.0  0.85122  0.18289  0.72000  1.0000
  H   H2648     1.0  0.86124  0.31069  0.68420  1.0000
  H   H2649     1.0  0.77978  0.40840  0.80950  1.0000
  C   C1648     1.0  0.85068  0.45999  0.72936  1.0000
  H   H2650     1.0  0.77409  0.37626  0.69465  1.0000
  H   H2651     1.0  0.79461  0.30215  0.72127  1.0000
  H   H2652     1.0  0.75601  0.33573  0.81036  1.0000
  C   C1649     1.0  0.93593  0.15170  0.82881  1.0000
  C   C1650     1.0  0.76423  0.16760  0.95716  1.0000
  H   H2653     1.0  0.86399  0.40716  0.81145  1.0000
  H   H2654     1.0  0.86322  0.26090  0.74605  1.0000
  S   S667      1.0  0.88670  0.46637  0.73100  1.0000
  S   S668      1.0  0.82371  0.26405  0.96498  1.0000
  C   C1651     1.0  0.76330  0.33795  0.82093  1.0000
  H   H2655     1.0  0.77263  0.28493  0.95973  1.0000
  C   C1652     1.0  0.79601  0.40377  0.68834  1.0000
  H   H2656     1.0  0.76838  0.38250  0.86130  1.0000
  C   C1653     1.0  0.77454  0.39291  0.84818  1.0000
  C   C1654     1.0  0.77813  0.09463  0.66452  1.0000
  C   C1655     1.0  0.83704  0.29671  0.68703  1.0000
  C   C1656     1.0  0.81821  0.29437  0.69746  1.0000
  H   H2657     1.0  0.82388  0.06553  0.78806  1.0000
  H   H2658     1.0  0.83587  0.15512  0.72421  1.0000
  C   C1657     1.0  0.79697  0.18543  0.94738  1.0000
  H   H2659     1.0  0.76003  0.01053  0.81387  1.0000
  H   H2660     1.0  0.78232  0.34615  0.98372  1.0000
  C   C1658     1.0  0.76823  0.41727  0.81916  1.0000
  C   C1659     1.0  0.76557  0.05126  0.80747  1.0000
  N   N166      1.0  0.94034  0.17014  0.81545  1.0000
  H   H2661     1.0  0.78680  0.15271  0.65851  1.0000
  H   H2662     1.0  0.77292  0.24647  0.90953  1.0000
  C   C1660     1.0  0.77304  0.17309  0.93746  1.0000
  C   C1661     1.0  0.76292  0.34036  0.85406  1.0000
  S   S669      1.0  0.78665  0.24136  0.97769  1.0000
  H   H2663     1.0  0.76126  0.05318  0.65465  1.0000
  C   C1662     1.0  0.99321  0.17186  0.75207  1.0000
  H   H2664     1.0  0.98283  0.14888  0.67393  1.0000
  H   H2665     1.0  0.77375  0.04204  0.81844  1.0000
  H   H2666     1.0  0.87918  0.16560  0.68475  1.0000
  H   H2667     1.0  0.83254  0.14760  0.70344  1.0000
  C   C1663     1.0  0.74919  0.30918  0.95189  1.0000
  H   H2668     1.0  0.81060  0.28519  0.69338  1.0000
  C   C1664     1.0  0.78978  0.18142  0.93260  1.0000
  H   H2669     1.0  0.87042  0.07263  0.75143  1.0000
  H   H2670     1.0  0.77355  0.39094  0.72290  1.0000
  H   H2671     1.0  0.96447  0.13970  0.70749  1.0000
  H   H2672     1.0  0.96565  0.18158  0.79798  1.0000
  H   H2673     1.0  0.78154  0.23431  0.93178  1.0000
  C   C1665     1.0  0.96189  0.16817  0.80873  1.0000
  C   C1666     1.0  0.74875  0.22241  0.95224  1.0000
  N   N167      1.0  0.78346  0.02845  0.66397  1.0000
  H   H2674     1.0  0.76664  0.02450  0.69352  1.0000
  C   C1667     1.0  0.79727  0.33656  0.98312  1.0000
  H   H2675     1.0  0.77427  0.04772  0.68454  1.0000
  H   H2676     1.0  0.79710  0.36947  0.67839  1.0000
  C   C1668     1.0  0.75615  0.20897  0.66788  1.0000
  H   H2677     1.0  0.77527  0.42762  0.82301  1.0000
  H   H2678     1.0  0.84287  0.16697  0.66957  1.0000
  H   H2679     1.0  0.97464  0.13888  0.72819  1.0000
  H   H2680     1.0  0.96991  0.17398  0.69442  1.0000
  H   H2681     1.0  0.80455  0.33783  0.96735  1.0000
  Fe  Fe333     1.0  0.81014  0.23612  0.66030  1.0000
  Fe  Fe334     1.0  0.80883  0.21342  0.97554  1.0000
  H   H2682     1.0  0.76134  0.02424  0.77804  1.0000
  C   C1669     1.0  0.76595  0.03707  0.65491  1.0000
  H   H2683     1.0  0.75012  0.42736  0.85378  1.0000
  H   H2684     1.0  0.82801  0.37496  0.68398  1.0000
  H   H2685     1.0  0.82437  0.30450  0.97606  1.0000
  H   H2686     1.0  0.78007  0.41033  0.68902  1.0000
  H   H2687     1.0  0.79195  0.30870  0.96685  1.0000
  C   C1670     1.0  0.77082  0.23453  0.92277  1.0000
  H   H2688     1.0  0.99142  0.18748  0.74589  1.0000
  C   C1671     1.0  0.75337  0.33774  0.84039  1.0000
  H   H2689     1.0  0.99418  0.17892  0.69039  1.0000
  C   C1672     1.0  0.75010  0.39099  0.83112  1.0000
  H   H2690     1.0  0.75324  0.03011  0.66322  1.0000
  H   H2691     1.0  0.76959  0.31731  0.98296  1.0000
  H   H2692     1.0  0.75198  0.20753  0.94888  1.0000
  H   H2693     1.0  0.75937  0.22234  0.96130  1.0000
  H   H2694     1.0  0.75486  0.25865  0.94820  1.0000
  N   N168      1.0  0.75035  0.23762  0.93399  1.0000
  H   H2695     1.0  0.75131  0.16118  0.96094  1.0000
  H   H2696     1.0  0.76119  0.38148  0.82179  1.0000
  N   N169      1.0  0.75921  0.40447  0.83695  1.0000
  C   C1673     1.0  0.74794  0.31873  0.91730  1.0000
  H   H2697     1.0  0.75702  0.42624  0.81038  1.0000
  H   H2698     1.0  0.74628  0.26915  0.92563  1.0000
  C   C1674     1.0  0.74625  0.02139  0.78029  1.0000
  C   C1675     1.0  0.80003  0.03797  0.65252  1.0000
  Fe  Fe335     1.0  0.95202  0.73734  0.31555  1.0000
  S   S670      1.0  0.75707  0.64285  0.00179  1.0000
  H   H2699     1.0  0.81764  0.67011  0.16859  1.0000
  C   C1676     1.0  0.75637  0.71509  0.14426  1.0000
  H   H2700     1.0  0.92102  0.61050  0.18603  1.0000
  C   C1677     1.0  0.75827  0.67791  0.07842  1.0000
  S   S671      1.0  0.84051  0.59160  0.02034  1.0000
  C   C1678     1.0  0.77452  0.86136  0.28043  1.0000
  C   C1679     1.0  0.87476  0.58653  0.25122  1.0000
  H   H2701     1.0  0.82885  0.66129  0.18957  1.0000
  Fe  Fe336     1.0  0.91965  0.65121  0.26402  1.0000
  S   S672      1.0  0.94778  0.62991  0.25671  1.0000
  S   S673      1.0  0.91140  0.66037  0.29322  1.0000
  Fe  Fe337     1.0  0.90790  0.65438  0.22507  1.0000
  S   S674      1.0  0.88234  0.66529  0.20946  1.0000
  Fe  Fe338     1.0  0.92996  0.61594  0.24454  1.0000
  S   S675      1.0  0.93223  0.58324  0.25032  1.0000
  S   S676      1.0  0.90137  0.63530  0.25487  1.0000
  S   S677      1.0  0.92349  0.67249  0.23515  1.0000
  C   C1680     1.0  0.90579  0.55900  0.26580  1.0000
  H   H2702     1.0  0.84356  0.97112  0.31092  1.0000
  Fe  Fe339     1.0  0.80849  0.88138  0.31782  1.0000
  C   C1681     1.0  0.74715  0.66395  0.98603  1.0000
  H   H2703     1.0  0.85359  0.70220  0.15785  1.0000
  Fe  Fe340     1.0  0.80344  0.63613  0.15890  1.0000
  S   S678      1.0  0.82546  0.64690  0.13278  1.0000
  C   C1682     1.0  0.74645  0.55889  0.18556  1.0000
  Fe  Fe341     1.0  0.81633  0.59384  0.15391  1.0000
  S   S679      1.0  0.83967  0.60068  0.12724  1.0000
  S   S680      1.0  0.81128  0.56333  0.16832  1.0000
  Fe  Fe342     1.0  0.84629  0.61976  0.14448  1.0000
  S   S681      1.0  0.87714  0.62121  0.14563  1.0000
  Fe  Fe343     1.0  0.81678  0.62713  0.11798  1.0000
  S   S682      1.0  0.80589  0.63851  0.08942  1.0000
  S   S683      1.0  0.82482  0.61058  0.17185  1.0000
  S   S684      1.0  0.79294  0.61866  0.14336  1.0000
  C   C1683     1.0  0.90831  0.56641  0.20863  1.0000
  H   H2704     1.0  0.94002  0.55863  0.18051  1.0000
  S   S685      1.0  0.79240  0.59324  0.00331  1.0000
  H   H2705     1.0  0.74633  0.84885  0.18680  1.0000
  H   H2706     1.0  0.75868  0.97635  0.31670  1.0000
  S   S686      1.0  0.96106  0.72352  0.28904  1.0000
  C   C1684     1.0  0.78351  0.68729  0.14857  1.0000
  C   C1685     1.0  0.77607  0.70617  0.13864  1.0000
  H   H2707     1.0  0.86279  0.59720  0.24553  1.0000
  H   H2708     1.0  0.78551  0.71382  0.12648  1.0000
  H   H2709     1.0  0.79860  0.68041  0.14391  1.0000
  S   S687      1.0  0.76203  0.50850  0.26887  1.0000
  H   H2710     1.0  0.98892  0.62521  0.24074  1.0000
  C   C1686     1.0  0.77271  0.57425  0.16381  1.0000
  C   C1687     1.0  0.78627  0.56191  0.17495  1.0000
  C   C1688     1.0  0.77991  0.54796  0.19132  1.0000
  C   C1689     1.0  0.75997  0.54668  0.19683  1.0000
  S   S688      1.0  0.74706  0.73822  0.13103  1.0000
  H   H2711     1.0  0.77756  0.58470  0.15092  1.0000
  H   H2712     1.0  0.79038  0.53815  0.19979  1.0000
  C   C1690     1.0  0.89025  0.61469  0.31399  1.0000
  C   C1691     1.0  0.87910  0.63225  0.16417  1.0000
  C   C1692     1.0  0.86447  0.63297  0.18114  1.0000
  C   C1693     1.0  0.86616  0.64211  0.19563  1.0000
  C   C1694     1.0  0.88238  0.65071  0.19315  1.0000
  C   C1695     1.0  0.89737  0.64940  0.17652  1.0000
  C   C1696     1.0  0.89577  0.64009  0.16210  1.0000
  H   H2713     1.0  0.85182  0.62657  0.18311  1.0000
  H   H2714     1.0  0.85468  0.64287  0.20863  1.0000
  H   H2715     1.0  0.90987  0.65617  0.17446  1.0000
  H   H2716     1.0  0.90720  0.63948  0.14906  1.0000
  C   C1697     1.0  0.74868  0.85714  0.31674  1.0000
  H   H2717     1.0  0.92093  0.57639  0.29512  1.0000
  H   H2718     1.0  0.88578  0.57364  0.30132  1.0000
  C   C1698     1.0  0.76241  0.51799  0.28885  1.0000
  C   C1699     1.0  0.88186  0.58925  0.30298  1.0000
  H   H2719     1.0  0.77041  0.66478  0.07710  1.0000
  C   C1700     1.0  0.75840  0.67398  0.11282  1.0000
  Fe  Fe344     1.0  0.78406  0.62428  0.98716  1.0000
  C   C1701     1.0  0.75190  0.68675  0.17057  1.0000
  C   C1702     1.0  0.77731  0.50925  0.29953  1.0000
  H   H2720     1.0  0.78657  0.56531  0.08424  1.0000
  C   C1703     1.0  0.89333  0.59129  0.24770  1.0000
  H   H2721     1.0  0.88465  0.54015  0.27835  1.0000
  C   C1704     1.0  0.91460  0.59941  0.19819  1.0000
  H   H2722     1.0  0.88861  0.62514  0.29980  1.0000
  H   H2723     1.0  0.89563  0.60550  0.23905  1.0000
  N   N170      1.0  0.75969  0.68783  0.09361  1.0000
  H   H2724     1.0  0.76110  0.93003  0.28793  1.0000
  H   H2725     1.0  0.75516  0.53597  0.20956  1.0000
  H   H2726     1.0  0.79138  0.68147  0.08755  1.0000
  H   H2727     1.0  0.85771  0.67641  0.16809  1.0000
  C   C1705     1.0  0.92485  0.67830  0.29180  1.0000
  C   C1706     1.0  0.94161  0.68031  0.27709  1.0000
  C   C1707     1.0  0.75287  0.57262  0.16900  1.0000
  S   S689      1.0  0.82544  0.90445  0.31606  1.0000
  H   H2728     1.0  0.75904  0.68110  0.12468  1.0000
  H   H2729     1.0  0.94626  0.67100  0.26637  1.0000
  C   C1708     1.0  0.90887  0.57753  0.25497  1.0000
  H   H2730     1.0  0.94620  0.57010  0.19715  1.0000
  N   N171      1.0  0.91670  0.58076  0.19192  1.0000
  H   H2731     1.0  0.91524  0.60169  0.28336  1.0000
  C   C1709     1.0  0.83145  0.60551  0.03888  1.0000
  C   C1710     1.0  0.84208  0.60275  0.05373  1.0000
  C   C1711     1.0  0.83450  0.61294  0.06924  1.0000
  C   C1712     1.0  0.81638  0.62615  0.06979  1.0000
  C   C1713     1.0  0.80595  0.62917  0.05477  1.0000
  C   C1714     1.0  0.81338  0.61880  0.03943  1.0000
  H   H2732     1.0  0.85615  0.59261  0.05325  1.0000
  H   H2733     1.0  0.84276  0.61069  0.08064  1.0000
  H   H2734     1.0  0.79194  0.63937  0.05504  1.0000
  H   H2735     1.0  0.80506  0.62103  0.02807  1.0000
  C   C1715     1.0  0.93001  0.70449  0.30476  1.0000
  H   H2736     1.0  0.91781  0.54825  0.27132  1.0000
  H   H2737     1.0  0.91635  0.56288  0.22093  1.0000
  S   S690      1.0  0.93553  0.63400  0.21409  1.0000
  S   S691      1.0  0.79754  0.88005  0.29146  1.0000
  H   H2738     1.0  0.94455  0.58327  0.17255  1.0000
  C   C1716     1.0  0.77151  0.67770  0.16475  1.0000
  H   H2739     1.0  0.75927  0.68791  0.06370  1.0000
  H   H2740     1.0  0.89007  0.59026  0.18035  1.0000
  N   N172      1.0  0.89657  0.59408  0.31134  1.0000
  C   C1717     1.0  0.95245  0.69447  0.27611  1.0000
  H   H2741     1.0  0.89885  0.60604  0.20313  1.0000
  Fe  Fe345     1.0  0.83973  0.55039  0.29967  1.0000
  H   H2742     1.0  0.78080  0.92508  0.25571  1.0000
  H   H2743     1.0  0.89255  0.57222  0.21451  1.0000
  H   H2744     1.0  0.92746  0.59502  0.30367  1.0000
  H   H2745     1.0  0.78020  0.70206  0.09929  1.0000
  Fe  Fe346     1.0  0.95079  0.65011  0.22709  1.0000
  N   N173      1.0  0.80664  0.56617  0.10175  1.0000
  C   C1718     1.0  0.79860  0.58710  0.10264  1.0000
  C   C1719     1.0  0.81265  0.55545  0.12051  1.0000
  C   C1720     1.0  0.82392  0.56464  0.08548  1.0000
  C   C1721     1.0  0.79138  0.55752  0.09832  1.0000
  H   H2746     1.0  0.80968  0.59409  0.10531  1.0000
  H   H2747     1.0  0.78547  0.58888  0.11465  1.0000
  H   H2748     1.0  0.79413  0.59572  0.08863  1.0000
  H   H2749     1.0  0.79990  0.55591  0.13307  1.0000
  H   H2750     1.0  0.81922  0.53968  0.12027  1.0000
  H   H2751     1.0  0.82376  0.56195  0.12386  1.0000
  H   H2752     1.0  0.83573  0.57104  0.08758  1.0000
  H   H2753     1.0  0.81993  0.57264  0.07107  1.0000
  H   H2754     1.0  0.83038  0.54907  0.08425  1.0000
  H   H2755     1.0  0.79695  0.54171  0.09755  1.0000
  H   H2756     1.0  0.98920  0.66274  0.30803  1.0000
  H   H2757     1.0  0.77811  0.55844  0.11033  1.0000
  N   N174      1.0  0.82813  0.69198  0.17672  1.0000
  C   C1722     1.0  0.83220  0.69555  0.19460  1.0000
  C   C1723     1.0  0.84671  0.68903  0.16215  1.0000
  C   C1724     1.0  0.81413  0.70911  0.16826  1.0000
  C   C1725     1.0  0.81946  0.67422  0.18185  1.0000
  H   H2758     1.0  0.83894  0.70873  0.19131  1.0000
  H   H2759     1.0  0.84273  0.68288  0.20136  1.0000
  H   H2760     1.0  0.81851  0.69783  0.20592  1.0000
  H   H2761     1.0  0.84430  0.68591  0.14858  1.0000
  C   C1726     1.0  0.75106  0.92107  0.28650  1.0000
  C   C1727     1.0  0.76548  0.86497  0.31430  1.0000
  H   H2762     1.0  0.81115  0.70706  0.15448  1.0000
  H   H2763     1.0  0.81993  0.72289  0.16467  1.0000
  H   H2764     1.0  0.79969  0.71143  0.17859  1.0000
  H   H2765     1.0  0.88061  0.59865  0.28822  1.0000
  C   C1728     1.0  0.91590  0.59166  0.29785  1.0000
  H   H2766     1.0  0.80469  0.67641  0.19165  1.0000
  H   H2767     1.0  0.78449  0.86296  0.26633  1.0000
  H   H2768     1.0  0.77042  0.91774  0.23887  1.0000
  N   N175      1.0  0.79935  0.55459  0.24404  1.0000
  C   C1729     1.0  0.80444  0.54003  0.26163  1.0000
  C   C1730     1.0  0.79884  0.57455  0.24658  1.0000
  C   C1731     1.0  0.77982  0.55344  0.24144  1.0000
  C   C1732     1.0  0.81434  0.55033  0.22652  1.0000
  H   H2769     1.0  0.81934  0.54010  0.26374  1.0000
  H   H2770     1.0  0.80427  0.52483  0.26060  1.0000
  H   H2771     1.0  0.79380  0.54325  0.27521  1.0000
  H   H2772     1.0  0.78768  0.57825  0.25969  1.0000
  H   H2773     1.0  0.81335  0.57581  0.24876  1.0000
  H   H2774     1.0  0.79522  0.58595  0.23353  1.0000
  H   H2775     1.0  0.77537  0.56440  0.22845  1.0000
  H   H2776     1.0  0.76822  0.55610  0.25459  1.0000
  H   H2777     1.0  0.77982  0.53863  0.23918  1.0000
  H   H2778     1.0  0.81085  0.56091  0.21290  1.0000
  H   H2779     1.0  0.81526  0.53529  0.22427  1.0000
  H   H2780     1.0  0.82923  0.55127  0.22793  1.0000
  H   H2781     1.0  0.78038  0.70448  0.07376  1.0000
  H   H2782     1.0  0.90555  0.68962  0.31630  1.0000
  Fe  Fe347     1.0  0.82253  0.60016  0.99653  1.0000
  H   H2783     1.0  0.96513  0.69616  0.26443  1.0000
  H   H2784     1.0  0.91175  0.59550  0.16293  1.0000
  C   C1733     1.0  0.94677  0.70648  0.29002  1.0000
  C   C1734     1.0  0.93781  0.57281  0.18521  1.0000
  H   H2785     1.0  0.90914  0.55232  0.20431  1.0000
  C   C1735     1.0  0.77824  0.86742  0.29600  1.0000
  H   H2786     1.0  0.77076  0.66093  0.11253  1.0000
  S   S692      1.0  0.78087  0.65460  0.17807  1.0000
  S   S693      1.0  0.84812  0.56269  0.26745  1.0000
  C   C1736     1.0  0.90609  0.58444  0.17568  1.0000
  H   H2787     1.0  0.77649  0.90066  0.26051  1.0000
  C   C1737     1.0  0.87156  0.56819  0.26247  1.0000
  C   C1738     1.0  0.88706  0.55443  0.26980  1.0000
  H   H2788     1.0  0.90753  0.57079  0.17031  1.0000
  H   H2789     1.0  0.92229  0.59713  0.21055  1.0000
  S   S694      1.0  0.97904  0.66074  0.21219  1.0000
  H   H2790     1.0  0.75536  0.84843  0.27093  1.0000
  C   C1739     1.0  0.74867  0.53464  0.29366  1.0000
  H   H2791     1.0  0.92532  0.71402  0.31529  1.0000
  H   H2792     1.0  0.86696  0.59140  0.31251  1.0000
  C   C1740     1.0  0.77037  0.91634  0.25468  1.0000
  C   C1741     1.0  0.77899  0.51756  0.31449  1.0000
  H   H2793     1.0  0.75664  0.90560  0.29348  1.0000
  S   S695      1.0  0.82292  0.52632  0.31015  1.0000
  H   H2794     1.0  0.98228  0.68838  0.30881  1.0000
  C   C1742     1.0  0.75789  0.85334  0.28295  1.0000
  C   C1743     1.0  0.91895  0.69056  0.30548  1.0000
  N   N176      1.0  0.75034  0.92276  0.26572  1.0000
  C   C1744     1.0  0.99458  0.67534  0.30983  1.0000
  C   C1745     1.0  0.75054  0.54309  0.30861  1.0000
  H   H2795     1.0  0.78781  0.49625  0.29600  1.0000
  C   C1746     1.0  0.77875  0.69425  0.08832  1.0000
  H   H2796     1.0  0.75204  0.95342  0.25781  1.0000
  H   H2797     1.0  0.74707  0.87345  0.18820  1.0000
  H   H2798     1.0  0.74754  0.88428  0.15233  1.0000
  S   S696      1.0  0.81802  0.57005  0.31813  1.0000
  H   H2799     1.0  0.74672  0.85976  0.15106  1.0000
  H   H2800     1.0  0.79302  0.84711  0.61495  1.0000
  H   H2801     1.0  0.91805  0.63287  0.34789  1.0000
  H   H2802     1.0  0.79620  0.72570  0.56162  1.0000
  C   C1747     1.0  0.76849  0.85030  0.39253  1.0000
  S   S697      1.0  0.86032  0.68561  0.60949  1.0000
  C   C1748     1.0  0.80006  0.69048  0.43271  1.0000
  Fe  Fe348     1.0  0.86899  0.62865  0.62676  1.0000
  S   S698      1.0  0.89124  0.64389  0.60443  1.0000
  H   H2803     1.0  0.77034  0.85601  0.63026  1.0000
  Fe  Fe349     1.0  0.88428  0.66537  0.62432  1.0000
  H   H2804     1.0  0.79186  0.81290  0.63331  1.0000
  Fe  Fe350     1.0  0.86544  0.66254  0.59151  1.0000
  S   S699      1.0  0.86844  0.67108  0.55849  1.0000
  C   C1749     1.0  0.89681  0.85870  0.32433  1.0000
  S   S700      1.0  0.84362  0.64559  0.61229  1.0000
  C   C1750     1.0  0.79601  0.49286  0.36297  1.0000
  H   H2805     1.0  0.88918  0.80224  0.36959  1.0000
  H   H2806     1.0  0.88420  0.58255  0.34128  1.0000
  S   S701      1.0  0.87816  0.88010  0.32402  1.0000
  H   H2807     1.0  0.75896  0.72525  0.44321  1.0000
  H   H2808     1.0  0.78982  0.50894  0.36135  1.0000
  H   H2809     1.0  0.77835  0.64305  0.42571  1.0000
  Fe  Fe351     1.0  0.80784  0.90676  0.34615  1.0000
  H   H2810     1.0  0.81581  0.59644  0.43140  1.0000
  S   S702      1.0  0.79469  0.93532  0.35669  1.0000
  Fe  Fe352     1.0  0.81240  0.86231  0.35951  1.0000
  S   S703      1.0  0.80684  0.66682  0.42764  1.0000
  H   H2811     1.0  0.91929  0.87563  0.31874  1.0000
  H   H2812     1.0  0.92195  0.68374  0.34765  1.0000
  S   S704      1.0  0.86410  0.64853  0.64779  1.0000
  C   C1751     1.0  0.81478  0.98450  0.35267  1.0000
  S   S705      1.0  0.82953  0.88365  0.36168  1.0000
  H   H2813     1.0  0.94305  0.65337  0.36250  1.0000
  Fe  Fe353     1.0  0.84821  0.62901  0.47774  1.0000
  S   S706      1.0  0.84999  0.65847  0.45791  1.0000
  S   S707      1.0  0.83805  0.62519  0.51074  1.0000
  Fe  Fe354     1.0  0.85712  0.60787  0.44313  1.0000
  S   S708      1.0  0.85998  0.63562  0.42067  1.0000
  S   S709      1.0  0.85791  0.57882  0.43558  1.0000
  Fe  Fe355     1.0  0.87653  0.64177  0.44047  1.0000
  S   S710      1.0  0.90482  0.65261  0.42784  1.0000
  Fe  Fe356     1.0  0.83334  0.64952  0.44000  1.0000
  C   C1752     1.0  0.81398  0.83238  0.64364  1.0000
  S   S711      1.0  0.87608  0.61267  0.46162  1.0000
  S   S712      1.0  0.82917  0.62146  0.46123  1.0000
  H   H2814     1.0  0.81976  0.84569  0.64285  1.0000
  S   S713      1.0  0.95003  0.71801  0.34548  1.0000
  C   C1753     1.0  0.92957  0.64879  0.37229  1.0000
  S   S714      1.0  0.94426  0.75830  0.36251  1.0000
  H   H2815     1.0  0.76521  0.74099  0.59466  1.0000
  Fe  Fe357     1.0  0.96931  0.73588  0.35046  1.0000
  C   C1754     1.0  0.75883  0.78727  0.36512  1.0000
  Fe  Fe358     1.0  0.92518  0.74220  0.35448  1.0000
  S   S715      1.0  0.89609  0.73710  0.37353  1.0000
  H   H2816     1.0  0.86086  0.80303  0.34466  1.0000
  H   H2817     1.0  0.85832  0.82194  0.35801  1.0000
  H   H2818     1.0  0.75905  0.50334  0.35729  1.0000
  H   H2819     1.0  0.86847  0.61478  0.59301  1.0000
  C   C1755     1.0  0.78660  0.85222  0.62902  1.0000
  Fe  Fe359     1.0  0.83718  0.55637  0.34056  1.0000
  S   S716      1.0  0.84476  0.58033  0.35106  1.0000
  H   H2820     1.0  0.85894  0.91975  0.33123  1.0000
  S   S717      1.0  0.78897  0.88571  0.34671  1.0000
  H   H2821     1.0  0.79410  0.58877  0.43038  1.0000
  H   H2822     1.0  0.80741  0.65336  0.49018  1.0000
  H   H2823     1.0  0.90273  0.65504  0.33729  1.0000
  Fe  Fe360     1.0  0.80296  0.54457  0.33099  1.0000
  S   S718      1.0  0.80845  0.83576  0.38358  1.0000
  H   H2824     1.0  0.78523  0.75106  0.56208  1.0000
  N   N177      1.0  0.79712  0.68043  0.50071  1.0000
  C   C1756     1.0  0.78420  0.83455  0.39597  1.0000
  H   H2825     1.0  0.79468  0.62723  0.44098  1.0000
  H   H2826     1.0  0.76714  0.78317  0.37731  1.0000
  H   H2827     1.0  0.77632  0.71551  0.59494  1.0000
  C   C1757     1.0  0.85565  0.57857  0.41173  1.0000
  C   C1758     1.0  0.85111  0.56202  0.40808  1.0000
  C   C1759     1.0  0.84788  0.56211  0.38946  1.0000
  C   C1760     1.0  0.84937  0.57875  0.37443  1.0000
  C   C1761     1.0  0.85441  0.59505  0.37795  1.0000
  C   C1762     1.0  0.85750  0.59498  0.39652  1.0000
  H   H2828     1.0  0.84976  0.54921  0.41978  1.0000
  H   H2829     1.0  0.84413  0.54941  0.38681  1.0000
  H   H2830     1.0  0.85571  0.60791  0.36632  1.0000
  H   H2831     1.0  0.86133  0.60763  0.39902  1.0000
  C   C1763     1.0  0.90178  0.67721  0.41512  1.0000
  C   C1764     1.0  0.88322  0.68791  0.41185  1.0000
  C   C1765     1.0  0.88141  0.70677  0.39977  1.0000
  C   C1766     1.0  0.89817  0.71487  0.39082  1.0000
  C   C1767     1.0  0.91661  0.70444  0.39463  1.0000
  C   C1768     1.0  0.91840  0.68564  0.40680  1.0000
  H   H2832     1.0  0.87033  0.68147  0.41820  1.0000
  H   H2833     1.0  0.86711  0.71480  0.39685  1.0000
  H   H2834     1.0  0.92956  0.71072  0.38800  1.0000
  H   H2835     1.0  0.93275  0.67746  0.40942  1.0000
  H   H2836     1.0  0.93245  0.63243  0.37622  1.0000
  C   C1769     1.0  0.78337  0.61862  0.40100  1.0000
  H   H2837     1.0  0.85458  0.93000  0.38015  1.0000
  C   C1770     1.0  0.89273  0.71214  0.62979  1.0000
  C   C1771     1.0  0.77435  0.71810  0.44104  1.0000
  H   H2838     1.0  0.88512  0.62038  0.54855  1.0000
  H   H2839     1.0  0.79788  0.75035  0.60934  1.0000
  H   H2840     1.0  0.78290  0.70618  0.48270  1.0000
  H   H2841     1.0  0.79160  0.86603  0.62795  1.0000
  H   H2842     1.0  0.82936  0.69192  0.43418  1.0000
  H   H2843     1.0  0.80369  0.49014  0.34818  1.0000
  H   H2844     1.0  0.78130  0.66260  0.49288  1.0000
  H   H2845     1.0  0.88120  0.65655  0.37014  1.0000
  H   H2846     1.0  0.78634  0.76532  0.58965  1.0000
  C   C1772     1.0  0.80833  0.95414  0.34845  1.0000
  C   C1773     1.0  0.80451  0.96895  0.35923  1.0000
  Fe  Fe361     1.0  0.84586  0.87960  0.33158  1.0000
  H   H2847     1.0  0.90227  0.56500  0.32911  1.0000
  C   C1774     1.0  0.93179  0.84480  0.32100  1.0000
  S   S719      1.0  0.92534  0.76023  0.32384  1.0000
  C   C1775     1.0  0.90710  0.69651  0.63679  1.0000
  C   C1776     1.0  0.85976  0.65828  0.54548  1.0000
  C   C1777     1.0  0.84647  0.64589  0.55502  1.0000
  C   C1778     1.0  0.84009  0.63566  0.54421  1.0000
  C   C1779     1.0  0.84697  0.63771  0.52385  1.0000
  C   C1780     1.0  0.86028  0.65007  0.51433  1.0000
  C   C1781     1.0  0.86654  0.66041  0.52510  1.0000
  H   H2848     1.0  0.84100  0.64432  0.57067  1.0000
  H   H2849     1.0  0.82968  0.62620  0.55164  1.0000
  H   H2850     1.0  0.86573  0.65171  0.49865  1.0000
  H   H2851     1.0  0.87685  0.66997  0.51764  1.0000
  C   C1782     1.0  0.89128  0.73107  0.63296  1.0000
  C   C1783     1.0  0.74912  0.84851  0.40194  1.0000
  H   H2852     1.0  0.86770  0.89460  0.36086  1.0000
  C   C1784     1.0  0.87887  0.90293  0.36095  1.0000
  H   H2853     1.0  0.81904  0.69366  0.47865  1.0000
  H   H2854     1.0  0.78217  0.70892  0.50694  1.0000
  Fe  Fe362     1.0  0.76355  0.78096  0.63582  1.0000
  Fe  Fe363     1.0  0.84068  0.51498  0.33371  1.0000
  C   C1785     1.0  0.79752  0.73887  0.56635  1.0000
  H   H2855     1.0  0.82870  0.67282  0.49593  1.0000
  C   C1786     1.0  0.79458  0.67031  0.52158  1.0000
  H   H2856     1.0  0.89172  0.65628  0.39044  1.0000
  H   H2857     1.0  0.83693  0.70521  0.64170  1.0000
  C   C1787     1.0  0.81788  0.73331  0.64464  1.0000
  C   C1788     1.0  0.81337  0.71863  0.59276  1.0000
  C   C1789     1.0  0.77798  0.72919  0.59845  1.0000
  H   H2858     1.0  0.76979  0.78687  0.35112  1.0000
  H   H2859     1.0  0.80612  0.64476  0.39788  1.0000
  C   C1790     1.0  0.78823  0.72635  0.44521  1.0000
  C   C1791     1.0  0.91621  0.86108  0.32123  1.0000
  Fe  Fe364     1.0  0.74852  0.75964  0.45731  1.0000
  C   C1792     1.0  0.91556  0.64921  0.34477  1.0000
  C   C1793     1.0  0.79835  0.74354  0.64845  1.0000
  H   H2860     1.0  0.81822  0.69604  0.50316  1.0000
  H   H2861     1.0  0.79787  0.67413  0.47277  1.0000
  H   H2862     1.0  0.81267  0.75746  0.58565  1.0000
  H   H2863     1.0  0.88021  0.74316  0.62747  1.0000
  H   H2864     1.0  0.85942  0.60652  0.57593  1.0000
  H   H2865     1.0  0.84188  0.92493  0.36388  1.0000
  H   H2866     1.0  0.81155  0.74327  0.55781  1.0000
  H   H2867     1.0  0.91041  0.61364  0.55102  1.0000
  H   H2868     1.0  0.85830  0.81390  0.39292  1.0000
  S   S720      1.0  0.81991  0.53251  0.35529  1.0000
  H   H2869     1.0  0.76100  0.77299  0.53319  1.0000
  H   H2870     1.0  0.77994  0.66608  0.52695  1.0000
  N   N178      1.0  0.91221  0.65679  0.36291  1.0000
  H   H2871     1.0  0.90971  0.58352  0.33695  1.0000
  H   H2872     1.0  0.81265  0.70486  0.58872  1.0000
  S   S721      1.0  0.87592  0.59551  0.63530  1.0000
  H   H2873     1.0  0.88990  0.93304  0.36852  1.0000
  H   H2874     1.0  0.77129  0.61059  0.40883  1.0000
  H   H2875     1.0  0.76675  0.81810  0.37366  1.0000
  H   H2876     1.0  0.88288  0.70969  0.62182  1.0000
  H   H2877     1.0  0.90659  0.68461  0.37129  1.0000
  H   H2878     1.0  0.79159  0.61169  0.38828  1.0000
  H   H2879     1.0  0.89583  0.68517  0.35122  1.0000
  H   H2880     1.0  0.81315  0.71511  0.60880  1.0000
  N   N179      1.0  0.79687  0.73485  0.58771  1.0000
  H   H2881     1.0  0.76684  0.97000  0.33962  1.0000
  H   H2882     1.0  0.90598  0.80869  0.32909  1.0000
  C   C1794     1.0  0.85379  0.93216  0.36445  1.0000
  H   H2883     1.0  0.76654  0.69472  0.50297  1.0000
  C   C1795     1.0  0.89499  0.61600  0.55939  1.0000
  C   C1796     1.0  0.78052  0.81713  0.40905  1.0000
  S   S722      1.0  0.77031  0.54649  0.33553  1.0000
  S   S723      1.0  0.78074  0.74715  0.45572  1.0000
  C   C1797     1.0  0.90876  0.82326  0.32721  1.0000
  H   H2884     1.0  0.84908  0.94824  0.35895  1.0000
  H   H2885     1.0  0.82527  0.94377  0.32245  1.0000
  H   H2886     1.0  0.79592  0.67980  0.53110  1.0000
  H   H2887     1.0  0.76946  0.69353  0.43200  1.0000
  C   C1798     1.0  0.92822  0.82587  0.32395  1.0000
  C   C1799     1.0  0.76121  0.81533  0.41840  1.0000
  C   C1800     1.0  0.80809  0.71703  0.44249  1.0000
  H   H2888     1.0  0.80595  0.65657  0.52382  1.0000
  C   C1801     1.0  0.79855  0.75277  0.59330  1.0000
  S   S724      1.0  0.79315  0.76925  0.64446  1.0000
  H   H2889     1.0  0.77648  0.63404  0.39501  1.0000
  H   H2890     1.0  0.89278  0.62881  0.56641  1.0000
  N   N180      1.0  0.86174  0.79254  0.37536  1.0000
  C   C1802     1.0  0.85448  0.80755  0.35903  1.0000
  C   C1803     1.0  0.85393  0.79978  0.39388  1.0000
  C   C1804     1.0  0.88352  0.78864  0.37137  1.0000
  C   C1805     1.0  0.85497  0.77417  0.37716  1.0000
  H   H2891     1.0  0.92737  0.65407  0.38616  1.0000
  H   H2892     1.0  0.77684  0.72645  0.61464  1.0000
  H   H2893     1.0  0.83815  0.81020  0.36109  1.0000
  N   N181      1.0  0.79230  0.83698  0.64595  1.0000
  S   S725      1.0  0.83064  0.85630  0.33055  1.0000
  H   H2894     1.0  0.88080  0.90033  0.37636  1.0000
  H   H2895     1.0  0.87807  0.83797  0.32922  1.0000
  C   C1806     1.0  0.81225  0.62891  0.40315  1.0000
  C   C1807     1.0  0.89464  0.65071  0.37664  1.0000
  H   H2896     1.0  0.86011  0.76255  0.38945  1.0000
  H   H2897     1.0  0.86083  0.76809  0.36355  1.0000
  H   H2898     1.0  0.83862  0.77660  0.38005  1.0000
  N   N182      1.0  0.87287  0.92412  0.35271  1.0000
  C   C1808     1.0  0.80545  0.59740  0.42170  1.0000
  H   H2899     1.0  0.75027  0.77561  0.36732  1.0000
  H   H2900     1.0  0.88989  0.78275  0.35769  1.0000
  Fe  Fe365     1.0  0.84065  0.66694  0.63146  1.0000
  H   H2901     1.0  0.89655  0.63440  0.38092  1.0000
  H   H2902     1.0  0.75859  0.80170  0.42827  1.0000
  S   S726      1.0  0.90905  0.67247  0.63374  1.0000
  H   H2903     1.0  0.81398  0.58991  0.40947  1.0000
  H   H2904     1.0  0.79260  0.80490  0.41182  1.0000
  H   H2905     1.0  0.82078  0.62272  0.39012  1.0000
  H   H2906     1.0  0.89298  0.89624  0.35215  1.0000
  C   C1809     1.0  0.78030  0.70017  0.43470  1.0000
  H   H2907     1.0  0.83753  0.80255  0.39747  1.0000
  S   S727      1.0  0.76190  0.80530  0.60945  1.0000
  C   C1810     1.0  0.81661  0.68600  0.49434  1.0000
  H   H2908     1.0  0.79368  0.96834  0.37279  1.0000
  N   N183      1.0  0.89080  0.59819  0.57411  1.0000
  C   C1811     1.0  0.90368  0.73427  0.64373  1.0000
  C   C1812     1.0  0.89277  0.58201  0.56399  1.0000
  C   C1813     1.0  0.87051  0.60242  0.58549  1.0000
  C   C1814     1.0  0.90485  0.59233  0.58759  1.0000
  C   C1815     1.0  0.79585  0.66704  0.48862  1.0000
  C   C1816     1.0  0.90903  0.67851  0.35798  1.0000
  H   H2909     1.0  0.90790  0.57845  0.55521  1.0000
  H   H2910     1.0  0.88966  0.56837  0.57469  1.0000
  H   H2911     1.0  0.88230  0.58600  0.55374  1.0000
  H   H2912     1.0  0.86701  0.58952  0.59718  1.0000
  H   H2913     1.0  0.90185  0.57916  0.59913  1.0000
  H   H2914     1.0  0.90370  0.60423  0.59546  1.0000
  H   H2915     1.0  0.92034  0.58890  0.57962  1.0000
  C   C1817     1.0  0.82901  0.98521  0.33532  1.0000
  H   H2916     1.0  0.81884  0.72350  0.44558  1.0000
  S   S728      1.0  0.74590  0.76412  0.62689  1.0000
  H   H2917     1.0  0.94676  0.84691  0.31837  1.0000
  C   C1818     1.0  0.78510  0.62734  0.43084  1.0000
  C   C1819     1.0  0.88796  0.93469  0.35324  1.0000
  C   C1820     1.0  0.81401  0.69908  0.43624  1.0000
  H   H2918     1.0  0.77122  0.86387  0.38270  1.0000
  H   H2919     1.0  0.82791  0.72243  0.58514  1.0000
  Fe  Fe366     1.0  0.94633  0.77456  0.33119  1.0000
  H   H2920     1.0  0.88952  0.77742  0.38345  1.0000
  H   H2921     1.0  0.82278  0.62828  0.41251  1.0000
  N   N184      1.0  0.79653  0.61806  0.41418  1.0000
  H   H2922     1.0  0.85936  0.78893  0.40647  1.0000
  C   C1821     1.0  0.80635  0.70300  0.64960  1.0000
  C   C1822     1.0  0.78149  0.69830  0.49829  1.0000
  H   H2923     1.0  0.77307  0.61960  0.43954  1.0000
  C   C1823     1.0  0.75662  0.98105  0.33085  1.0000
  C   C1824     1.0  0.91823  0.71870  0.65042  1.0000
  C   C1825     1.0  0.89831  0.58071  0.33050  1.0000
  S   S729      1.0  0.89996  0.75751  0.64960  1.0000
  H   H2924     1.0  0.90251  0.92903  0.34442  1.0000
  H   H2925     1.0  0.76812  0.86979  0.32633  1.0000
  C   C1826     1.0  0.83277  0.97043  0.32451  1.0000
  C   C1827     1.0  0.87086  0.92673  0.33215  1.0000
  H   H2926     1.0  0.76813  0.82301  0.34763  1.0000
  S   S730      1.0  0.85989  0.53773  0.32124  1.0000
  C   C1828     1.0  0.82246  0.95493  0.33104  1.0000
  S   S731      1.0  0.97315  0.75341  0.31986  1.0000
  H   H2927     1.0  0.82125  0.82661  0.63005  1.0000
  H   H2928     1.0  0.76455  0.50072  0.39107  1.0000
  S   S732      1.0  0.75269  0.78286  0.57090  1.0000
  C   C1829     1.0  0.75778  0.82181  0.36210  1.0000
  C   C1830     1.0  0.82189  0.71300  0.64520  1.0000
  C   C1831     1.0  0.89300  0.83976  0.32734  1.0000
  H   H2929     1.0  0.92863  0.65367  0.33399  1.0000
  H   H2930     1.0  0.88467  0.91984  0.32310  1.0000
  H   H2931     1.0  0.86740  0.94254  0.32510  1.0000
  H   H2932     1.0  0.88380  0.95076  0.34713  1.0000
  H   H2933     1.0  0.74839  0.83666  0.36286  1.0000
  S   S733      1.0  0.94882  0.80631  0.32286  1.0000
  S   S734      1.0  0.81057  0.67842  0.64759  1.0000
  H   H2934     1.0  0.82980  0.74125  0.64033  1.0000
  C   C1832     1.0  0.92003  0.69991  0.64682  1.0000
  C   C1833     1.0  0.78522  0.81904  0.64681  1.0000
  H   H2935     1.0  0.79040  0.51059  0.32275  1.0000
  H   H2936     1.0  0.76893  0.82212  0.64818  1.0000
  H   H2937     1.0  0.99476  0.76279  0.35171  1.0000
  C   C1834     1.0  0.76609  0.53481  0.31867  1.0000
  H   H2938     1.0  0.87577  0.61694  0.32426  1.0000
  H   H2939     1.0  0.90116  0.61906  0.31986  1.0000
  N   N185      1.0  0.74579  0.80689  0.36488  1.0000
  H   H2940     1.0  0.96335  0.72688  0.74147  1.0000
  H   H2941     1.0  0.85414  0.82992  0.74648  1.0000
  N   N186      1.0  0.78561  0.56454  0.76518  1.0000
  Fe  Fe367     1.0  0.77282  0.91300  0.71276  1.0000
  S   S735      1.0  0.80128  0.89313  0.71926  1.0000
  S   S736      1.0  0.76397  0.94572  0.71197  1.0000
  Fe  Fe368     1.0  0.75420  0.87919  0.71293  1.0000
  S   S737      1.0  0.78080  0.85665  0.71972  1.0000
  Fe  Fe369     1.0  0.78165  0.87426  0.74101  1.0000
  C   C1835     1.0  0.91365  0.57038  0.72768  1.0000
  Fe  Fe370     1.0  0.79797  0.87718  0.69735  1.0000
  S   S738      1.0  0.82132  0.86204  0.67555  1.0000
  S   S739      1.0  0.75343  0.89509  0.73629  1.0000
  Fe  Fe371     1.0  0.90681  0.78389  0.70532  1.0000
  S   S740      1.0  0.89459  0.81375  0.71300  1.0000
  Fe  Fe372     1.0  0.90335  0.74123  0.72020  1.0000
  S   S741      1.0  0.92596  0.73149  0.69505  1.0000
  S   S742      1.0  0.88711  0.71874  0.74088  1.0000
  Fe  Fe373     1.0  0.94308  0.75183  0.69964  1.0000
  Fe  Fe374     1.0  0.91071  0.75808  0.67643  1.0000
  S   S743      1.0  0.92159  0.75924  0.72663  1.0000
  S   S744      1.0  0.88670  0.76637  0.70142  1.0000
  H   H2942     1.0  0.75723  0.98342  0.77705  1.0000
  Fe  Fe375     1.0  0.81978  0.62028  0.95416  1.0000
  S   S745      1.0  0.83249  0.63474  0.92343  1.0000
  H   H2943     1.0  0.90395  0.69703  0.85572  1.0000
  S   S746      1.0  0.78891  0.61598  0.95799  1.0000
  H   H2944     1.0  0.76095  0.98138  0.72424  1.0000
  Fe  Fe376     1.0  0.88374  0.52154  0.76410  1.0000
  S   S747      1.0  0.85222  0.53683  0.77126  1.0000
  S   S748      1.0  0.90924  0.52764  0.77323  1.0000
  H   H2945     1.0  0.76786  0.74112  0.65710  1.0000
  S   S749      1.0  0.75560  0.55400  0.84118  1.0000
  Fe  Fe377     1.0  0.85208  0.53654  0.74007  1.0000
  S   S750      1.0  0.83678  0.56502  0.72363  1.0000
  S   S751      1.0  0.88415  0.52305  0.73237  1.0000
  Fe  Fe378     1.0  0.96453  0.61610  0.81708  1.0000
  S   S752      1.0  0.95034  0.63224  0.84156  1.0000
  Fe  Fe379     1.0  0.92483  0.61615  0.80786  1.0000
  S   S753      1.0  0.90777  0.63279  0.83144  1.0000
  S   S754      1.0  0.90568  0.61152  0.78924  1.0000
  Fe  Fe380     1.0  0.93086  0.65104  0.82095  1.0000
  S   S755      1.0  0.92329  0.68399  0.81715  1.0000
  Fe  Fe381     1.0  0.92842  0.61238  0.85000  1.0000
  S   S756      1.0  0.91835  0.59937  0.88211  1.0000
  S   S757      1.0  0.94636  0.63638  0.79573  1.0000
  S   S758      1.0  0.94424  0.59427  0.82715  1.0000
  C   C1836     1.0  0.90727  0.55040  0.77947  1.0000
  C   C1837     1.0  0.92315  0.55391  0.78540  1.0000
  C   C1838     1.0  0.92255  0.57241  0.78915  1.0000
  C   C1839     1.0  0.90619  0.58760  0.78663  1.0000
  C   C1840     1.0  0.89023  0.58403  0.78088  1.0000
  C   C1841     1.0  0.89064  0.56540  0.77758  1.0000
  H   H2946     1.0  0.93605  0.54235  0.78690  1.0000
  H   H2947     1.0  0.93494  0.57506  0.79350  1.0000
  H   H2948     1.0  0.87750  0.59573  0.77903  1.0000
  H   H2949     1.0  0.87828  0.56276  0.77323  1.0000
  C   C1842     1.0  0.85560  0.62278  0.91235  1.0000
  C   C1843     1.0  0.86950  0.61139  0.92352  1.0000
  C   C1844     1.0  0.88858  0.60371  0.91410  1.0000
  C   C1845     1.0  0.89377  0.60726  0.89354  1.0000
  C   C1846     1.0  0.87949  0.61772  0.88247  1.0000
  C   C1847     1.0  0.86052  0.62566  0.89183  1.0000
  H   H2950     1.0  0.86583  0.60917  0.93938  1.0000
  H   H2951     1.0  0.89952  0.59549  0.92278  1.0000
  H   H2952     1.0  0.88308  0.61983  0.86669  1.0000
  H   H2953     1.0  0.84971  0.63424  0.88314  1.0000
  C   C1848     1.0  0.77541  0.53591  0.83323  1.0000
  C   C1849     1.0  0.77321  0.51653  0.83575  1.0000
  C   C1850     1.0  0.78843  0.50293  0.82695  1.0000
  C   C1851     1.0  0.80582  0.50871  0.81569  1.0000
  C   C1852     1.0  0.80835  0.52781  0.81402  1.0000
  C   C1853     1.0  0.79315  0.54140  0.82276  1.0000
  C   C1854     1.0  0.79008  0.98794  0.71629  1.0000
  H   H2954     1.0  0.91998  0.66241  0.85730  1.0000
  H   H2955     1.0  0.82197  0.53215  0.80593  1.0000
  H   H2956     1.0  0.79500  0.55627  0.82125  1.0000
  H   H2957     1.0  0.80877  0.79663  0.76109  1.0000
  H   H2958     1.0  0.80757  0.81498  0.77467  1.0000
  H   H2959     1.0  0.84243  0.78055  0.76764  1.0000
  C   C1855     1.0  0.77407  0.56179  0.95533  1.0000
  C   C1856     1.0  0.77206  0.54654  0.94743  1.0000
  H   H2960     1.0  0.79282  0.58838  0.77338  1.0000
  C   C1857     1.0  0.85096  0.72544  0.70981  1.0000
  C   C1858     1.0  0.86466  0.58675  0.65964  1.0000
  C   C1859     1.0  0.76733  0.56448  0.78031  1.0000
  C   C1860     1.0  0.89578  0.70964  0.76292  1.0000
  C   C1861     1.0  0.89648  0.68983  0.77202  1.0000
  C   C1862     1.0  0.90455  0.68200  0.78895  1.0000
  C   C1863     1.0  0.91149  0.69410  0.79711  1.0000
  C   C1864     1.0  0.91018  0.71408  0.78840  1.0000
  C   C1865     1.0  0.90257  0.72180  0.77115  1.0000
  H   H2961     1.0  0.89128  0.68035  0.76570  1.0000
  H   H2962     1.0  0.90554  0.66654  0.79554  1.0000
  H   H2963     1.0  0.91555  0.72347  0.79466  1.0000
  H   H2964     1.0  0.90183  0.73717  0.76431  1.0000
  H   H2965     1.0  0.92824  0.72115  0.65820  1.0000
  S   S759      1.0  0.84179  0.50791  0.74773  1.0000
  C   C1866     1.0  0.86194  0.56013  0.68844  1.0000
  C   C1867     1.0  0.84749  0.57289  0.69891  1.0000
  C   C1868     1.0  0.84152  0.59246  0.68967  1.0000
  C   C1869     1.0  0.85011  0.59939  0.67012  1.0000
  H   H2966     1.0  0.86644  0.54492  0.69541  1.0000
  H   H2967     1.0  0.83024  0.60237  0.69763  1.0000
  H   H2968     1.0  0.78488  0.53713  0.75846  1.0000
  S   S760      1.0  0.77113  0.89869  0.68876  1.0000
  C   C1870     1.0  0.75826  0.98663  0.79113  1.0000
  H   H2969     1.0  0.75205  0.88491  0.77767  1.0000
  C   C1871     1.0  0.84276  0.84964  0.68464  1.0000
  C   C1872     1.0  0.84838  0.85624  0.69877  1.0000
  C   C1873     1.0  0.86515  0.84582  0.70642  1.0000
  C   C1874     1.0  0.87597  0.82838  0.70052  1.0000
  C   C1875     1.0  0.87059  0.82197  0.68609  1.0000
  C   C1876     1.0  0.85412  0.83271  0.67801  1.0000
  H   H2970     1.0  0.83996  0.86953  0.70363  1.0000
  H   H2971     1.0  0.86951  0.85107  0.71726  1.0000
  C   C1877     1.0  0.78207  0.95877  0.71114  1.0000
  C   C1878     1.0  0.77625  0.97650  0.71784  1.0000
  H   H2972     1.0  0.75646  0.97322  0.80276  1.0000
  H   H2973     1.0  0.94576  0.71818  0.76233  1.0000
  C   C1879     1.0  0.81561  0.96420  0.70091  1.0000
  C   C1880     1.0  0.80186  0.95245  0.70296  1.0000
  H   H2974     1.0  0.85001  0.82768  0.66689  1.0000
  H   H2975     1.0  0.77030  0.55530  0.79468  1.0000
  H   H2976     1.0  0.83079  0.95955  0.69401  1.0000
  H   H2977     1.0  0.80645  0.93882  0.69768  1.0000
  H   H2978     1.0  0.86126  0.79485  0.76129  1.0000
  C   C1881     1.0  0.79487  0.54412  0.76290  1.0000
  H   H2979     1.0  0.88738  0.72061  0.68687  1.0000
  H   H2980     1.0  0.78699  0.85877  0.66352  1.0000
  H   H2981     1.0  0.87906  0.80870  0.68120  1.0000
  H   H2982     1.0  0.86633  0.67716  0.89765  1.0000
  H   H2983     1.0  0.85002  0.69867  0.67716  1.0000
  H   H2984     1.0  0.87911  0.65209  0.89894  1.0000
  H   H2985     1.0  0.89148  0.61335  0.70180  1.0000
  C   C1882     1.0  0.83983  0.80535  0.73308  1.0000
  H   H2986     1.0  0.88187  0.70380  0.87309  1.0000
  N   N187      1.0  0.83276  0.57117  0.91188  1.0000
  C   C1883     1.0  0.84444  0.56485  0.92754  1.0000
  C   C1884     1.0  0.84586  0.57618  0.89268  1.0000
  C   C1885     1.0  0.81735  0.58864  0.91558  1.0000
  C   C1886     1.0  0.82337  0.55503  0.91176  1.0000
  H   H2987     1.0  0.83505  0.56067  0.94221  1.0000
  H   H2988     1.0  0.85145  0.57682  0.92827  1.0000
  H   H2989     1.0  0.85640  0.55186  0.92509  1.0000
  H   H2990     1.0  0.85763  0.56331  0.88934  1.0000
  H   H2991     1.0  0.83754  0.58126  0.88050  1.0000
  H   H2992     1.0  0.85333  0.58816  0.89243  1.0000
  H   H2993     1.0  0.80817  0.59383  0.90412  1.0000
  H   H2994     1.0  0.82388  0.60110  0.91582  1.0000
  H   H2995     1.0  0.80728  0.58541  0.93001  1.0000
  H   H2996     1.0  0.81419  0.55936  0.90030  1.0000
  H   H2997     1.0  0.81352  0.55084  0.92615  1.0000
  H   H2998     1.0  0.83453  0.54160  0.90894  1.0000
  H   H2999     1.0  0.96536  0.77631  0.71379  1.0000
  H   H3000     1.0  0.90499  0.69395  0.88109  1.0000
  H   H3001     1.0  0.88928  0.66886  0.90617  1.0000
  H   H3002     1.0  0.95371  0.68272  0.73008  1.0000
  H   H3003     1.0  0.91491  0.57497  0.68908  1.0000
  C   C1887     1.0  0.87045  0.56704  0.66879  1.0000
  C   C1888     1.0  0.89587  0.69277  0.87108  1.0000
  H   H3004     1.0  0.80863  0.54368  0.75151  1.0000
  H   H3005     1.0  0.75644  0.55842  0.77614  1.0000
  C   C1889     1.0  0.88040  0.67172  0.86097  1.0000
  C   C1890     1.0  0.77311  0.84533  0.80844  1.0000
  H   H3006     1.0  0.78317  0.53312  0.94784  1.0000
  H   H3007     1.0  0.96502  0.66507  0.76110  1.0000
  H   H3008     1.0  0.90892  0.64326  0.87426  1.0000
  H   H3009     1.0  0.88169  0.69734  0.70037  1.0000
  C   C1891     1.0  0.88121  0.66755  0.89529  1.0000
  N   N188      1.0  0.89212  0.67264  0.87493  1.0000
  H   H3010     1.0  0.88161  0.55715  0.66071  1.0000
  H   H3011     1.0  0.98901  0.67718  0.73214  1.0000
  H   H3012     1.0  0.75955  0.51221  0.84391  1.0000
  S   S761      1.0  0.92972  0.77790  0.67861  1.0000
  C   C1892     1.0  0.79942  0.57311  0.77118  1.0000
  H   H3013     1.0  0.85734  0.73116  0.66036  1.0000
  H   H3014     1.0  0.88828  0.67542  0.84547  1.0000
  S   S762      1.0  0.81373  0.63177  0.98192  1.0000
  H   H3015     1.0  0.83319  0.83462  0.76581  1.0000
  H   H3016     1.0  0.89712  0.56024  0.70273  1.0000
  C   C1893     1.0  0.78335  0.84434  0.66429  1.0000
  H   H3017     1.0  0.76706  0.84640  0.66732  1.0000
  H   H3018     1.0  0.83760  0.74332  0.67664  1.0000
  H   H3019     1.0  0.84780  0.69113  0.70332  1.0000
  H   H3020     1.0  0.86232  0.74690  0.67357  1.0000
  C   C1894     1.0  0.98058  0.76961  0.71454  1.0000
  H   H3021     1.0  0.87719  0.58936  0.74196  1.0000
  C   C1895     1.0  0.87823  0.70972  0.68799  1.0000
  H   H3022     1.0  0.87574  0.56811  0.73389  1.0000
  H   H3023     1.0  0.98853  0.70308  0.72402  1.0000
  H   H3024     1.0  0.98543  0.79313  0.72541  1.0000
  C   C1896     1.0  0.87886  0.58323  0.72873  1.0000
  H   H3025     1.0  0.84098  0.79892  0.78135  1.0000
  H   H3026     1.0  0.78634  0.83402  0.80882  1.0000
  C   C1897     1.0  0.78087  0.57644  0.74625  1.0000
  H   H3027     1.0  0.95378  0.70850  0.72147  1.0000
  H   H3028     1.0  0.81324  0.57364  0.75994  1.0000
  H   H3029     1.0  0.91082  0.55514  0.73327  1.0000
  H   H3030     1.0  0.82950  0.71056  0.69300  1.0000
  N   N189      1.0  0.96505  0.69557  0.74794  1.0000
  H   H3031     1.0  0.85377  0.71299  0.72236  1.0000
  H   H3032     1.0  0.85605  0.80333  0.72788  1.0000
  H   H3033     1.0  0.88915  0.58482  0.68978  1.0000
  H   H3034     1.0  0.91368  0.57621  0.74065  1.0000
  C   C1898     1.0  0.75487  0.66741  0.96583  1.0000
  H   H3035     1.0  0.92011  0.65827  0.88298  1.0000
  H   H3036     1.0  0.83290  0.81711  0.72192  1.0000
  C   C1899     1.0  0.75559  0.54842  0.93919  1.0000
  H   H3037     1.0  0.77393  0.59196  0.74739  1.0000
  H   H3038     1.0  0.78899  0.80724  0.65953  1.0000
  H   H3039     1.0  0.83025  0.84163  0.74082  1.0000
  H   H3040     1.0  0.94641  0.68210  0.77349  1.0000
  S   S763      1.0  0.83146  0.58923  0.96817  1.0000
  H   H3041     1.0  0.88317  0.70382  0.67427  1.0000
  C   C1900     1.0  0.81257  0.81105  0.75991  1.0000
  H   H3042     1.0  0.97148  0.67848  0.77581  1.0000
  C   C1901     1.0  0.85338  0.73581  0.67472  1.0000
  H   H3043     1.0  0.78862  0.83396  0.67719  1.0000
  S   S764      1.0  0.78905  0.85669  0.76988  1.0000
  C   C1902     1.0  0.90244  0.60337  0.71039  1.0000
  H   H3044     1.0  0.93581  0.70041  0.74237  1.0000
  H   H3045     1.0  0.90155  0.60960  0.72340  1.0000
  H   H3046     1.0  0.86595  0.68213  0.86255  1.0000
  C   C1903     1.0  0.77073  0.85907  0.79107  1.0000
  C   C1904     1.0  0.96189  0.67962  0.76532  1.0000
  H   H3047     1.0  0.91734  0.60382  0.70104  1.0000
  N   N190      1.0  0.85702  0.71878  0.69093  1.0000
  H   H3048     1.0  0.81880  0.82112  0.65628  1.0000
  H   H3049     1.0  0.87742  0.65675  0.86328  1.0000
  H   H3050     1.0  0.76019  0.57957  0.78285  1.0000
  H   H3051     1.0  0.83573  0.79134  0.73321  1.0000
  C   C1905     1.0  0.75955  0.57901  0.95487  1.0000
  H   H3052     1.0  0.80379  0.82238  0.74991  1.0000
  Fe  Fe382     1.0  0.84512  0.50672  0.77824  1.0000
  H   H3053     1.0  0.84524  0.61448  0.66309  1.0000
  C   C1906     1.0  0.91110  0.65854  0.87227  1.0000
  H   H3054     1.0  0.85944  0.73645  0.71001  1.0000
  Fe  Fe383     1.0  0.87392  0.49417  0.74287  1.0000
  S   S765      1.0  0.79480  0.55889  0.96573  1.0000
  N   N191      1.0  0.89877  0.58309  0.71638  1.0000
  C   C1907     1.0  0.84556  0.70413  0.69117  1.0000
  C   C1908     1.0  0.75836  0.84601  0.82535  1.0000
  H   H3055     1.0  0.75046  0.68501  0.93744  1.0000
  C   C1909     1.0  0.90007  0.57544  0.69872  1.0000
  H   H3056     1.0  0.79883  0.53471  0.77684  1.0000
  C   C1910     1.0  0.75367  0.87385  0.79082  1.0000
  C   C1911     1.0  0.98563  0.69132  0.73723  1.0000
  S   S766      1.0  0.97563  0.73972  0.69937  1.0000
  H   H3057     1.0  0.76096  0.59076  0.96099  1.0000
  H   H3058     1.0  0.76027  0.83525  0.83870  1.0000
  H   H3059     1.0  0.76824  0.65799  0.95994  1.0000
  C   C1912     1.0  0.95150  0.69683  0.73490  1.0000
  C   C1913     1.0  0.96117  0.71451  0.75427  1.0000
  C   C1914     1.0  0.80973  0.98209  0.70738  1.0000
  H   H3060     1.0  0.92879  0.56924  0.71861  1.0000
  H   H3061     1.0  0.86722  0.59223  0.72049  1.0000
  N   N192      1.0  0.83389  0.81047  0.75270  1.0000
  C   C1915     1.0  0.84510  0.79551  0.76640  1.0000
  C   C1916     1.0  0.83810  0.82998  0.75139  1.0000
  H   H3062     1.0  0.77057  0.57037  0.74117  1.0000
  H   H3063     1.0  0.79438  0.57678  0.73450  1.0000
  H   H3064     1.0  0.83503  0.73230  0.71263  1.0000
  H   H3065     1.0  0.80371  0.56427  0.78513  1.0000
  C   C1917     1.0  0.99197  0.77912  0.72110  1.0000
  Fe  Fe384     1.0  0.80017  0.58550  0.97354  1.0000
  C   C1918     1.0  0.98901  0.75168  0.70865  1.0000
  H   H3066     1.0  0.75357  0.76277  0.91477  1.0000
  C   C1919     1.0  0.78294  0.73335  0.65371  1.0000
  H   H3067     1.0  0.99206  0.63329  0.83506  1.0000
  H   H3068     1.0  0.97109  0.71416  0.76414  1.0000
  C   C1920     1.0  0.78694  0.71309  0.65436  1.0000
  H   H3069     1.0  0.75405  0.53649  0.93335  1.0000
  S   S767      1.0  0.87670  0.49140  0.77385  1.0000
  S   S768      1.0  0.82377  0.49227  0.80294  1.0000
  H   H3070     1.0  0.77491  0.70534  0.65795  1.0000
  H   H3071     1.0  0.77345  0.98898  0.78948  1.0000
  H   H3072     1.0  0.93132  0.68791  0.65205  1.0000
