data_image0
_chemical_formula_structural       CHCSFeCH2SH6FeSHFeS2FeSFeS4CH8C2HSCSH2C2H3FeCSHC2NCFeH3CH3CHC8H4C6H4CHCHC2HCH8C3HC2HS2HSH3SH4SNH3FeHCNSCHFeC2HSFeCSCH5NH3C3HCH2C2H5C2HC2H2SCFeS2FeS2FeSFeS4FeS2NCHC3HFeHCH3CHCH2CH4FeC6H4C6H6Fe3C2FeHSNCSHSH2NC4H2CSHSHC2HNH2CH2S2H2CH3SNC4H13CH3SHNHC2H3CHCH5SCH4CH3S2HCHCFeCH2CS2C4SH3SHFeC2HCH2C2SCH2C3HC2H2CH3CHCHNHCHNCH2SHFeC2HSCH2SHCH2CHCHCH5CH4CH2CH3FeS2HC5FeS2FeSFeSFeS3C3H2C6H3CFeH3FeCHFe2S2HC2SH3C4NH4NC4H8SHS2NFeH6FeSHS2CH3CH7C2HSNCSNH4C2H2CHC2HSHC2FeSHCH3S2FeCHCSH2SHC4H3C2HCFeHCS2CH2NC3H3CHFeCH4C5SCH2C2H2C2SH4CHSH4CHSCHCH2C2H3CHCH2SHSH3CH5SH2FeHC6H3CH2CH2C2H2CH2C2HC2NSFeH3NH3CH3SFeH3CHSCH2CSHCNH2NHCSC2HCH2C4HSHSCH6C2S2CHFe2H3C2HC2HSC3FeSHFeSHFeS2FeCFeHS2H4CSCHC2HC3H2C2H2CNH3CH3CSC3H2C3H3C5H10NH2CS2CNCHC3H5CHNH3CH3CH3SC2H4CH2SHCH2CS2C2H4C2HSCH2C2HFeS2CH3FeCHSH2FeS2FeSCFeSFeHS2FeSFeS2FeSFeS3CFeSC6H7C2SC8H4S3HFeC4HCH2NHC6H13SH3CHC2H2CH5CH2CH2FeNC4H15SNC2HC2HSH3CNH3FeHS2CHCFeH3CSCHCH2CHFeHNH4CH8CH2CSHNH2CHCSH5CH3NHC4H6CHNH4CHCFeHCSHFeS2FeS2FeSFeS3C3H2NH5CH2CHC3HC4H3FeC6FeH3CHCH2CHCHCH5SNHC2H3CNCH2NCH2CH3SC2HSCNH3C2H3S2H4C2HCHCH5CHCHCH9C2HCHFeH2CH2NCH2CHSHSH2NHSC4FeHCHSH2FeSHSH4C6H2CH3C3SCHCH4C7H5SH2CHCHCHSC2NC2H7CFeH4CHFeHCHSHCH6NH4SHC2H2CSCHNHNSHS2C3HC2H3C4H2C2NHFeH2CHFeCSHCH4CH3C6HCH8C2HCNH2SHSH4SH2CH3FeH3NC2HCHCH2CH2SH7NH3CHFeC2FeHFeHNHCHC2H2SC3SCHCHFeH2SHNSCS2HSHCHSHSHSH2C3HCHCH3SHC2HCH2CH3Fe2SFeCHCHSH2SFeH3CHSFeH3SH3CH3SFeHSH3CH2CNC2SCH3Fe2SC2HSCHC2FeSCHCH4C3SCHCH2FeSHCHC2SC2NH4SHCH4NH2CFeCH3SHC2SFeS2HFeHCHFeSHCHCHSCH2C2SCFeH2SH2SH4CH2CHC3H6C2HCHSHC6H7SHFeH2NSFe2SFeHC2H4SCSHC3SCSH4NC3HCHSNCH2CH2FeH3CFeCSCH3FeS2FeS2FeHFeS3FeS2FeH2FeSFeS2C2H2CSH3CH3SC6H5C6H3CH4CH2CHFeCSC2H6NH9C4HCSH2SHSC3H3CHC2H2NH2NCHCH8CHNCNH2CHCH4CHC5H2FeCSH3FeSCFeS2CHC3HC2H3CHC2FeHCHFeHNSHCH2SCHCSHCH2CHS2HCHCH2CHCSHFeH5CH4CSHFeHSHFeH2C2SFeS2FeS2HCHCHFeS2FeSNCFeSHS2FeSCSH2SC6H5C6H5C2H2CH4CSCHCHC5SH2C3HNCFeCH4NC4H12NC4H12CHC2H3CHNC2H2SCHFeHC2SH4CH3CHC2H3SCH3Fe2SHSC2H7CH12SHC2NH2FeHCH2SFeSFeS2H2CSHFeS2HCHFeSCHS2C2H3CS2C2HNC3HCH3C2H3SCHSFeC2HFeC2H5SHC3H3C3HFeCHCH3C3SNHSFeCHSHC2H2Fe2H5CSNC3H9S2FeHCSHNHNH3SH3C3SH4NCH5FeH3C2HCFeCH2C2FeNS4CH4CH3FeSCFeSFeS2HCHCFeNHC2H2CH2C4FeH4C2SHC2HCFeCHFeHSHSCHSHCSH2CHSH2FeHC2HNHFeCH3CH2CH2SHFeCSHSHCHNCH4C2H2CS2H3NCH2S2C3HFeSH3Fe2S2Fe3S3C3FeS2H3CHFeH2SH3SHCHSNH4FeCFeC6H3C4HCH2CH2SCHSCH4CHCH2CFeC3SH4SHSHCSCH2NC2H5FeSHC2HCH3SCH2CHFeSHNHCH3CH3CH2SH4C2HNC2HSCHCHC3H3CSC3NSHC2FeH4FeSH2CSHCHC2SHCHCHCH5CSHCH2CH3FeH4C3H3C2H2NH3C2HCH4CH3CH2FeSFeS2CHCS2FeS2FeS2FeSFeS3CHSCH2CNH2C2HC2H2CFeC6H4C6H4CHCH2C6H4CH2SHFeH7CH10CFeH2SCHSHSNC2H3CH2NH2S2HCNH2NC3H2SH8FeHNHC2HCH5CHCHCHCHC3SCFeH2SCH3C3H4CHFeC2HFeS2HCHCS2HFeS2FeS2FeSFeS3HCHCSHCHC2H2C2H5NHC2HSCH2C6H4C3H3C7H4CH5CH3NH5C3HC3H2CNC4H12FeCH5FeH2CH2CH2NC4HSC2
_chemical_formula_sum              "C960 H1536 S384 Fe192 N96"
_cell_length_a       54.3848
_cell_length_b       54.0279
_cell_length_c       71.3618
_cell_angle_alpha    81.3494
_cell_angle_beta     81.2755
_cell_angle_gamma    106.791

_space_group_name_H-M_alt    "P 1"
_space_group_IT_number       1

loop_
  _space_group_symop_operation_xyz
  'x, y, z'

loop_
  _atom_site_type_symbol
  _atom_site_label
  _atom_site_symmetry_multiplicity
  _atom_site_fract_x
  _atom_site_fract_y
  _atom_site_fract_z
  _atom_site_occupancy
  C   C1        1.0  0.44310  0.00697  0.17157  1.0000
  H   H1        1.0  0.47637  0.19095  0.11312  1.0000
  C   C2        1.0  0.46964  0.00908  0.16671  1.0000
  S   S1        1.0  0.46794  0.09931  0.19421  1.0000
  Fe  Fe1       1.0  0.46860  0.06261  0.18322  1.0000
  C   C3        1.0  0.36508  0.01318  0.20310  1.0000
  H   H2        1.0  0.34690  0.01464  0.19835  1.0000
  H   H3        1.0  0.37511  0.03239  0.20678  1.0000
  S   S2        1.0  0.43408  0.03464  0.17565  1.0000
  H   H4        1.0  0.42997  0.06856  0.22881  1.0000
  H   H5        1.0  0.39277  0.00918  0.23113  1.0000
  H   H6        1.0  0.46353  0.21045  0.14128  1.0000
  H   H7        1.0  0.37836  0.01093  0.19043  1.0000
  H   H8        1.0  0.47016  0.23488  0.10752  1.0000
  H   H9        1.0  0.32124  0.99287  0.23185  1.0000
  Fe  Fe2       1.0  0.14472  0.20902  0.44692  1.0000
  S   S3        1.0  0.17253  0.20563  0.42168  1.0000
  H   H10       1.0  0.18500  0.13715  0.42621  1.0000
  Fe  Fe3       1.0  0.12525  0.24696  0.42284  1.0000
  S   S4        1.0  0.15115  0.24742  0.39495  1.0000
  S   S5        1.0  0.09410  0.26631  0.42788  1.0000
  Fe  Fe4       1.0  0.13965  0.20363  0.40592  1.0000
  S   S6        1.0  0.13155  0.17510  0.38603  1.0000
  Fe  Fe5       1.0  0.18235  0.24970  0.41257  1.0000
  S   S7        1.0  0.22550  0.27130  0.40045  1.0000
  S   S8        1.0  0.11080  0.20291  0.43203  1.0000
  S   S9        1.0  0.15749  0.25324  0.43965  1.0000
  S   S10       1.0  0.08766  0.05433  0.42570  1.0000
  C   C4        1.0  0.01743  0.12803  0.39855  1.0000
  H   H11       1.0  0.07182  0.19710  0.48042  1.0000
  H   H12       1.0  0.07547  0.17483  0.39698  1.0000
  H   H13       1.0  0.24850  0.28558  0.43301  1.0000
  H   H14       1.0  0.05702  0.14751  0.41644  1.0000
  H   H15       1.0  0.25402  0.27824  0.47526  1.0000
  H   H16       1.0  0.08975  0.26906  0.47801  1.0000
  H   H17       1.0  0.06243  0.11573  0.39616  1.0000
  H   H18       1.0  0.34791  0.01333  0.24008  1.0000
  C   C5        1.0  0.39971  0.05120  0.28378  1.0000
  C   C6        1.0  0.44592  0.04641  0.36404  1.0000
  H   H19       1.0  0.42651  0.00721  0.33251  1.0000
  S   S11       1.0  0.13689  0.18733  0.47764  1.0000
  C   C7        1.0  0.42900  0.03036  0.35458  1.0000
  S   S12       1.0  0.33497  0.01898  0.33693  1.0000
  H   H20       1.0  0.19824  0.30152  0.46609  1.0000
  H   H21       1.0  0.43798  0.05508  0.37525  1.0000
  C   C8        1.0  0.43792  0.06876  0.25745  1.0000
  C   C9        1.0  0.42689  0.06294  0.27725  1.0000
  H   H22       1.0  0.23598  0.99784  0.43615  1.0000
  H   H23       1.0  0.44981  0.02252  0.24913  1.0000
  H   H24       1.0  0.43941  0.06708  0.28760  1.0000
  Fe  Fe6       1.0  0.16021  0.02139  0.43543  1.0000
  C   C10       1.0  0.26467  0.31779  0.38437  1.0000
  S   S13       1.0  0.17742  0.01349  0.36656  1.0000
  H   H25       1.0  0.03597  0.15331  0.36101  1.0000
  C   C11       1.0  0.04340  0.16402  0.37219  1.0000
  C   C12       1.0  0.43945  0.01930  0.34001  1.0000
  N   N1        1.0  0.25547  0.02820  0.41070  1.0000
  C   C13       1.0  0.46671  0.02366  0.33544  1.0000
  Fe  Fe7       1.0  0.11417  0.03005  0.42002  1.0000
  H   H26       1.0  0.00441  0.13960  0.40313  1.0000
  H   H27       1.0  0.17869  0.10241  0.42670  1.0000
  H   H28       1.0  0.00066  0.23298  0.42581  1.0000
  C   C14       1.0  0.26885  0.01168  0.40126  1.0000
  H   H29       1.0  0.03011  0.17560  0.37600  1.0000
  H   H30       1.0  0.47485  0.01480  0.32451  1.0000
  H   H31       1.0  0.22013  0.03866  0.41071  1.0000
  C   C15       1.0  0.25981  0.29855  0.46628  1.0000
  H   H32       1.0  0.43288  0.01295  0.29311  1.0000
  C   C16       1.0  0.43483  0.00350  0.25701  1.0000
  C   C17       1.0  0.39438  0.05270  0.25064  1.0000
  C   C18       1.0  0.12157  0.14190  0.39785  1.0000
  C   C19       1.0  0.10612  0.13370  0.41658  1.0000
  C   C20       1.0  0.09559  0.10669  0.42500  1.0000
  C   C21       1.0  0.10152  0.08796  0.41508  1.0000
  C   C22       1.0  0.11787  0.09624  0.39669  1.0000
  C   C23       1.0  0.12742  0.12317  0.38792  1.0000
  H   H33       1.0  0.10149  0.14807  0.42428  1.0000
  H   H34       1.0  0.08287  0.10029  0.43922  1.0000
  H   H35       1.0  0.12239  0.08183  0.38894  1.0000
  H   H36       1.0  0.13930  0.12949  0.37339  1.0000
  C   C24       1.0  0.06747  0.25034  0.41821  1.0000
  C   C25       1.0  0.07181  0.23822  0.40262  1.0000
  C   C26       1.0  0.05066  0.22488  0.39507  1.0000
  C   C27       1.0  0.02491  0.22250  0.40359  1.0000
  C   C28       1.0  0.02048  0.23469  0.41918  1.0000
  C   C29       1.0  0.04181  0.24892  0.42633  1.0000
  H   H37       1.0  0.09158  0.23954  0.39613  1.0000
  H   H38       1.0  0.05436  0.21631  0.38265  1.0000
  H   H39       1.0  0.19093  0.09638  0.45878  1.0000
  H   H40       1.0  0.03837  0.25839  0.43833  1.0000
  C   C30       1.0  0.06831  0.25906  0.47981  1.0000
  H   H41       1.0  0.21948  0.31312  0.48221  1.0000
  C   C31       1.0  0.23820  0.30600  0.39364  1.0000
  H   H42       1.0  0.27354  0.01810  0.38518  1.0000
  C   C32       1.0  0.07630  0.21861  0.47476  1.0000
  C   C33       1.0  0.06099  0.12968  0.38351  1.0000
  H   H43       1.0  0.01737  0.11387  0.41163  1.0000
  C   C34       1.0  0.18179  0.11152  0.46242  1.0000
  H   H44       1.0  0.05315  0.11778  0.37303  1.0000
  H   H45       1.0  0.06322  0.17835  0.36543  1.0000
  H   H46       1.0  0.23466  0.03353  0.38782  1.0000
  H   H47       1.0  0.12290  0.08411  0.45088  1.0000
  H   H48       1.0  0.26326  0.06896  0.41266  1.0000
  H   H49       1.0  0.08135  0.14251  0.37644  1.0000
  H   H50       1.0  0.04289  0.17243  0.40868  1.0000
  H   H51       1.0  0.14062  0.12797  0.47358  1.0000
  C   C35       1.0  0.18468  0.99546  0.47450  1.0000
  C   C36       1.0  0.24929  0.01865  0.43195  1.0000
  C   C37       1.0  0.23087  0.02655  0.40381  1.0000
  H   H52       1.0  0.13176  0.13224  0.45035  1.0000
  C   C38       1.0  0.23138  0.28354  0.44459  1.0000
  C   C39       1.0  0.38347  0.04539  0.27052  1.0000
  H   H53       1.0  0.19264  0.20904  0.46326  1.0000
  S   S14       1.0  0.47212  0.08008  0.24969  1.0000
  S   S15       1.0  0.15752  0.04690  0.40870  1.0000
  H   H54       1.0  0.26532  0.31249  0.47608  1.0000
  S   S16       1.0  0.18960  0.04239  0.45123  1.0000
  H   H55       1.0  0.22450  0.26285  0.45285  1.0000
  H   H56       1.0  0.27664  0.30548  0.38108  1.0000
  H   H57       1.0  0.27765  0.30121  0.45521  1.0000
  S   S17       1.0  0.10939  0.99644  0.40425  1.0000
  H   H58       1.0  0.19744  0.13109  0.45835  1.0000
  H   H59       1.0  0.16301  0.15184  0.45352  1.0000
  H   H60       1.0  0.00836  0.11633  0.38835  1.0000
  H   H61       1.0  0.21539  0.28633  0.43733  1.0000
  S   S18       1.0  0.11709  0.00668  0.44782  1.0000
  N   N2        1.0  0.15989  0.11141  0.45238  1.0000
  H   H62       1.0  0.06332  0.26303  0.46534  1.0000
  H   H63       1.0  0.13178  0.07988  0.47412  1.0000
  H   H64       1.0  0.00784  0.26728  0.46988  1.0000
  Fe  Fe8       1.0  0.15356  0.01067  0.39603  1.0000
  H   H65       1.0  0.39133  0.04682  0.29910  1.0000
  C   C40       1.0  0.05541  0.16077  0.40349  1.0000
  N   N3        1.0  0.04431  0.14561  0.38944  1.0000
  S   S19       1.0  0.35008  0.02704  0.27867  1.0000
  C   C41       1.0  0.22584  0.00955  0.35244  1.0000
  H   H66       1.0  0.22825  0.02662  0.34137  1.0000
  Fe  Fe9       1.0  0.34363  0.00485  0.30930  1.0000
  C   C42       1.0  0.18833  0.21177  0.47797  1.0000
  C   C43       1.0  0.16982  0.11734  0.43120  1.0000
  H   H67       1.0  0.29160  0.05795  0.41073  1.0000
  S   S20       1.0  0.39497  0.02359  0.36227  1.0000
  Fe  Fe10      1.0  0.36658  0.00310  0.34533  1.0000
  C   C44       1.0  0.42162  0.06391  0.24412  1.0000
  S   S21       1.0  0.99879  0.20325  0.39490  1.0000
  C   C45       1.0  0.24650  0.99879  0.35301  1.0000
  H   H68       1.0  0.02761  0.22092  0.47415  1.0000
  H   H69       1.0  0.45802  0.99924  0.29852  1.0000
  H   H70       1.0  0.07198  0.22112  0.45996  1.0000
  H   H71       1.0  0.14787  0.06936  0.45437  1.0000
  H   H72       1.0  0.20243  0.31305  0.40504  1.0000
  N   N4        1.0  0.23825  0.30272  0.45718  1.0000
  H   H73       1.0  0.17498  0.10710  0.47845  1.0000
  H   H74       1.0  0.15378  0.11730  0.42318  1.0000
  H   H75       1.0  0.46569  0.02755  0.27923  1.0000
  C   C46       1.0  0.47308  0.05150  0.35901  1.0000
  C   C47       1.0  0.18764  0.02227  0.47335  1.0000
  C   C48       1.0  0.14831  0.13168  0.45768  1.0000
  H   H76       1.0  0.26736  0.01942  0.43769  1.0000
  C   C49       1.0  0.13970  0.08505  0.45822  1.0000
  H   H77       1.0  0.23925  0.03076  0.43954  1.0000
  H   H78       1.0  0.38194  0.04936  0.24026  1.0000
  C   C50       1.0  0.45049  0.00831  0.28654  1.0000
  C   C51       1.0  0.27280  0.05595  0.40578  1.0000
  H   H79       1.0  0.20834  0.27871  0.48169  1.0000
  H   H80       1.0  0.22879  0.23095  0.47855  1.0000
  H   H81       1.0  0.27776  0.06370  0.38983  1.0000
  H   H82       1.0  0.09782  0.22803  0.47322  1.0000
  H   H83       1.0  0.28765  0.01256  0.40593  1.0000
  C   C52       1.0  0.22285  0.32199  0.39791  1.0000
  C   C53       1.0  0.21504  0.29892  0.47243  1.0000
  H   H84       1.0  0.21744  0.00587  0.40725  1.0000
  C   C54       1.0  0.98819  0.25819  0.47857  1.0000
  C   C55       1.0  0.20242  0.99873  0.36645  1.0000
  H   H85       1.0  0.26475  0.00757  0.34245  1.0000
  H   H86       1.0  0.41679  0.00812  0.26274  1.0000
  S   S22       1.0  0.37742  0.99255  0.31688  1.0000
  C   C56       1.0  0.34049  0.99402  0.23581  1.0000
  Fe  Fe11      1.0  0.24506  0.26774  0.57914  1.0000
  S   S23       1.0  0.21095  0.24136  0.60254  1.0000
  S   S24       1.0  0.28370  0.29707  0.58128  1.0000
  Fe  Fe12      1.0  0.22095  0.24460  0.54704  1.0000
  S   S25       1.0  0.18524  0.21631  0.56765  1.0000
  S   S26       1.0  0.22900  0.24724  0.51472  1.0000
  Fe  Fe13      1.0  0.18568  0.25053  0.58194  1.0000
  S   S27       1.0  0.14703  0.25707  0.59204  1.0000
  Fe  Fe14      1.0  0.21305  0.20920  0.58626  1.0000
  S   S28       1.0  0.20693  0.16744  0.60138  1.0000
  S   S29       1.0  0.21948  0.27973  0.55984  1.0000
  S   S30       1.0  0.24904  0.23455  0.56446  1.0000
  S   S31       1.0  0.16588  0.08180  0.55218  1.0000
  Fe  Fe15      1.0  0.01979  0.20927  0.56160  1.0000
  S   S32       1.0  0.03057  0.25314  0.55805  1.0000
  S   S33       1.0  0.05433  0.19458  0.55623  1.0000
  N   N5        1.0  0.44252  0.00899  0.69309  1.0000
  C   C57       1.0  0.20873  0.22434  0.48656  1.0000
  H   H87       1.0  0.44466  0.01384  0.62513  1.0000
  C   C58       1.0  0.43976  0.05121  0.62852  1.0000
  C   C59       1.0  0.45132  0.07615  0.63228  1.0000
  C   C60       1.0  0.13566  0.16150  0.55603  1.0000
  H   H88       1.0  0.06149  0.20462  0.51358  1.0000
  Fe  Fe16      1.0  0.35098  0.02389  0.66253  1.0000
  H   H89       1.0  0.42025  0.04596  0.62558  1.0000
  C   C61       1.0  0.15702  0.20582  0.50760  1.0000
  H   H90       1.0  0.26199  0.31348  0.64695  1.0000
  H   H91       1.0  0.08614  0.16139  0.56505  1.0000
  H   H92       1.0  0.47710  0.00538  0.67599  1.0000
  C   C62       1.0  0.22798  0.01760  0.61713  1.0000
  H   H93       1.0  0.41903  0.15424  0.69693  1.0000
  C   C63       1.0  0.29075  0.30875  0.60236  1.0000
  H   H94       1.0  0.99589  0.28952  0.64115  1.0000
  H   H95       1.0  0.08012  0.27381  0.61685  1.0000
  C   C64       1.0  0.17739  0.21922  0.51596  1.0000
  H   H96       1.0  0.47610  0.02172  0.70605  1.0000
  H   H97       1.0  0.45333  0.15751  0.63816  1.0000
  H   H98       1.0  0.08800  0.23522  0.50700  1.0000
  H   H99       1.0  0.10564  0.15156  0.60318  1.0000
  Fe  Fe17      1.0  0.00009  0.24876  0.53982  1.0000
  C   C65       1.0  0.12151  0.23989  0.58178  1.0000
  C   C66       1.0  0.09547  0.23286  0.59182  1.0000
  C   C67       1.0  0.07474  0.21960  0.58376  1.0000
  C   C68       1.0  0.08004  0.21270  0.56583  1.0000
  C   C69       1.0  0.10605  0.21971  0.55574  1.0000
  C   C70       1.0  0.12675  0.23355  0.56361  1.0000
  H   H100      1.0  0.09138  0.23731  0.60601  1.0000
  H   H101      1.0  0.05468  0.21404  0.59168  1.0000
  H   H102      1.0  0.11017  0.21479  0.54171  1.0000
  H   H103      1.0  0.14672  0.23962  0.55551  1.0000
  C   C71       1.0  0.19586  0.14376  0.58756  1.0000
  C   C72       1.0  0.18509  0.11702  0.59660  1.0000
  C   C73       1.0  0.17675  0.09775  0.58570  1.0000
  C   C74       1.0  0.17857  0.10523  0.56578  1.0000
  C   C75       1.0  0.18936  0.13199  0.55674  1.0000
  C   C76       1.0  0.19827  0.15120  0.56757  1.0000
  H   H104      1.0  0.18293  0.11114  0.61209  1.0000
  H   H105      1.0  0.16826  0.07720  0.59282  1.0000
  H   H106      1.0  0.19092  0.13788  0.54131  1.0000
  H   H107      1.0  0.20704  0.17175  0.56040  1.0000
  H   H108      1.0  0.17296  0.22298  0.53029  1.0000
  H   H109      1.0  0.18470  0.02466  0.52101  1.0000
  Fe  Fe18      1.0  0.39090  0.07665  0.64235  1.0000
  Fe  Fe19      1.0  0.34643  0.07404  0.67408  1.0000
  Fe  Fe20      1.0  0.33503  0.06203  0.63539  1.0000
  C   C77       1.0  0.99383  0.30148  0.62826  1.0000
  C   C78       1.0  0.18486  0.01650  0.50806  1.0000
  Fe  Fe21      1.0  0.15964  0.03942  0.56599  1.0000
  H   H110      1.0  0.10472  0.10863  0.59300  1.0000
  S   S34       1.0  0.31429  0.06555  0.61049  1.0000
  N   N6        1.0  0.06103  0.23040  0.48762  1.0000
  C   C79       1.0  0.12002  0.12102  0.58021  1.0000
  S   S35       1.0  0.33507  0.09349  0.69812  1.0000
  H   H111      1.0  0.13930  0.12376  0.58443  1.0000
  S   S36       1.0  0.43398  0.09883  0.63272  1.0000
  H   H112      1.0  0.38645  0.08761  0.70049  1.0000
  H   H113      1.0  0.13355  0.15063  0.54399  1.0000
  N   N7        1.0  0.43243  0.15697  0.66647  1.0000
  C   C80       1.0  0.45449  0.01163  0.71026  1.0000
  C   C81       1.0  0.43704  0.15574  0.68643  1.0000
  C   C82       1.0  0.45657  0.15810  0.65315  1.0000
  C   C83       1.0  0.41097  0.13323  0.66584  1.0000
  H   H114      1.0  0.10554  0.00358  0.49666  1.0000
  H   H115      1.0  0.08503  0.28088  0.57261  1.0000
  C   C84       1.0  0.35594  0.10062  0.71452  1.0000
  S   S37       1.0  0.99106  0.20521  0.54185  1.0000
  H   H116      1.0  0.05215  0.28529  0.62067  1.0000
  S   S38       1.0  0.47248  0.11898  0.72381  1.0000
  H   H117      1.0  0.40679  0.18037  0.67011  1.0000
  C   C85       1.0  0.06607  0.28093  0.60949  1.0000
  C   C86       1.0  0.42505  0.18076  0.66039  1.0000
  H   H118      1.0  0.31283  0.31691  0.69548  1.0000
  N   N8        1.0  0.11621  0.14676  0.57395  1.0000
  H   H119      1.0  0.44326  0.13835  0.69130  1.0000
  H   H120      1.0  0.07420  0.13189  0.58348  1.0000
  C   C87       1.0  0.11979  0.16217  0.58937  1.0000
  H   H121      1.0  0.43625  0.04678  0.69092  1.0000
  H   H122      1.0  0.15604  0.16496  0.55827  1.0000
  S   S39       1.0  0.37825  0.05549  0.67333  1.0000
  S   S40       1.0  0.36083  0.09758  0.64365  1.0000
  H   H123      1.0  0.19046  0.05362  0.48919  1.0000
  H   H124      1.0  0.13996  0.16612  0.59238  1.0000
  C   C88       1.0  0.47674  0.08286  0.63590  1.0000
  H   H125      1.0  0.10715  0.31418  0.56653  1.0000
  H   H126      1.0  0.39223  0.13170  0.67548  1.0000
  H   H127      1.0  0.02064  0.22634  0.49828  1.0000
  S   S41       1.0  0.99837  0.26111  0.61044  1.0000
  N   N9        1.0  0.25943  0.11852  0.60523  1.0000
  C   C89       1.0  0.28457  0.11584  0.60913  1.0000
  C   C90       1.0  0.26464  0.13958  0.58792  1.0000
  C   C91       1.0  0.24549  0.12539  0.62212  1.0000
  C   C92       1.0  0.24307  0.09324  0.60176  1.0000
  H   H128      1.0  0.29550  0.11034  0.59678  1.0000
  H   H129      1.0  0.28138  0.10013  0.62214  1.0000
  H   H130      1.0  0.29754  0.13456  0.61171  1.0000
  H   H131      1.0  0.24608  0.14181  0.58437  1.0000
  H   H132      1.0  0.27637  0.15911  0.59017  1.0000
  H   H133      1.0  0.27549  0.13524  0.57495  1.0000
  H   H134      1.0  0.25709  0.14455  0.62501  1.0000
  H   H135      1.0  0.24131  0.10995  0.63546  1.0000
  H   H136      1.0  0.22639  0.12747  0.61970  1.0000
  H   H137      1.0  0.22391  0.09439  0.59884  1.0000
  H   H138      1.0  0.23882  0.07684  0.61449  1.0000
  H   H139      1.0  0.25290  0.08756  0.58902  1.0000
  H   H140      1.0  0.32911  0.11462  0.73203  1.0000
  C   C93       1.0  0.20328  0.22854  0.50542  1.0000
  H   H141      1.0  0.05431  0.26424  0.60379  1.0000
  H   H142      1.0  0.05549  0.23460  0.51735  1.0000
  H   H143      1.0  0.46339  0.14105  0.65787  1.0000
  S   S42       1.0  0.14208  0.02036  0.59721  1.0000
  H   H144      1.0  0.44082  0.19909  0.66074  1.0000
  N   N10       1.0  0.07985  0.30436  0.59382  1.0000
  H   H145      1.0  0.41592  0.10049  0.72314  1.0000
  C   C94       1.0  0.09670  0.29712  0.57874  1.0000
  C   C95       1.0  0.39711  0.10376  0.72500  1.0000
  H   H146      1.0  0.47292  0.17643  0.65246  1.0000
  H   H147      1.0  0.11193  0.29022  0.58468  1.0000
  H   H148      1.0  0.43655  0.03416  0.66911  1.0000
  C   C96       1.0  0.06679  0.22606  0.50722  1.0000
  H   H149      1.0  0.40732  0.13350  0.65091  1.0000
  C   C97       1.0  0.38037  0.09638  0.71218  1.0000
  H   H150      1.0  0.08601  0.13044  0.55884  1.0000
  H   H151      1.0  0.11684  0.18164  0.58526  1.0000
  H   H152      1.0  0.30362  0.01037  0.63696  1.0000
  H   H153      1.0  0.25087  0.29472  0.61840  1.0000
  H   H154      1.0  0.11954  0.10956  0.56845  1.0000
  S   S43       1.0  0.36662  0.04311  0.63126  1.0000
  C   C98       1.0  0.45364  0.03307  0.62818  1.0000
  H   H155      1.0  0.29450  0.00117  0.60540  1.0000
  H   H156      1.0  0.13362  0.18120  0.55111  1.0000
  H   H157      1.0  0.04682  0.29817  0.57987  1.0000
  H   H158      1.0  0.42144  0.18227  0.64538  1.0000
  C   C99       1.0  0.99417  0.29211  0.61094  1.0000
  H   H159      1.0  0.28284  0.05185  0.58264  1.0000
  H   H160      1.0  0.33169  0.00902  0.70149  1.0000
  H   H161      1.0  0.44589  0.02304  0.71958  1.0000
  S   S44       1.0  0.00930  0.27221  0.50952  1.0000
  S   S45       1.0  0.47414  0.17851  0.73017  1.0000
  H   H162      1.0  0.11136  0.31886  0.60829  1.0000
  C   C100      1.0  0.27049  0.04342  0.59691  1.0000
  H   H163      1.0  0.12365  0.99669  0.51483  1.0000
  C   C101      1.0  0.08946  0.14237  0.57018  1.0000
  Fe  Fe22      1.0  0.99702  0.24463  0.58320  1.0000
  C   C102      1.0  0.44570  0.03551  0.68201  1.0000
  H   H164      1.0  0.13696  0.19894  0.51562  1.0000
  H   H165      1.0  0.27284  0.03935  0.64459  1.0000
  C   C103      1.0  0.27104  0.30531  0.61848  1.0000
  S   S46       1.0  0.19359  0.02349  0.56428  1.0000
  S   S47       1.0  0.31747  0.04030  0.66613  1.0000
  C   C104      1.0  0.26500  0.03619  0.63178  1.0000
  C   C105      1.0  0.28105  0.04709  0.61341  1.0000
  C   C106      1.0  0.24400  0.02874  0.59875  1.0000
  C   C107      1.0  0.23859  0.02126  0.63362  1.0000
  S   S48       1.0  0.98879  0.20071  0.58842  1.0000
  H   H166      1.0  0.28733  0.29232  0.71349  1.0000
  H   H167      1.0  0.99182  0.30062  0.58091  1.0000
  H   H168      1.0  0.41591  0.11490  0.67029  1.0000
  S   S49       1.0  0.13403  0.00667  0.55481  1.0000
  H   H169      1.0  0.45285  0.17362  0.68748  1.0000
  Fe  Fe23      1.0  0.17437  0.00197  0.59486  1.0000
  C   C108      1.0  0.99151  0.30764  0.59434  1.0000
  C   C109      1.0  0.27741  0.31598  0.63462  1.0000
  H   H170      1.0  0.23606  0.02580  0.58597  1.0000
  C   C110      1.0  0.29343  0.31298  0.70515  1.0000
  H   H171      1.0  0.46682  0.04730  0.67675  1.0000
  H   H172      1.0  0.22620  0.01275  0.64788  1.0000
  C   C111      1.0  0.18815  0.03288  0.49005  1.0000
  C   C112      1.0  0.45559  0.99495  0.68069  1.0000
  S   S50       1.0  0.19488  0.99863  0.62003  1.0000
  C   C113      1.0  0.03269  0.21787  0.48869  1.0000
  H   H173      1.0  0.02643  0.19623  0.49458  1.0000
  H   H174      1.0  0.27935  0.31418  0.69549  1.0000
  C   C114      1.0  0.33698  0.99274  0.70858  1.0000
  C   C115      1.0  0.34802  0.11144  0.73007  1.0000
  C   C116      1.0  0.16248  0.20242  0.48852  1.0000
  H   H175      1.0  0.05778  0.26875  0.48946  1.0000
  C   C117      1.0  0.06035  0.31396  0.58526  1.0000
  C   C118      1.0  0.31687  0.32265  0.60262  1.0000
  H   H176      1.0  0.04797  0.32051  0.59612  1.0000
  H   H177      1.0  0.40361  0.00371  0.70877  1.0000
  C   C119      1.0  0.47910  0.03975  0.63169  1.0000
  H   H178      1.0  0.44759  0.99324  0.66729  1.0000
  H   H179      1.0  0.45131  0.99196  0.71940  1.0000
  H   H180      1.0  0.33433  0.99607  0.61542  1.0000
  C   C120      1.0  0.41427  0.99382  0.69938  1.0000
  H   H181      1.0  0.40464  0.99144  0.68674  1.0000
  C   C121      1.0  0.98354  0.25809  0.49846  1.0000
  H   H182      1.0  0.13304  0.99221  0.49075  1.0000
  N   N11       1.0  0.47783  0.23200  0.84040  1.0000
  H   H183      1.0  0.43860  0.21787  0.85760  1.0000
  C   C122      1.0  0.46310  0.04511  0.79470  1.0000
  H   H184      1.0  0.47425  0.19837  0.86237  1.0000
  N   N12       1.0  0.38366  0.03861  0.77703  1.0000
  C   C123      1.0  0.37348  0.03053  0.76006  1.0000
  H   H185      1.0  0.34806  0.04443  0.79024  1.0000
  H   H186      1.0  0.41577  0.07137  0.75950  1.0000
  S   S51       1.0  0.40906  0.12362  0.75706  1.0000
  H   H187      1.0  0.35210  0.01932  0.76408  1.0000
  Fe  Fe24      1.0  0.45242  0.13665  0.74535  1.0000
  C   C124      1.0  0.47139  0.21548  0.82595  1.0000
  C   C125      1.0  0.37970  0.01490  0.79198  1.0000
  H   H188      1.0  0.46553  0.99484  0.77172  1.0000
  S   S52       1.0  0.43209  0.99377  0.80736  1.0000
  C   C126      1.0  0.45699  0.01948  0.79119  1.0000
  H   H189      1.0  0.45617  0.19613  0.83276  1.0000
  H   H190      1.0  0.37622  0.04793  0.74845  1.0000
  S   S53       1.0  0.47938  0.13541  0.76603  1.0000
  H   H191      1.0  0.37720  0.06273  0.79744  1.0000
  C   C127      1.0  0.38915  0.11487  0.74040  1.0000
  H   H192      1.0  0.44543  0.24705  0.83918  1.0000
  H   H193      1.0  0.37117  0.07301  0.77400  1.0000
  C   C128      1.0  0.41198  0.05360  0.77104  1.0000
  H   H194      1.0  0.46399  0.22543  0.81427  1.0000
  C   C129      1.0  0.36442  0.11825  0.74309  1.0000
  H   H195      1.0  0.45322  0.04878  0.80783  1.0000
  C   C130      1.0  0.36937  0.05540  0.78508  1.0000
  H   H196      1.0  0.38345  0.01743  0.75380  1.0000
  H   H197      1.0  0.42013  0.06061  0.78339  1.0000
  H   H198      1.0  0.39039  0.00192  0.78652  1.0000
  H   H199      1.0  0.35807  0.12657  0.75510  1.0000
  H   H200      1.0  0.42349  0.04126  0.76545  1.0000
  C   C131      1.0  0.45395  0.23672  0.84988  1.0000
  H   H201      1.0  0.38715  0.02023  0.80503  1.0000
  H   H202      1.0  0.45839  0.24928  0.86080  1.0000
  H   H203      1.0  0.32861  0.00128  0.73695  1.0000
  H   H204      1.0  0.35860  0.00278  0.79660  1.0000
  C   C132      1.0  0.46994  0.01470  0.77429  1.0000
  H   H205      1.0  0.30856  0.31016  0.73953  1.0000
  H   H206      1.0  0.26179  0.30600  0.73966  1.0000
  C   C133      1.0  0.48166  0.06611  0.78104  1.0000
  H   H207      1.0  0.48160  0.28150  0.74167  1.0000
  H   H208      1.0  0.29676  0.57207  0.09536  1.0000
  H   H209      1.0  0.17501  0.60966  0.10840  1.0000
  Fe  Fe25      1.0  0.05663  0.56529  0.22311  1.0000
  S   S54       1.0  0.39101  0.60702  0.22573  1.0000
  S   S55       1.0  0.05612  0.57707  0.19164  1.0000
  H   H210      1.0  0.22865  0.47821  0.08344  1.0000
  C   C134      1.0  0.24887  0.58287  0.12621  1.0000
  C   C135      1.0  0.28211  0.56346  0.13332  1.0000
  C   C136      1.0  0.25101  0.53536  0.01099  1.0000
  C   C137      1.0  0.44549  0.52741  0.22420  1.0000
  C   C138      1.0  0.43561  0.56655  0.23084  1.0000
  Fe  Fe26      1.0  0.40538  0.58265  0.06229  1.0000
  S   S56       1.0  0.39140  0.55422  0.09086  1.0000
  S   S57       1.0  0.43657  0.58211  0.03806  1.0000
  Fe  Fe27      1.0  0.36711  0.61185  0.07207  1.0000
  S   S58       1.0  0.34985  0.58655  0.10180  1.0000
  Fe  Fe28      1.0  0.39158  0.59008  0.10330  1.0000
  S   S59       1.0  0.40954  0.59447  0.12953  1.0000
  Fe  Fe29      1.0  0.35104  0.55321  0.08677  1.0000
  S   S60       1.0  0.31727  0.51541  0.09419  1.0000
  S   S61       1.0  0.40892  0.61877  0.07484  1.0000
  S   S62       1.0  0.36506  0.57823  0.05690  1.0000
  C   C139      1.0  0.29097  0.51629  0.08281  1.0000
  C   C140      1.0  0.29134  0.53944  0.07078  1.0000
  C   C141      1.0  0.26846  0.49410  0.08705  1.0000
  H   H211      1.0  0.30875  0.55651  0.06712  1.0000
  H   H212      1.0  0.26810  0.47607  0.09623  1.0000
  C   C142      1.0  0.39736  0.52448  0.00289  1.0000
  C   C143      1.0  0.38912  0.51895  0.02304  1.0000
  C   C144      1.0  0.40102  0.53679  0.03392  1.0000
  C   C145      1.0  0.42194  0.55948  0.02470  1.0000
  C   C146      1.0  0.43089  0.56446  0.00464  1.0000
  C   C147      1.0  0.46311  0.49998  0.04441  1.0000
  H   H213      1.0  0.37285  0.50143  0.03017  1.0000
  H   H214      1.0  0.39392  0.53296  0.04942  1.0000
  H   H215      1.0  0.44701  0.58208  0.99749  1.0000
  C   C148      1.0  0.47329  0.41346  0.10866  1.0000
  Fe  Fe30      1.0  0.03544  0.60467  0.20182  1.0000
  H   H216      1.0  0.46470  0.36146  0.11239  1.0000
  H   H217      1.0  0.29538  0.58265  0.13499  1.0000
  H   H218      1.0  0.45602  0.35326  0.13846  1.0000
  Fe  Fe31      1.0  0.23099  0.61294  0.07240  1.0000
  C   C149      1.0  0.47660  0.57078  0.20982  1.0000
  H   H219      1.0  0.46904  0.54744  0.02353  1.0000
  Fe  Fe32      1.0  0.09291  0.61006  0.19092  1.0000
  Fe  Fe33      1.0  0.21112  0.56011  0.06124  1.0000
  S   S63       1.0  0.09507  0.59576  0.22157  1.0000
  S   S64       1.0  0.22661  0.63074  0.00302  1.0000
  H   H220      1.0  0.29473  0.55164  0.12851  1.0000
  C   C150      1.0  0.24612  0.49533  0.07988  1.0000
  C   C151      1.0  0.41362  0.62076  0.15910  1.0000
  S   S65       1.0  0.47563  0.44198  0.23203  1.0000
  H   H221      1.0  0.24470  0.51571  0.02101  1.0000
  H   H222      1.0  0.47590  0.49365  0.03370  1.0000
  H   H223      1.0  0.15706  0.56262  0.98608  1.0000
  C   C152      1.0  0.39961  0.61411  0.14469  1.0000
  C   C153      1.0  0.37676  0.62092  0.14396  1.0000
  C   C154      1.0  0.36757  0.63360  0.15804  1.0000
  C   C155      1.0  0.15637  0.60674  0.11774  1.0000
  N   N13       1.0  0.47726  0.52585  0.04834  1.0000
  H   H224      1.0  0.36588  0.61593  0.13284  1.0000
  H   H225      1.0  0.99275  0.52056  0.23294  1.0000
  H   H226      1.0  0.23707  0.54392  0.10576  1.0000
  H   H227      1.0  0.26992  0.55272  0.14783  1.0000
  N   N14       1.0  0.38848  0.54191  0.18885  1.0000
  C   C156      1.0  0.38039  0.52781  0.20932  1.0000
  C   C157      1.0  0.38685  0.52257  0.17610  1.0000
  C   C158      1.0  0.41582  0.55975  0.18515  1.0000
  C   C159      1.0  0.37089  0.55750  0.18475  1.0000
  H   H228      1.0  0.35968  0.51459  0.21277  1.0000
  H   H229      1.0  0.38211  0.54190  0.21932  1.0000
  H   H230      1.0  0.37154  0.64978  0.09387  1.0000
  H   H231      1.0  0.39288  0.53268  0.16051  1.0000
  H   H232      1.0  0.39999  0.51056  0.17883  1.0000
  H   H233      1.0  0.36652  0.50876  0.17843  1.0000
  H   H234      1.0  0.41777  0.57541  0.19388  1.0000
  H   H235      1.0  0.37290  0.57349  0.19319  1.0000
  S   S66       1.0  0.13344  0.58578  0.08938  1.0000
  H   H236      1.0  0.37545  0.56705  0.16916  1.0000
  S   S67       1.0  0.43626  0.49323  0.22619  1.0000
  S   S68       1.0  0.46738  0.61659  0.21351  1.0000
  N   N15       1.0  0.39236  0.63347  0.99720  1.0000
  Fe  Fe34      1.0  0.21249  0.60982  0.03444  1.0000
  H   H237      1.0  0.19868  0.51479  0.02323  1.0000
  H   H238      1.0  0.34996  0.54493  0.18834  1.0000
  H   H239      1.0  0.41525  0.63781  0.18435  1.0000
  H   H240      1.0  0.39781  0.63849  0.02584  1.0000
  H   H241      1.0  0.43163  0.61614  0.15949  1.0000
  H   H242      1.0  0.41777  0.36938  0.13760  1.0000
  Fe  Fe35      1.0  0.07095  0.62127  0.22951  1.0000
  S   S69       1.0  0.38127  0.50329  0.98914  1.0000
  H   H243      1.0  0.35333  0.61581  0.99295  1.0000
  S   S70       1.0  0.03254  0.58970  0.23329  1.0000
  S   S71       1.0  0.07217  0.63870  0.19874  1.0000
  C   C160      1.0  0.41637  0.65537  0.98722  1.0000
  H   H244      1.0  0.17966  0.58590  0.00893  1.0000
  H   H245      1.0  0.42948  0.54878  0.18883  1.0000
  H   H246      1.0  0.42285  0.56982  0.16962  1.0000
  C   C161      1.0  0.28273  0.58220  0.10035  1.0000
  H   H247      1.0  0.27115  0.58413  0.08893  1.0000
  H   H248      1.0  0.23496  0.53040  0.13076  1.0000
  H   H249      1.0  0.23595  0.58591  0.11601  1.0000
  H   H250      1.0  0.29452  0.60255  0.10107  1.0000
  H   H251      1.0  0.26089  0.52923  0.11247  1.0000
  H   H252      1.0  0.23599  0.57270  0.14060  1.0000
  H   H253      1.0  0.26909  0.55901  0.05511  1.0000
  C   C162      1.0  0.26875  0.54092  0.06404  1.0000
  C   C163      1.0  0.24887  0.54165  0.11700  1.0000
  H   H254      1.0  0.26089  0.60289  0.12743  1.0000
  S   S72       1.0  0.21713  0.52069  0.06129  1.0000
  N   N16       1.0  0.26562  0.56754  0.11923  1.0000
  C   C164      1.0  0.24600  0.51894  0.06877  1.0000
  S   S73       1.0  0.99879  0.61161  0.19484  1.0000
  N   N17       1.0  0.23080  0.53797  0.99980  1.0000
  H   H255      1.0  0.45372  0.51956  0.07683  1.0000
  H   H256      1.0  0.25480  0.55048  0.02015  1.0000
  H   H257      1.0  0.21931  0.49734  0.99713  1.0000
  H   H258      1.0  0.44121  0.53368  0.05751  1.0000
  C   C165      1.0  0.46196  0.40291  0.14361  1.0000
  C   C166      1.0  0.18726  0.59285  0.99361  1.0000
  H   H259      1.0  0.45620  0.42107  0.14377  1.0000
  H   H260      1.0  0.47135  0.40627  0.09494  1.0000
  C   C167      1.0  0.38117  0.63930  0.17289  1.0000
  H   H261      1.0  0.09076  0.58311  0.11955  1.0000
  C   C168      1.0  0.46713  0.36944  0.12579  1.0000
  C   C169      1.0  0.23973  0.56449  0.98709  1.0000
  H   H262      1.0  0.00295  0.62514  0.23305  1.0000
  S   S74       1.0  0.36908  0.65363  0.19129  1.0000
  H   H263      1.0  0.08950  0.59730  0.15109  1.0000
  C   C170      1.0  0.42869  0.53898  0.23371  1.0000
  C   C171      1.0  0.10815  0.59971  0.14197  1.0000
  Fe  Fe36      1.0  0.43313  0.62823  0.22531  1.0000
  S   S75       1.0  0.20297  0.62946  0.05893  1.0000
  H   H264      1.0  0.34966  0.63843  0.15767  1.0000
  C   C172      1.0  0.10889  0.59184  0.12406  1.0000
  H   H265      1.0  0.45028  0.38803  0.15687  1.0000
  H   H266      1.0  0.24240  0.58034  0.99568  1.0000
  H   H267      1.0  0.42248  0.40231  0.12494  1.0000
  S   S76       1.0  0.26204  0.63394  0.08697  1.0000
  S   S77       1.0  0.24347  0.59716  0.04666  1.0000
  Fe  Fe37      1.0  0.38937  0.64784  0.21599  1.0000
  C   C173      1.0  0.40434  0.63310  0.17322  1.0000
  H   H268      1.0  0.42646  0.37758  0.11156  1.0000
  C   C174      1.0  0.42992  0.38514  0.12496  1.0000
  S   S78       1.0  0.20129  0.57458  0.08831  1.0000
  H   H269      1.0  0.20896  0.54947  0.02253  1.0000
  H   H270      1.0  0.45634  0.48433  0.05784  1.0000
  S   S79       1.0  0.18041  0.57140  0.04753  1.0000
  H   H271      1.0  0.19037  0.53668  0.00539  1.0000
  C   C175      1.0  0.46959  0.54333  0.21256  1.0000
  C   C176      1.0  0.41807  0.54739  0.99367  1.0000
  C   C177      1.0  0.13154  0.61113  0.14779  1.0000
  C   C178      1.0  0.39833  0.60832  0.99941  1.0000
  H   H272      1.0  0.17382  0.62338  0.14004  1.0000
  H   H273      1.0  0.46684  0.43130  0.10793  1.0000
  H   H274      1.0  0.26995  0.53763  0.00127  1.0000
  C   C179      1.0  0.45954  0.53349  0.06256  1.0000
  C   C180      1.0  0.20605  0.53452  0.01327  1.0000
  H   H275      1.0  0.00559  0.56662  0.18018  1.0000
  C   C181      1.0  0.13297  0.59534  0.11190  1.0000
  Fe  Fe38      1.0  0.17370  0.58984  0.07325  1.0000
  H   H276      1.0  0.46891  0.55369  0.06495  1.0000
  C   C182      1.0  0.15564  0.61458  0.13565  1.0000
  S   S80       1.0  0.13136  0.62345  0.16928  1.0000
  S   S81       1.0  0.35253  0.64355  0.05860  1.0000
  C   C183      1.0  0.22636  0.51756  0.98792  1.0000
  H   H277      1.0  0.44555  0.50079  0.03839  1.0000
  H   H278      1.0  0.38075  0.59124  0.00694  1.0000
  N   N18       1.0  0.45805  0.39273  0.12579  1.0000
  C   C184      1.0  0.45942  0.58237  0.21867  1.0000
  C   C185      1.0  0.98485  0.56317  0.18496  1.0000
  C   C186      1.0  0.38305  0.63801  0.01653  1.0000
  H   H279      1.0  0.36467  0.62210  0.02435  1.0000
  H   H280      1.0  0.39277  0.51518  0.21276  1.0000
  H   H281      1.0  0.41377  0.60876  0.00808  1.0000
  C   C187      1.0  0.20946  0.61511  0.98674  1.0000
  H   H282      1.0  0.29258  0.65046  0.02919  1.0000
  Fe  Fe39      1.0  0.47342  0.48319  0.22581  1.0000
  C   C188      1.0  0.37170  0.63214  0.98575  1.0000
  H   H283      1.0  0.21967  0.65634  0.08762  1.0000
  H   H284      1.0  0.43216  0.65709  0.99570  1.0000
  H   H285      1.0  0.37883  0.65709  0.01558  1.0000
  H   H286      1.0  0.01629  0.54922  0.29889  1.0000
  C   C189      1.0  0.01053  0.48644  0.29356  1.0000
  C   C190      1.0  0.01589  0.62064  0.29346  1.0000
  C   C191      1.0  0.01849  0.53317  0.29208  1.0000
  C   C192      1.0  0.02366  0.49177  0.27422  1.0000
  C   C193      1.0  0.00795  0.50712  0.30253  1.0000
  S   S82       1.0  0.00405  0.62430  0.33166  1.0000
  C   C194      1.0  0.03131  0.53845  0.27263  1.0000
  H   H287      1.0  0.02606  0.61775  0.26367  1.0000
  H   H288      1.0  0.02557  0.47567  0.26735  1.0000
  C   C195      1.0  0.03334  0.62492  0.27572  1.0000
  C   C196      1.0  0.03384  0.51776  0.26365  1.0000
  H   H289      1.0  0.03929  0.55852  0.26467  1.0000
  H   H290      1.0  0.99527  0.61010  0.29499  1.0000
  C   C197      1.0  0.05200  0.64312  0.30721  1.0000
  C   C198      1.0  0.02528  0.62967  0.30925  1.0000
  S   S83       1.0  0.04851  0.52375  0.23906  1.0000
  H   H291      1.0  0.00405  0.57407  0.36222  1.0000
  H   H292      1.0  0.99719  0.52561  0.36276  1.0000
  H   H293      1.0  0.00277  0.46633  0.30158  1.0000
  H   H294      1.0  0.99036  0.55361  0.33517  1.0000
  C   C199      1.0  0.98991  0.63584  0.23885  1.0000
  H   H295      1.0  0.98277  0.36064  0.29082  1.0000
  S   S84       1.0  0.99132  0.50054  0.32665  1.0000
  H   H296      1.0  0.98530  0.62990  0.25493  1.0000
  H   H297      1.0  0.98280  0.51885  0.25840  1.0000
  H   H298      1.0  0.98531  0.48994  0.24975  1.0000
  H   H299      1.0  0.47740  0.55656  0.35539  1.0000
  C   C200      1.0  0.47715  0.52740  0.33781  1.0000
  H   H300      1.0  0.41031  0.52662  0.24313  1.0000
  S   S85       1.0  0.37820  0.65454  0.24605  1.0000
  C   C201      1.0  0.24674  0.32980  0.44532  1.0000
  H   H301      1.0  0.06494  0.56605  0.30088  1.0000
  C   C202      1.0  0.06917  0.64829  0.28931  1.0000
  H   H302      1.0  0.05929  0.65023  0.31935  1.0000
  H   H303      1.0  0.40858  0.39427  0.39211  1.0000
  C   C203      1.0  0.23405  0.34966  0.39299  1.0000
  C   C204      1.0  0.05993  0.63915  0.27355  1.0000
  H   H304      1.0  0.39490  0.52749  0.31424  1.0000
  H   H305      1.0  0.45850  0.42292  0.34646  1.0000
  H   H306      1.0  0.46770  0.41269  0.37910  1.0000
  C   C205      1.0  0.39994  0.54854  0.31564  1.0000
  H   H307      1.0  0.44993  0.42088  0.39937  1.0000
  C   C206      1.0  0.42580  0.42032  0.30362  1.0000
  H   H308      1.0  0.23082  0.33359  0.43834  1.0000
  H   H309      1.0  0.40329  0.57094  0.27828  1.0000
  S   S86       1.0  0.08231  0.64580  0.25149  1.0000
  H   H310      1.0  0.47339  0.44669  0.38082  1.0000
  S   S87       1.0  0.47404  0.64432  0.32655  1.0000
  H   H311      1.0  0.25245  0.34496  0.45420  1.0000
  H   H312      1.0  0.42549  0.38720  0.37080  1.0000
  H   H313      1.0  0.27136  0.42581  0.29431  1.0000
  C   C207      1.0  0.12073  0.60408  0.26878  1.0000
  H   H314      1.0  0.38261  0.55501  0.31388  1.0000
  H   H315      1.0  0.41522  0.44147  0.39463  1.0000
  H   H316      1.0  0.40067  0.40245  0.36902  1.0000
  H   H317      1.0  0.43835  0.37252  0.33380  1.0000
  H   H318      1.0  0.12520  0.62119  0.27610  1.0000
  S   S88       1.0  0.27380  0.39610  0.37742  1.0000
  H   H319      1.0  0.43348  0.43758  0.34302  1.0000
  H   H320      1.0  0.44685  0.60662  0.29302  1.0000
  Fe  Fe40      1.0  0.36562  0.46142  0.35082  1.0000
  H   H321      1.0  0.36680  0.55542  0.25394  1.0000
  C   C208      1.0  0.46166  0.50543  0.33214  1.0000
  C   C209      1.0  0.44872  0.43677  0.35171  1.0000
  C   C210      1.0  0.47151  0.42252  0.29511  1.0000
  C   C211      1.0  0.44631  0.55681  0.30443  1.0000
  C   C212      1.0  0.27576  0.34542  0.37922  1.0000
  C   C213      1.0  0.26050  0.36141  0.38361  1.0000
  H   H322      1.0  0.10373  0.55460  0.30856  1.0000
  H   H323      1.0  0.40270  0.54914  0.33074  1.0000
  H   H324      1.0  0.43211  0.59547  0.31826  1.0000
  C   C214      1.0  0.45085  0.43192  0.29157  1.0000
  H   H325      1.0  0.21136  0.40035  0.33373  1.0000
  H   H326      1.0  0.32898  0.54392  0.31340  1.0000
  C   C215      1.0  0.45796  0.42705  0.38349  1.0000
  H   H327      1.0  0.42492  0.64248  0.31651  1.0000
  H   H328      1.0  0.35580  0.50667  0.25724  1.0000
  C   C216      1.0  0.42129  0.39899  0.31896  1.0000
  C   C217      1.0  0.24893  0.37748  0.33520  1.0000
  H   H329      1.0  0.47056  0.49620  0.32177  1.0000
  H   H330      1.0  0.24075  0.36044  0.32847  1.0000
  C   C218      1.0  0.35613  0.54240  0.26757  1.0000
  H   H331      1.0  0.23604  0.37428  0.34965  1.0000
  H   H332      1.0  0.42939  0.53898  0.36867  1.0000
  C   C219      1.0  0.11642  0.57292  0.29809  1.0000
  C   C220      1.0  0.22499  0.40299  0.31972  1.0000
  H   H333      1.0  0.08750  0.56219  0.25974  1.0000
  C   C221      1.0  0.09735  0.55776  0.27180  1.0000
  C   C222      1.0  0.26876  0.40654  0.30388  1.0000
  N   N19       1.0  0.25124  0.40292  0.32279  1.0000
  S   S89       1.0  0.42607  0.63215  0.25608  1.0000
  Fe  Fe41      1.0  0.38350  0.61512  0.25559  1.0000
  H   H334      1.0  0.13963  0.60172  0.26224  1.0000
  H   H335      1.0  0.11143  0.60966  0.25667  1.0000
  H   H336      1.0  0.26111  0.39052  0.29611  1.0000
  N   N20       1.0  0.42365  0.56548  0.30125  1.0000
  H   H337      1.0  0.11546  0.55390  0.26532  1.0000
  H   H338      1.0  0.41428  0.54257  0.27959  1.0000
  H   H339      1.0  0.08395  0.53907  0.28150  1.0000
  C   C223      1.0  0.43453  0.49570  0.33947  1.0000
  H   H340      1.0  0.28876  0.40664  0.30563  1.0000
  H   H341      1.0  0.42286  0.47876  0.33503  1.0000
  H   H342      1.0  0.26495  0.44440  0.32333  1.0000
  S   S90       1.0  0.39070  0.38496  0.33504  1.0000
  Fe  Fe42      1.0  0.33855  0.44691  0.31799  1.0000
  H   H343      1.0  0.31831  0.49568  0.31669  1.0000
  H   H344      1.0  0.06830  0.58928  0.27904  1.0000
  H   H345      1.0  0.44242  0.53556  0.30394  1.0000
  C   C224      1.0  0.34863  0.55291  0.28347  1.0000
  H   H346      1.0  0.22606  0.42196  0.31046  1.0000
  S   S91       1.0  0.35700  0.58713  0.28232  1.0000
  C   C225      1.0  0.33659  0.49791  0.28728  1.0000
  H   H347      1.0  0.21606  0.38671  0.31251  1.0000
  H   H348      1.0  0.13514  0.56956  0.29235  1.0000
  C   C226      1.0  0.33490  0.53589  0.30110  1.0000
  S   S92       1.0  0.37993  0.45405  0.32177  1.0000
  H   H349      1.0  0.45097  0.55964  0.31874  1.0000
  C   C227      1.0  0.46550  0.53956  0.35094  1.0000
  N   N21       1.0  0.10329  0.57969  0.28231  1.0000
  H   H350      1.0  0.28178  0.42488  0.33516  1.0000
  H   H351      1.0  0.22215  0.36199  0.39637  1.0000
  N   N22       1.0  0.43710  0.42827  0.37265  1.0000
  H   H352      1.0  0.43734  0.57523  0.27036  1.0000
  C   C228      1.0  0.34989  0.51485  0.26944  1.0000
  S   S93       1.0  0.38888  0.49529  0.36241  1.0000
  C   C229      1.0  0.26226  0.42477  0.33239  1.0000
  C   C230      1.0  0.41947  0.56342  0.28150  1.0000
  H   H353      1.0  0.40991  0.42752  0.30073  1.0000
  C   C231      1.0  0.32908  0.50853  0.30304  1.0000
  H   H354      1.0  0.24965  0.42283  0.34673  1.0000
  H   H355      1.0  0.08235  0.60049  0.29855  1.0000
  C   C232      1.0  0.44181  0.38918  0.32211  1.0000
  C   C233      1.0  0.07864  0.58401  0.29059  1.0000
  C   C234      1.0  0.42277  0.50768  0.35267  1.0000
  C   C235      1.0  0.43833  0.52960  0.35843  1.0000
  H   H356      1.0  0.12114  0.58905  0.30633  1.0000
  S   S94       1.0  0.32946  0.46353  0.28999  1.0000
  H   H357      1.0  0.46424  0.56826  0.29328  1.0000
  S   S95       1.0  0.35374  0.41929  0.36666  1.0000
  C   C236      1.0  0.41716  0.40187  0.37639  1.0000
  H   H358      1.0  0.29616  0.35430  0.37199  1.0000
  H   H359      1.0  0.40898  0.44907  0.37087  1.0000
  H   H360      1.0  0.46377  0.45663  0.34831  1.0000
  H   H361      1.0  0.26834  0.37680  0.33799  1.0000
  H   H362      1.0  0.45418  0.44823  0.27962  1.0000
  H   H363      1.0  0.41222  0.60045  0.30100  1.0000
  C   C237      1.0  0.42459  0.44739  0.37897  1.0000
  C   C238      1.0  0.42894  0.59320  0.30345  1.0000
  S   S96       1.0  0.32570  0.40335  0.33037  1.0000
  S   S97       1.0  0.32526  0.45806  0.34582  1.0000
  C   C239      1.0  0.46696  0.40121  0.31044  1.0000
  H   H364      1.0  0.43906  0.46755  0.37647  1.0000
  Fe  Fe43      1.0  0.31456  0.41479  0.35862  1.0000
  Fe  Fe44      1.0  0.36590  0.41164  0.33709  1.0000
  H   H365      1.0  0.26387  0.33306  0.43339  1.0000
  H   H366      1.0  0.42247  0.57550  0.23794  1.0000
  H   H367      1.0  0.98266  0.56406  0.38581  1.0000
  C   C240      1.0  0.98316  0.56778  0.36998  1.0000
  C   C241      1.0  0.44011  0.65761  0.30573  1.0000
  H   H368      1.0  0.06233  0.59714  0.64667  1.0000
  C   C242      1.0  0.41360  0.51912  0.69062  1.0000
  C   C243      1.0  0.35995  0.42243  0.72445  1.0000
  H   H369      1.0  0.99942  0.49040  0.68215  1.0000
  S   S98       1.0  0.00378  0.39086  0.66336  1.0000
  C   C244      1.0  0.07735  0.58706  0.64828  1.0000
  C   C245      1.0  0.47960  0.33695  0.66621  1.0000
  C   C246      1.0  0.47967  0.59076  0.68502  1.0000
  Fe  Fe45      1.0  0.00980  0.43454  0.65816  1.0000
  S   S99       1.0  0.04300  0.46903  0.66085  1.0000
  H   H370      1.0  0.39308  0.42127  0.59904  1.0000
  Fe  Fe46      1.0  0.35180  0.36619  0.65733  1.0000
  S   S100      1.0  0.36906  0.35078  0.68138  1.0000
  H   H371      1.0  0.41477  0.53436  0.67783  1.0000
  Fe  Fe47      1.0  0.39548  0.41921  0.64716  1.0000
  S   S101      1.0  0.41589  0.40851  0.67070  1.0000
  S   S102      1.0  0.40949  0.45986  0.62841  1.0000
  Fe  Fe48      1.0  0.40801  0.36987  0.66098  1.0000
  C   C247      1.0  0.34329  0.41104  0.61738  1.0000
  Fe  Fe49      1.0  0.37519  0.39062  0.68895  1.0000
  H   H372      1.0  0.03871  0.41726  0.72447  1.0000
  S   S103      1.0  0.39028  0.38182  0.63593  1.0000
  S   S104      1.0  0.35553  0.40495  0.66630  1.0000
  H   H373      1.0  0.03592  0.52397  0.65999  1.0000
  H   H374      1.0  0.02787  0.55401  0.65982  1.0000
  H   H375      1.0  0.31485  0.40751  0.58962  1.0000
  H   H376      1.0  0.45628  0.53060  0.66217  1.0000
  C   C248      1.0  0.00759  0.61203  0.71505  1.0000
  S   S105      1.0  0.47106  0.43710  0.73288  1.0000
  C   C249      1.0  0.44350  0.47305  0.62680  1.0000
  H   H377      1.0  0.34041  0.40683  0.57066  1.0000
  C   C250      1.0  0.01925  0.60595  0.73057  1.0000
  C   C251      1.0  0.08796  0.54658  0.64863  1.0000
  H   H378      1.0  0.07885  0.56898  0.61514  1.0000
  C   C252      1.0  0.45882  0.45629  0.62711  1.0000
  C   C253      1.0  0.45417  0.58269  0.69613  1.0000
  C   C254      1.0  0.35944  0.44625  0.58909  1.0000
  H   H379      1.0  0.34637  0.47640  0.70313  1.0000
  H   H380      1.0  0.45005  0.43555  0.62719  1.0000
  C   C255      1.0  0.47154  0.58812  0.72515  1.0000
  C   C256      1.0  0.06130  0.55838  0.62687  1.0000
  H   H381      1.0  0.41479  0.49882  0.65863  1.0000
  H   H382      1.0  0.32249  0.36412  0.69693  1.0000
  C   C257      1.0  0.35351  0.43920  0.71047  1.0000
  N   N23       1.0  0.06761  0.55928  0.64623  1.0000
  H   H383      1.0  0.98263  0.51455  0.67889  1.0000
  H   H384      1.0  0.43757  0.57778  0.68917  1.0000
  H   H385      1.0  0.35010  0.43351  0.69699  1.0000
  C   C258      1.0  0.30351  0.32988  0.63486  1.0000
  H   H386      1.0  0.00522  0.53040  0.62913  1.0000
  H   H387      1.0  0.33397  0.33457  0.72132  1.0000
  H   H388      1.0  0.99602  0.46527  0.71418  1.0000
  C   C259      1.0  0.30279  0.35915  0.70626  1.0000
  S   S106      1.0  0.06962  0.57097  0.70719  1.0000
  C   C260      1.0  0.05277  0.45912  0.72363  1.0000
  C   C261      1.0  0.46169  0.35062  0.66987  1.0000
  C   C262      1.0  0.46402  0.36607  0.68403  1.0000
  H   H389      1.0  0.47788  0.32502  0.65527  1.0000
  H   H390      1.0  0.45018  0.37659  0.68702  1.0000
  C   C263      1.0  0.41557  0.48572  0.67199  1.0000
  C   C264      1.0  0.01546  0.60590  0.69724  1.0000
  C   C265      1.0  0.03474  0.59363  0.69492  1.0000
  H   H391      1.0  0.05384  0.53762  0.62492  1.0000
  H   H392      1.0  0.04060  0.58909  0.68109  1.0000
  H   H393      1.0  0.01758  0.51384  0.70777  1.0000
  C   C266      1.0  0.04322  0.43680  0.71581  1.0000
  C   C267      1.0  0.03974  0.43972  0.69660  1.0000
  C   C268      1.0  0.04683  0.46496  0.68494  1.0000
  C   C269      1.0  0.05655  0.48718  0.69270  1.0000
  C   C270      1.0  0.05908  0.48428  0.71206  1.0000
  H   H394      1.0  0.33900  0.38965  0.62339  1.0000
  H   H395      1.0  0.03227  0.42245  0.69064  1.0000
  H   H396      1.0  0.06204  0.50668  0.68386  1.0000
  H   H397      1.0  0.04586  0.56774  0.62470  1.0000
  H   H398      1.0  0.09537  0.59848  0.63718  1.0000
  H   H399      1.0  0.44347  0.51313  0.62585  1.0000
  H   H400      1.0  0.30412  0.37424  0.71545  1.0000
  H   H401      1.0  0.35776  0.42241  0.62496  1.0000
  H   H402      1.0  0.08103  0.52539  0.64752  1.0000
  H   H403      1.0  0.10620  0.55655  0.63740  1.0000
  N   N24       1.0  0.42822  0.50113  0.68535  1.0000
  H   H404      1.0  0.42635  0.47223  0.66747  1.0000
  H   H405      1.0  0.00687  0.61086  0.68511  1.0000
  C   C271      1.0  0.45555  0.51687  0.67574  1.0000
  S   S107      1.0  0.43748  0.34846  0.65585  1.0000
  S   S108      1.0  0.36348  0.39229  0.72022  1.0000
  C   C272      1.0  0.45009  0.58067  0.71626  1.0000
  N   N25       1.0  0.29468  0.33212  0.71807  1.0000
  C   C273      1.0  0.04368  0.54499  0.66121  1.0000
  H   H406      1.0  0.42133  0.52957  0.70184  1.0000
  C   C274      1.0  0.45514  0.49997  0.62637  1.0000
  C   C275      1.0  0.31400  0.33021  0.73029  1.0000
  C   C276      1.0  0.42810  0.48281  0.70301  1.0000
  H   H407      1.0  0.32832  0.38089  0.59191  1.0000
  H   H408      1.0  0.43954  0.46933  0.69970  1.0000
  H   H409      1.0  0.47887  0.53040  0.72176  1.0000
  H   H410      1.0  0.08415  0.33110  0.61347  1.0000
  H   H411      1.0  0.06630  0.50165  0.71786  1.0000
  C   C277      1.0  0.04609  0.58708  0.71044  1.0000
  H   H412      1.0  0.08229  0.58839  0.66279  1.0000
  N   N26       1.0  0.35342  0.41757  0.59622  1.0000
  H   H413      1.0  0.37459  0.45796  0.59609  1.0000
  H   H414      1.0  0.36716  0.45199  0.57316  1.0000
  H   H415      1.0  0.32476  0.41570  0.62124  1.0000
  C   C278      1.0  0.98867  0.33252  0.59507  1.0000
  H   H416      1.0  0.43031  0.57386  0.72480  1.0000
  H   H417      1.0  0.09334  0.54723  0.66306  1.0000
  H   H418      1.0  0.34169  0.45245  0.59227  1.0000
  C   C279      1.0  0.33340  0.40261  0.58665  1.0000
  H   H419      1.0  0.04770  0.54538  0.67603  1.0000
  H   H420      1.0  0.39250  0.50829  0.69670  1.0000
  H   H421      1.0  0.38598  0.41528  0.57604  1.0000
  S   S109      1.0  0.31052  0.34365  0.65518  1.0000
  C   C280      1.0  0.48177  0.50977  0.62732  1.0000
  C   C281      1.0  0.37764  0.41043  0.59188  1.0000
  H   H422      1.0  0.37384  0.38889  0.59700  1.0000
  H   H423      1.0  0.06993  0.33103  0.57290  1.0000
  H   H424      1.0  0.47164  0.49614  0.73284  1.0000
  H   H425      1.0  0.46738  0.50404  0.67165  1.0000
  C   C282      1.0  0.35130  0.46344  0.71399  1.0000
  H   H426      1.0  0.40780  0.47015  0.71023  1.0000
  H   H427      1.0  0.46549  0.52937  0.68517  1.0000
  S   S110      1.0  0.98506  0.37346  0.61238  1.0000
  H   H428      1.0  0.99846  0.53572  0.70461  1.0000
  C   C283      1.0  0.35626  0.47129  0.73126  1.0000
  H   H429      1.0  0.10674  0.34349  0.59048  1.0000
  H   H430      1.0  0.39505  0.47330  0.67881  1.0000
  C   C284      1.0  0.32329  0.33298  0.61886  1.0000
  S   S111      1.0  0.99076  0.43529  0.63253  1.0000
  S   S112      1.0  0.99084  0.57357  0.64214  1.0000
  C   C285      1.0  0.98507  0.52299  0.63686  1.0000
  C   C286      1.0  0.98830  0.34196  0.61238  1.0000
  H   H431      1.0  0.43639  0.49365  0.71384  1.0000
  H   H432      1.0  0.99533  0.51627  0.72810  1.0000
  H   H433      1.0  0.28907  0.36132  0.69650  1.0000
  H   H434      1.0  0.25360  0.32766  0.72170  1.0000
  C   C287      1.0  0.03824  0.59308  0.72836  1.0000
  C   C288      1.0  0.99083  0.32634  0.62901  1.0000
  H   H435      1.0  0.34350  0.34323  0.61900  1.0000
  S   S113      1.0  0.35684  0.50304  0.73451  1.0000
  C   C289      1.0  0.99792  0.51600  0.71238  1.0000
  H   H436      1.0  0.98676  0.34460  0.58217  1.0000
  H   H437      1.0  0.99059  0.33350  0.64238  1.0000
  C   C290      1.0  0.26856  0.32627  0.73053  1.0000
  C   C291      1.0  0.09626  0.32540  0.60187  1.0000
  H   H438      1.0  0.33222  0.32518  0.59023  1.0000
  Fe  Fe50      1.0  0.10886  0.54284  0.76446  1.0000
  S   S114      1.0  0.08286  0.56840  0.76227  1.0000
  S   S115      1.0  0.14776  0.55598  0.77337  1.0000
  C   C292      1.0  0.26930  0.49934  0.82521  1.0000
  H   H439      1.0  0.25662  0.60586  0.93186  1.0000
  H   H440      1.0  0.31584  0.34478  0.73994  1.0000
  H   H441      1.0  0.25365  0.47374  0.86263  1.0000
  Fe  Fe51      1.0  0.05115  0.53138  0.77859  1.0000
  C   C293      1.0  0.45161  0.44568  0.78781  1.0000
  H   H442      1.0  0.46536  0.46525  0.95886  1.0000
  S   S116      1.0  0.07750  0.50681  0.78265  1.0000
  H   H443      1.0  0.26889  0.34044  0.74041  1.0000
  H   H444      1.0  0.44542  0.44154  0.83991  1.0000
  Fe  Fe52      1.0  0.37782  0.53983  0.79372  1.0000
  S   S117      1.0  0.41849  0.53973  0.79552  1.0000
  S   S118      1.0  0.35838  0.55687  0.81626  1.0000
  Fe  Fe53      1.0  0.37777  0.51578  0.75805  1.0000
  S   S119      1.0  0.41866  0.51406  0.75683  1.0000
  C   C294      1.0  0.99495  0.49769  0.80525  1.0000
  Fe  Fe54      1.0  0.40525  0.49950  0.78903  1.0000
  S   S120      1.0  0.41801  0.46832  0.80529  1.0000
  Fe  Fe55      1.0  0.42775  0.55430  0.76355  1.0000
  H   H445      1.0  0.31855  0.50653  0.82967  1.0000
  S   S121      1.0  0.36347  0.49794  0.78989  1.0000
  S   S122      1.0  0.38808  0.55787  0.76195  1.0000
  Fe  Fe56      1.0  0.37586  0.52864  0.96334  1.0000
  S   S123      1.0  0.36213  0.56307  0.96721  1.0000
  Fe  Fe57      1.0  0.37872  0.53841  0.92019  1.0000
  S   S124      1.0  0.36532  0.57413  0.92004  1.0000
  S   S125      1.0  0.38913  0.51986  0.89514  1.0000
  Fe  Fe58      1.0  0.39246  0.58452  0.94040  1.0000
  S   S126      1.0  0.41628  0.62573  0.94094  1.0000
  Fe  Fe59      1.0  0.33621  0.54959  0.94680  1.0000
  S   S127      1.0  0.29475  0.55008  0.95307  1.0000
  S   S128      1.0  0.40873  0.55116  0.93824  1.0000
  S   S129      1.0  0.34706  0.51288  0.94533  1.0000
  C   C295      1.0  0.42246  0.60175  0.82095  1.0000
  Fe  Fe60      1.0  0.21737  0.56745  0.88238  1.0000
  S   S130      1.0  0.24768  0.54712  0.87788  1.0000
  C   C296      1.0  0.28085  0.54630  0.93269  1.0000
  C   C297      1.0  0.25561  0.54795  0.93304  1.0000
  C   C298      1.0  0.24508  0.54714  0.91635  1.0000
  C   C299      1.0  0.25984  0.54495  0.89921  1.0000
  C   C300      1.0  0.28478  0.54244  0.89899  1.0000
  C   C301      1.0  0.29524  0.54302  0.91578  1.0000
  H   H446      1.0  0.24427  0.55029  0.94607  1.0000
  H   H447      1.0  0.22548  0.54826  0.91678  1.0000
  H   H448      1.0  0.29633  0.54074  0.88581  1.0000
  H   H449      1.0  0.31458  0.54128  0.91552  1.0000
  H   H450      1.0  0.42425  0.55205  0.97809  1.0000
  H   H451      1.0  0.98956  0.34960  0.75986  1.0000
  H   H452      1.0  0.31570  0.63095  0.89205  1.0000
  C   C302      1.0  0.44932  0.45976  0.84604  1.0000
  C   C303      1.0  0.18357  0.58878  0.96061  1.0000
  S   S131      1.0  0.10407  0.52976  0.73641  1.0000
  C   C304      1.0  0.00270  0.47756  0.79848  1.0000
  C   C305      1.0  0.36359  0.42972  0.74211  1.0000
  C   C306      1.0  0.36473  0.54547  0.83880  1.0000
  C   C307      1.0  0.36014  0.55757  0.85441  1.0000
  C   C308      1.0  0.36703  0.54953  0.87200  1.0000
  C   C309      1.0  0.37844  0.52938  0.87396  1.0000
  C   C310      1.0  0.38202  0.51673  0.85854  1.0000
  C   C311      1.0  0.37510  0.52463  0.84105  1.0000
  H   H453      1.0  0.35178  0.57349  0.85284  1.0000
  H   H454      1.0  0.36388  0.55922  0.88387  1.0000
  H   H455      1.0  0.39025  0.50083  0.86013  1.0000
  H   H456      1.0  0.37781  0.51451  0.82933  1.0000
  S   S132      1.0  0.13024  0.56300  0.86160  1.0000
  S   S133      1.0  0.17560  0.54770  0.89795  1.0000
  S   S134      1.0  0.47669  0.41103  0.86237  1.0000
  H   H457      1.0  0.26783  0.64698  0.90648  1.0000
  Fe  Fe61      1.0  0.06970  0.49633  0.75437  1.0000
  C   C312      1.0  0.45351  0.44023  0.75452  1.0000
  C   C313      1.0  0.43053  0.44675  0.75437  1.0000
  C   C314      1.0  0.41838  0.45312  0.77082  1.0000
  C   C315      1.0  0.42947  0.45363  0.78720  1.0000
  H   H458      1.0  0.01261  0.40983  0.77984  1.0000
  C   C316      1.0  0.01062  0.39374  0.77153  1.0000
  H   H459      1.0  0.45395  0.59489  0.79069  1.0000
  H   H460      1.0  0.40072  0.45832  0.77073  1.0000
  N   N27       1.0  0.28030  0.50756  0.84184  1.0000
  H   H461      1.0  0.29750  0.54373  0.85099  1.0000
  C   C317      1.0  0.14374  0.55944  0.79756  1.0000
  C   C318      1.0  0.12086  0.56325  0.80662  1.0000
  C   C319      1.0  0.11748  0.56541  0.82609  1.0000
  C   C320      1.0  0.13647  0.56285  0.83678  1.0000
  C   C321      1.0  0.15963  0.55959  0.82765  1.0000
  C   C322      1.0  0.16338  0.55817  0.80798  1.0000
  H   H462      1.0  0.10586  0.56473  0.79856  1.0000
  H   H463      1.0  0.10008  0.56901  0.83292  1.0000
  H   H464      1.0  0.17427  0.55733  0.83586  1.0000
  H   H465      1.0  0.18108  0.55517  0.80097  1.0000
  H   H466      1.0  0.01396  0.37683  0.78054  1.0000
  H   H467      1.0  0.40241  0.46195  0.94313  1.0000
  H   H468      1.0  0.22271  0.64058  0.82548  1.0000
  H   H469      1.0  0.24250  0.50205  0.85933  1.0000
  H   H470      1.0  0.41050  0.43196  0.89070  1.0000
  H   H471      1.0  0.44096  0.44677  0.94764  1.0000
  H   H472      1.0  0.39340  0.61446  0.79611  1.0000
  H   H473      1.0  0.47254  0.62108  0.80062  1.0000
  H   H474      1.0  0.25196  0.50594  0.82371  1.0000
  S   S135      1.0  0.04060  0.51787  0.75198  1.0000
  H   H475      1.0  0.28194  0.59862  0.94294  1.0000
  H   H476      1.0  0.30780  0.60155  0.91038  1.0000
  H   H477      1.0  0.04711  0.58824  0.74038  1.0000
  C   C323      1.0  0.40743  0.47470  0.95376  1.0000
  H   H478      1.0  0.44785  0.48592  0.92290  1.0000
  C   C324      1.0  0.44157  0.49995  0.96786  1.0000
  C   C325      1.0  0.40055  0.64320  0.90820  1.0000
  H   H479      1.0  0.16532  0.61299  0.84271  1.0000
  H   H480      1.0  0.42268  0.41598  0.87269  1.0000
  C   C326      1.0  0.43395  0.48180  0.87015  1.0000
  H   H481      1.0  0.36830  0.41670  0.75307  1.0000
  H   H482      1.0  0.38634  0.44953  0.86835  1.0000
  H   H483      1.0  0.21251  0.61864  0.93816  1.0000
  H   H484      1.0  0.40811  0.59138  0.78799  1.0000
  H   H485      1.0  0.23532  0.64210  0.96131  1.0000
  C   C327      1.0  0.20901  0.63507  0.81553  1.0000
  H   H486      1.0  0.40321  0.62599  0.90330  1.0000
  H   H487      1.0  0.41912  0.62473  0.77463  1.0000
  C   C328      1.0  0.26018  0.49569  0.85989  1.0000
  H   H488      1.0  0.26293  0.47748  0.82682  1.0000
  H   H489      1.0  0.40050  0.49198  0.95016  1.0000
  Fe  Fe62      1.0  0.16590  0.57431  0.87494  1.0000
  N   N28       1.0  0.05070  0.50090  0.84885  1.0000
  C   C329      1.0  0.07853  0.50199  0.84502  1.0000
  C   C330      1.0  0.04892  0.52761  0.84275  1.0000
  C   C331      1.0  0.03938  0.49124  0.86979  1.0000
  C   C332      1.0  0.03595  0.48284  0.83783  1.0000
  H   H490      1.0  0.08779  0.50941  0.82935  1.0000
  H   H491      1.0  0.08066  0.48219  0.84935  1.0000
  H   H492      1.0  0.09022  0.51541  0.85320  1.0000
  H   H493      1.0  0.02813  0.52734  0.84451  1.0000
  H   H494      1.0  0.05884  0.54152  0.85136  1.0000
  H   H495      1.0  0.05822  0.53594  0.82717  1.0000
  H   H496      1.0  0.01845  0.49044  0.87320  1.0000
  H   H497      1.0  0.05026  0.50439  0.87850  1.0000
  H   H498      1.0  0.04022  0.47104  0.87488  1.0000
  H   H499      1.0  0.01486  0.48159  0.84033  1.0000
  H   H500      1.0  0.41857  0.58060  0.82011  1.0000
  H   H501      1.0  0.04386  0.48986  0.82198  1.0000
  H   H502      1.0  0.46450  0.62804  0.77724  1.0000
  H   H503      1.0  0.43679  0.60646  0.83053  1.0000
  H   H504      1.0  0.40557  0.60426  0.98509  1.0000
  S   S136      1.0  0.16937  0.60720  0.89126  1.0000
  N   N29       1.0  0.98474  0.38594  0.76604  1.0000
  C   C333      1.0  0.28843  0.53668  0.83900  1.0000
  C   C334      1.0  0.32005  0.64398  0.92655  1.0000
  H   H505      1.0  0.28249  0.60896  0.89948  1.0000
  C   C335      1.0  0.40291  0.45215  0.85618  1.0000
  C   C336      1.0  0.17236  0.63491  0.83941  1.0000
  H   H506      1.0  0.02688  0.40124  0.75855  1.0000
  S   S137      1.0  0.01817  0.52884  0.80254  1.0000
  H   H507      1.0  0.99827  0.37612  0.73902  1.0000
  H   H508      1.0  0.32815  0.62827  0.93214  1.0000
  H   H509      1.0  0.98688  0.58090  0.77561  1.0000
  C   C337      1.0  0.36193  0.45420  0.74543  1.0000
  N   N30       1.0  0.43225  0.61918  0.80150  1.0000
  H   H510      1.0  0.46022  0.44610  0.80048  1.0000
  H   H511      1.0  0.45270  0.48591  0.87540  1.0000
  H   H512      1.0  0.47394  0.41752  0.82216  1.0000
  Fe  Fe63      1.0  0.21148  0.62160  0.87574  1.0000
  H   H513      1.0  0.36484  0.45986  0.75900  1.0000
  S   S138      1.0  0.22528  0.59992  0.89901  1.0000
  S   S139      1.0  0.16675  0.57128  0.94507  1.0000
  C   C338      1.0  0.46347  0.43867  0.77149  1.0000
  H   H514      1.0  0.46864  0.46310  0.85039  1.0000
  C   C339      1.0  0.21854  0.62446  0.96669  1.0000
  Fe  Fe64      1.0  0.07515  0.55204  0.73576  1.0000
  H   H515      1.0  0.22525  0.56688  0.97805  1.0000
  H   H516      1.0  0.31259  0.50522  0.85529  1.0000
  H   H517      1.0  0.43593  0.51806  0.96439  1.0000
  C   C340      1.0  0.40648  0.64825  0.92593  1.0000
  S   S140      1.0  0.05631  0.45572  0.74787  1.0000
  C   C341      1.0  0.44413  0.45959  0.95846  1.0000
  H   H518      1.0  0.16109  0.61532  0.80813  1.0000
  C   C342      1.0  0.42647  0.43480  0.87806  1.0000
  H   H519      1.0  0.30307  0.54633  0.82525  1.0000
  H   H520      1.0  0.27088  0.62561  0.94800  1.0000
  C   C343      1.0  0.30059  0.61795  0.90477  1.0000
  H   H521      1.0  0.27140  0.54410  0.83852  1.0000
  Fe  Fe65      1.0  0.18268  0.58202  0.91296  1.0000
  H   H522      1.0  0.17911  0.64481  0.79045  1.0000
  N   N31       1.0  0.42816  0.45714  0.86262  1.0000
  H   H523      1.0  0.41808  0.48080  0.88241  1.0000
  H   H524      1.0  0.26776  0.50186  0.87269  1.0000
  H   H525      1.0  0.42233  0.44727  0.74148  1.0000
  H   H526      1.0  0.48077  0.43299  0.77188  1.0000
  C   C344      1.0  0.20569  0.61123  0.95360  1.0000
  H   H527      1.0  0.29778  0.47664  0.84592  1.0000
  H   H528      1.0  0.39840  0.43416  0.84979  1.0000
  H   H529      1.0  0.45118  0.47644  0.83409  1.0000
  H   H530      1.0  0.02287  0.48097  0.79187  1.0000
  H   H531      1.0  0.43579  0.49912  0.85875  1.0000
  H   H532      1.0  0.99059  0.43717  0.79529  1.0000
  H   H533      1.0  0.42426  0.65227  0.97274  1.0000
  H   H534      1.0  0.28406  0.50800  0.81136  1.0000
  C   C345      1.0  0.30329  0.49855  0.84326  1.0000
  H   H535      1.0  0.03695  0.46251  0.84185  1.0000
  H   H536      1.0  0.40362  0.60355  0.82825  1.0000
  C   C346      1.0  0.45690  0.61571  0.79216  1.0000
  S   S141      1.0  0.20723  0.59069  0.85778  1.0000
  H   H537      1.0  0.46281  0.50631  0.96831  1.0000
  N   N32       1.0  0.29551  0.63286  0.91988  1.0000
  H   H538      1.0  0.44520  0.43795  0.88331  1.0000
  H   H539      1.0  0.20206  0.61312  0.81777  1.0000
  C   C347      1.0  0.41238  0.61226  0.78951  1.0000
  H   H540      1.0  0.99374  0.55497  0.76494  1.0000
  C   C348      1.0  0.27533  0.61495  0.93640  1.0000
  S   S142      1.0  0.46659  0.58487  0.75035  1.0000
  H   H541      1.0  0.01344  0.61100  0.74429  1.0000
  H   H542      1.0  0.40337  0.46885  0.84477  1.0000
  H   H543      1.0  0.22052  0.64288  0.80043  1.0000
  H   H544      1.0  0.47188  0.50611  0.93356  1.0000
  H   H545      1.0  0.99608  0.42010  0.74296  1.0000
  C   C349      1.0  0.45046  0.49833  0.93400  1.0000
  H   H546      1.0  0.21145  0.51922  0.97910  1.0000
  H   H547      1.0  0.44385  0.51558  0.92949  1.0000
  H   H548      1.0  0.37799  0.62848  0.97113  1.0000
  N   N33       1.0  0.43589  0.48313  0.95351  1.0000
  H   H549      1.0  0.25878  0.56809  0.97713  1.0000
  C   C350      1.0  0.43719  0.64699  0.80336  1.0000
  C   C351      1.0  0.17439  0.57973  0.98061  1.0000
  C   C352      1.0  0.16891  0.63725  0.80590  1.0000
  C   C353      1.0  0.98433  0.36683  0.75317  1.0000
  H   H550      1.0  0.24475  0.51936  0.97774  1.0000
  H   H551      1.0  0.36691  0.65092  0.98366  1.0000
  H   H552      1.0  0.45205  0.65288  0.81238  1.0000
  H   H553      1.0  0.41893  0.65024  0.81033  1.0000
  H   H554      1.0  0.39577  0.46352  0.96836  1.0000
  H   H555      1.0  0.43043  0.48938  0.98272  1.0000
  C   C354      1.0  0.98436  0.45269  0.80034  1.0000
  H   H556      1.0  0.43315  0.44748  0.97297  1.0000
  N   N34       1.0  0.18678  0.64547  0.81913  1.0000
  H   H557      1.0  0.18501  0.64134  0.84980  1.0000
  H   H558      1.0  0.31690  0.65481  0.93831  1.0000
  H   H559      1.0  0.15174  0.64452  0.80828  1.0000
  H   H560      1.0  0.15489  0.64153  0.84255  1.0000
  C   C355      1.0  0.28624  0.65457  0.91180  1.0000
  H   H561      1.0  0.38727  0.65685  0.88282  1.0000
  C   C356      1.0  0.40074  0.90639  0.12946  1.0000
  Fe  Fe66      1.0  0.40505  0.84709  0.20577  1.0000
  H   H562      1.0  0.39555  0.74394  0.16451  1.0000
  C   C357      1.0  0.47700  0.98684  0.16413  1.0000
  S   S143      1.0  0.39796  0.88490  0.19436  1.0000
  H   H563      1.0  0.37003  0.77612  0.03292  1.0000
  Fe  Fe67      1.0  0.34060  0.81454  0.10107  1.0000
  S   S144      1.0  0.37160  0.80923  0.07886  1.0000
  S   S145      1.0  0.34835  0.84422  0.12021  1.0000
  Fe  Fe68      1.0  0.29730  0.76886  0.09456  1.0000
  S   S146      1.0  0.32429  0.75903  0.07208  1.0000
  S   S147      1.0  0.25513  0.74332  0.10261  1.0000
  Fe  Fe69      1.0  0.35263  0.76611  0.09199  1.0000
  S   S148      1.0  0.37561  0.73947  0.10098  1.0000
  Fe  Fe70      1.0  0.34062  0.80264  0.06082  1.0000
  S   S149      1.0  0.34621  0.81765  0.02876  1.0000
  S   S150      1.0  0.32397  0.77193  0.11560  1.0000
  S   S151      1.0  0.31121  0.81218  0.08183  1.0000
  C   C358      1.0  0.36914  0.66815  0.08743  1.0000
  C   C359      1.0  0.45780  0.96224  0.16707  1.0000
  C   C360      1.0  0.43123  0.95999  0.17204  1.0000
  H   H564      1.0  0.32449  0.71901  0.03620  1.0000
  H   H565      1.0  0.40997  0.86377  0.14778  1.0000
  N   N35       1.0  0.00211  0.66472  0.23228  1.0000
  H   H566      1.0  0.41897  0.89461  0.09617  1.0000
  H   H567      1.0  0.20365  0.68359  0.13029  1.0000
  H   H568      1.0  0.25342  0.66442  0.02952  1.0000
  H   H569      1.0  0.14380  0.66319  0.13149  1.0000
  H   H570      1.0  0.44962  0.93469  0.12977  1.0000
  C   C361      1.0  0.36106  0.83445  0.17475  1.0000
  H   H571      1.0  0.40154  0.91723  0.14157  1.0000
  H   H572      1.0  0.44973  0.81727  0.23436  1.0000
  C   C362      1.0  0.25863  0.66299  0.09317  1.0000
  H   H573      1.0  0.29703  0.67499  0.10006  1.0000
  C   C363      1.0  0.35194  0.84204  0.15816  1.0000
  C   C364      1.0  0.37536  0.81671  0.17485  1.0000
  C   C365      1.0  0.18962  0.68566  0.14253  1.0000
  H   H574      1.0  0.29839  0.70340  0.05699  1.0000
  C   C366      1.0  0.23479  0.69447  0.09456  1.0000
  C   C367      1.0  0.25580  0.71189  0.09991  1.0000
  C   C368      1.0  0.27795  0.70455  0.10233  1.0000
  C   C369      1.0  0.27944  0.68018  0.09884  1.0000
  H   H575      1.0  0.46620  0.91714  0.11583  1.0000
  H   H576      1.0  0.21788  0.70021  0.09225  1.0000
  H   H577      1.0  0.29414  0.71780  0.10666  1.0000
  Fe  Fe71      1.0  0.39600  0.89093  0.22491  1.0000
  C   C370      1.0  0.42724  0.88192  0.14251  1.0000
  C   C371      1.0  0.15258  0.70016  0.15240  1.0000
  C   C372      1.0  0.37463  0.68969  0.09666  1.0000
  C   C373      1.0  0.37100  0.71336  0.08859  1.0000
  C   C374      1.0  0.36324  0.71586  0.07080  1.0000
  C   C375      1.0  0.35796  0.69443  0.06152  1.0000
  Fe  Fe72      1.0  0.44119  0.90317  0.19090  1.0000
  H   H578      1.0  0.38144  0.68784  0.11010  1.0000
  H   H579      1.0  0.36192  0.73449  0.06395  1.0000
  H   H580      1.0  0.32976  0.96564  0.20791  1.0000
  C   C376      1.0  0.35685  0.83175  0.14163  1.0000
  H   H581      1.0  0.33974  0.73358  0.13904  1.0000
  C   C377      1.0  0.37032  0.81322  0.14194  1.0000
  H   H582      1.0  0.39097  0.79230  0.15848  1.0000
  H   H583      1.0  0.37444  0.80546  0.12911  1.0000
  C   C378      1.0  0.23602  0.66981  0.09154  1.0000
  H   H584      1.0  0.29849  0.66020  0.05149  1.0000
  C   C379      1.0  0.43883  0.76608  0.23222  1.0000
  H   H585      1.0  0.34122  0.85609  0.15809  1.0000
  C   C380      1.0  0.36182  0.77591  0.02002  1.0000
  H   H586      1.0  0.44497  0.87561  0.13975  1.0000
  H   H587      1.0  0.34340  0.75219  0.15794  1.0000
  H   H588      1.0  0.37659  0.68967  0.15595  1.0000
  H   H589      1.0  0.31990  0.69225  0.16353  1.0000
  H   H590      1.0  0.36786  0.74118  0.18292  1.0000
  S   S152      1.0  0.38970  0.80987  0.19468  1.0000
  N   N36       1.0  0.42446  0.89844  0.12498  1.0000
  H   H591      1.0  0.32683  0.80649  0.99479  1.0000
  C   C381      1.0  0.36586  0.75883  0.00770  1.0000
  C   C382      1.0  0.35609  0.75912  0.99061  1.0000
  H   H592      1.0  0.19927  0.72497  0.11100  1.0000
  H   H593      1.0  0.35784  0.69664  0.13836  1.0000
  H   H594      1.0  0.36176  0.96191  0.20250  1.0000
  C   C383      1.0  0.29855  0.69998  0.00974  1.0000
  N   N37       1.0  0.17121  0.69859  0.13559  1.0000
  C   C384      1.0  0.18606  0.72551  0.12433  1.0000
  H   H595      1.0  0.17278  0.73639  0.11968  1.0000
  H   H596      1.0  0.14353  0.69290  0.11674  1.0000
  N   N38       1.0  0.35859  0.71943  0.16062  1.0000
  C   C385      1.0  0.34759  0.96576  0.21378  1.0000
  H   H597      1.0  0.17901  0.66549  0.15138  1.0000
  H   H598      1.0  0.32350  0.67353  0.03000  1.0000
  C   C386      1.0  0.30280  0.71079  0.04101  1.0000
  H   H599      1.0  0.38070  0.71398  0.18253  1.0000
  H   H600      1.0  0.33718  0.68387  0.18171  1.0000
  H   H601      1.0  0.19874  0.73739  0.13280  1.0000
  S   S153      1.0  0.46712  0.93410  0.16576  1.0000
  C   C387      1.0  0.37960  0.80574  0.15855  1.0000
  C   C388      1.0  0.44779  0.92233  0.11856  1.0000
  H   H602      1.0  0.38939  0.71943  0.13777  1.0000
  S   S154      1.0  0.43233  0.66844  0.21316  1.0000
  C   C389      1.0  0.33374  0.70070  0.17266  1.0000
  N   N39       1.0  0.29152  0.68959  0.03088  1.0000
  H   H603      1.0  0.16299  0.71192  0.16204  1.0000
  H   H604      1.0  0.39828  0.91931  0.11667  1.0000
  H   H605      1.0  0.40458  0.79320  0.23132  1.0000
  C   C390      1.0  0.30196  0.66749  0.03555  1.0000
  C   C391      1.0  0.34828  0.79357  0.01513  1.0000
  H   H606      1.0  0.35694  0.84231  0.18750  1.0000
  H   H607      1.0  0.32380  0.71048  0.18261  1.0000
  H   H608      1.0  0.25411  0.69626  0.03434  1.0000
  S   S155      1.0  0.43879  0.91284  0.22029  1.0000
  S   S156      1.0  0.44881  0.86516  0.19963  1.0000
  H   H609      1.0  0.13809  0.70940  0.14775  1.0000
  H   H610      1.0  0.37706  0.74580  0.01125  1.0000
  H   H611      1.0  0.02259  0.66222  0.20475  1.0000
  H   H612      1.0  0.37120  0.75563  0.13932  1.0000
  C   C392      1.0  0.37113  0.70565  0.14766  1.0000
  C   C393      1.0  0.15653  0.68300  0.12314  1.0000
  H   H613      1.0  0.28941  0.68477  0.00172  1.0000
  C   C394      1.0  0.35296  0.74121  0.14880  1.0000
  H   H614      1.0  0.40496  0.86467  0.11403  1.0000
  C   C395      1.0  0.37646  0.73013  0.17322  1.0000
  H   H615      1.0  0.14126  0.68013  0.16131  1.0000
  H   H616      1.0  0.35245  0.69661  0.04764  1.0000
  H   H617      1.0  0.41631  0.94098  0.17434  1.0000
  H   H618      1.0  0.42555  0.74618  0.23189  1.0000
  H   H619      1.0  0.42904  0.89279  0.15453  1.0000
  C   C396      1.0  0.42204  0.88315  0.10943  1.0000
  H   H620      1.0  0.29198  0.71741  0.00575  1.0000
  C   C397      1.0  0.42386  0.98245  0.17394  1.0000
  H   H621      1.0  0.43981  0.87728  0.10540  1.0000
  C   C398      1.0  0.33772  0.79317  0.99841  1.0000
  H   H622      1.0  0.38268  0.88892  0.13380  1.0000
  H   H623      1.0  0.20144  0.69717  0.15162  1.0000
  H   H624      1.0  0.16997  0.67977  0.11102  1.0000
  H   H625      1.0  0.32013  0.70632  0.00436  1.0000
  H   H626      1.0  0.44177  0.77916  0.21788  1.0000
  H   H627      1.0  0.44675  0.93488  0.10503  1.0000
  H   H628      1.0  0.29491  0.72755  0.03822  1.0000
  H   H629      1.0  0.99026  0.66401  0.20490  1.0000
  H   H630      1.0  0.34172  0.94867  0.22620  1.0000
  C   C399      1.0  0.26266  0.68003  0.03720  1.0000
  C   C400      1.0  0.00817  0.67144  0.21087  1.0000
  H   H631      1.0  0.01657  0.69313  0.20530  1.0000
  C   C401      1.0  0.36037  0.67044  0.07001  1.0000
  H   H632      1.0  0.40334  0.98071  0.17761  1.0000
  Fe  Fe73      1.0  0.44277  0.87305  0.22956  1.0000
  H   H633      1.0  0.25672  0.67142  0.05297  1.0000
  H   H634      1.0  0.45807  0.76364  0.23394  1.0000
  C   C402      1.0  0.34132  0.77573  0.98633  1.0000
  H   H635      1.0  0.99207  0.69991  0.23509  1.0000
  H   H636      1.0  0.03667  0.69500  0.23456  1.0000
  N   N40       1.0  0.35925  0.99094  0.21970  1.0000
  C   C403      1.0  0.38388  0.99081  0.22603  1.0000
  H   H637      1.0  0.39872  0.98944  0.21395  1.0000
  H   H638      1.0  0.04067  0.66315  0.23455  1.0000
  C   C404      1.0  0.12868  0.95571  0.36374  1.0000
  H   H639      1.0  0.43060  0.91205  0.29183  1.0000
  S   S157      1.0  0.39943  0.85131  0.23693  1.0000
  H   H640      1.0  0.43205  0.88656  0.26585  1.0000
  S   S158      1.0  0.09175  0.93113  0.44353  1.0000
  H   H641      1.0  0.41561  0.93371  0.32994  1.0000
  H   H642      1.0  0.98476  0.73210  0.37134  1.0000
  N   N41       1.0  0.41456  0.93713  0.35959  1.0000
  H   H643      1.0  0.07685  0.93258  0.36711  1.0000
  S   S159      1.0  0.46938  0.93643  0.31211  1.0000
  C   C405      1.0  0.21989  0.96577  0.38111  1.0000
  C   C406      1.0  0.24360  0.97700  0.36750  1.0000
  C   C407      1.0  0.44922  0.89356  0.27188  1.0000
  C   C408      1.0  0.41710  0.95796  0.37113  1.0000
  Fe  Fe74      1.0  0.42163  0.67097  0.24417  1.0000
  H   H644      1.0  0.12742  0.97327  0.36974  1.0000
  C   C409      1.0  0.44847  0.90813  0.28651  1.0000
  H   H645      1.0  0.08969  0.65935  0.28771  1.0000
  S   S160      1.0  0.31381  0.96442  0.32001  1.0000
  H   H646      1.0  0.40232  0.96833  0.36942  1.0000
  H   H647      1.0  0.00187  0.89476  0.46603  1.0000
  Fe  Fe75      1.0  0.34731  0.95328  0.32961  1.0000
  S   S161      1.0  0.36036  0.91851  0.32457  1.0000
  H   H648      1.0  0.37245  0.92585  0.36484  1.0000
  S   S162      1.0  0.33919  0.96258  0.35896  1.0000
  H   H649      1.0  0.41611  0.76632  0.27928  1.0000
  H   H650      1.0  0.45511  0.93924  0.35640  1.0000
  H   H651      1.0  0.08239  0.94756  0.38753  1.0000
  H   H652      1.0  0.43737  0.96408  0.33327  1.0000
  C   C410      1.0  0.36579  0.91219  0.26112  1.0000
  C   C411      1.0  0.35261  0.92824  0.26883  1.0000
  C   C412      1.0  0.35128  0.93040  0.28821  1.0000
  C   C413      1.0  0.36213  0.91562  0.30028  1.0000
  C   C414      1.0  0.37486  0.89900  0.29274  1.0000
  C   C415      1.0  0.46639  0.66310  0.30732  1.0000
  H   H653      1.0  0.34137  0.94316  0.29385  1.0000
  H   H654      1.0  0.38310  0.88733  0.30209  1.0000
  C   C416      1.0  0.37702  0.89757  0.27307  1.0000
  H   H655      1.0  0.98254  0.85192  0.45757  1.0000
  H   H656      1.0  0.12051  0.94569  0.40242  1.0000
  H   H657      1.0  0.43685  0.97323  0.36657  1.0000
  C   C417      1.0  0.43510  0.92459  0.36166  1.0000
  C   C418      1.0  0.38836  0.91700  0.36638  1.0000
  C   C419      1.0  0.43340  0.67105  0.28994  1.0000
  S   S163      1.0  0.26951  0.96429  0.37028  1.0000
  C   C420      1.0  0.47893  0.69781  0.27841  1.0000
  H   H658      1.0  0.21753  0.94881  0.39227  1.0000
  C   C421      1.0  0.45278  0.69109  0.27621  1.0000
  H   H659      1.0  0.38687  0.88480  0.26726  1.0000
  H   H660      1.0  0.43346  0.91536  0.37701  1.0000
  H   H661      1.0  0.10672  0.90907  0.35430  1.0000
  H   H662      1.0  0.10679  0.95443  0.47918  1.0000
  C   C422      1.0  0.47071  0.91750  0.29426  1.0000
  C   C423      1.0  0.06328  0.91964  0.43418  1.0000
  C   C424      1.0  0.05243  0.89259  0.43443  1.0000
  C   C425      1.0  0.02986  0.88336  0.42675  1.0000
  C   C426      1.0  0.01810  0.90120  0.41885  1.0000
  C   C427      1.0  0.02903  0.92816  0.41864  1.0000
  C   C428      1.0  0.05140  0.93733  0.42636  1.0000
  H   H663      1.0  0.06164  0.87880  0.44038  1.0000
  H   H664      1.0  0.02186  0.86261  0.42656  1.0000
  H   H665      1.0  0.02004  0.94207  0.41252  1.0000
  H   H666      1.0  0.05926  0.95813  0.42639  1.0000
  H   H667      1.0  0.18434  0.98723  0.46160  1.0000
  S   S164      1.0  0.44463  0.70538  0.25523  1.0000
  H   H668      1.0  0.38569  0.90124  0.35772  1.0000
  H   H669      1.0  0.38519  0.90744  0.38186  1.0000
  C   C429      1.0  0.44632  0.80307  0.24826  1.0000
  H   H670      1.0  0.43382  0.90898  0.35291  1.0000
  C   C430      1.0  0.12101  0.92865  0.39555  1.0000
  H   H671      1.0  0.34318  0.93886  0.25990  1.0000
  C   C431      1.0  0.02659  0.67340  0.23957  1.0000
  H   H672      1.0  0.43002  0.95560  0.29533  1.0000
  S   S165      1.0  0.99054  0.89128  0.40828  1.0000
  C   C432      1.0  0.47191  0.88744  0.26550  1.0000
  C   C433      1.0  0.41771  0.94900  0.33899  1.0000
  N   N42       1.0  0.11190  0.93083  0.37706  1.0000
  C   C434      1.0  0.08439  0.93080  0.38073  1.0000
  C   C435      1.0  0.11357  0.90815  0.36824  1.0000
  H   H673      1.0  0.41053  0.73877  0.26727  1.0000
  H   H674      1.0  0.14154  0.92813  0.39341  1.0000
  H   H675      1.0  0.18120  0.96752  0.39103  1.0000
  H   H676      1.0  0.40522  0.96915  0.28911  1.0000
  H   H677      1.0  0.38806  0.76034  0.24517  1.0000
  H   H678      1.0  0.13413  0.90770  0.36519  1.0000
  H   H679      1.0  0.10840  0.91046  0.40620  1.0000
  C   C436      1.0  0.42420  0.75878  0.26686  1.0000
  Fe  Fe76      1.0  0.30800  0.97736  0.34844  1.0000
  H   H680      1.0  0.12285  0.95785  0.34945  1.0000
  H   H681      1.0  0.07112  0.91229  0.39070  1.0000
  H   H682      1.0  0.07909  0.96605  0.48373  1.0000
  H   H683      1.0  0.40254  0.95860  0.33687  1.0000
  C   C437      1.0  0.19936  0.97650  0.38054  1.0000
  H   H684      1.0  0.10124  0.88906  0.37800  1.0000
  Fe  Fe77      1.0  0.11537  0.97413  0.43143  1.0000
  H   H685      1.0  0.14976  0.95687  0.36107  1.0000
  C   C438      1.0  0.98371  0.67808  0.23983  1.0000
  H   H686      1.0  0.41426  0.94968  0.38683  1.0000
  S   S166      1.0  0.15931  0.98620  0.42223  1.0000
  H   H687      1.0  0.39368  0.78798  0.25705  1.0000
  C   C439      1.0  0.46827  0.98481  0.26475  1.0000
  H   H688      1.0  0.00985  0.84218  0.46348  1.0000
  H   H689      1.0  0.02262  0.66905  0.25570  1.0000
  H   H690      1.0  0.46432  0.97126  0.25448  1.0000
  H   H691      1.0  0.44307  0.75603  0.26935  1.0000
  H   H692      1.0  0.25643  0.99054  0.40469  1.0000
  H   H693      1.0  0.41315  0.66583  0.28839  1.0000
  N   N43       1.0  0.42794  0.77691  0.24818  1.0000
  H   H694      1.0  0.43016  0.99076  0.24632  1.0000
  H   H695      1.0  0.41885  0.95156  0.27326  1.0000
  H   H696      1.0  0.47592  0.97509  0.27641  1.0000
  H   H697      1.0  0.43871  0.81199  0.26004  1.0000
  S   S167      1.0  0.36820  0.91130  0.23645  1.0000
  H   H698      1.0  0.33678  0.97859  0.24904  1.0000
  C   C440      1.0  0.42373  0.96565  0.28306  1.0000
  C   C441      1.0  0.40243  0.77971  0.24534  1.0000
  H   H699      1.0  0.02860  0.88534  0.47334  1.0000
  H   H700      1.0  0.46579  0.80181  0.25047  1.0000
  C   C442      1.0  0.98995  0.84264  0.46959  1.0000
  S   S168      1.0  0.47309  0.86972  0.24692  1.0000
  C   C443      1.0  0.00797  0.88460  0.47843  1.0000
  H   H701      1.0  0.38046  0.97370  0.23804  1.0000
  N   N44       1.0  0.44433  0.99056  0.27284  1.0000
  H   H702      1.0  0.28423  0.96767  0.60213  1.0000
  N   N45       1.0  0.03495  0.85036  0.62021  1.0000
  S   S169      1.0  0.34762  0.98159  0.67265  1.0000
  H   H703      1.0  0.02057  0.81063  0.63699  1.0000
  S   S170      1.0  0.07625  0.96418  0.59699  1.0000
  S   S171      1.0  0.15004  0.96571  0.58632  1.0000
  C   C444      1.0  0.32288  0.97526  0.62266  1.0000
  C   C445      1.0  0.03763  0.84185  0.60146  1.0000
  C   C446      1.0  0.18230  0.97928  0.49243  1.0000
  H   H704      1.0  0.05563  0.89117  0.60738  1.0000
  C   C447      1.0  0.18187  0.98968  0.50927  1.0000
  C   C448      1.0  0.00930  0.85474  0.62483  1.0000
  H   H705      1.0  0.45903  0.88268  0.73020  1.0000
  H   H706      1.0  0.35601  0.93458  0.73435  1.0000
  H   H707      1.0  0.02218  0.82288  0.60204  1.0000
  C   C449      1.0  0.35159  0.95465  0.70718  1.0000
  C   C450      1.0  0.28360  0.98037  0.61298  1.0000
  C   C451      1.0  0.28039  0.94448  0.63896  1.0000
  C   C452      1.0  0.08976  0.95352  0.49044  1.0000
  H   H708      1.0  0.03573  0.85663  0.58960  1.0000
  H   H709      1.0  0.27213  0.98758  0.64935  1.0000
  C   C453      1.0  0.33526  0.98837  0.72867  1.0000
  C   C454      1.0  0.29292  0.98927  0.64371  1.0000
  N   N46       1.0  0.09831  0.96225  0.50775  1.0000
  H   H710      1.0  0.05698  0.83893  0.59724  1.0000
  Fe  Fe78      1.0  0.16634  0.98895  0.55590  1.0000
  H   H711      1.0  0.35779  0.94151  0.69891  1.0000
  H   H712      1.0  0.25923  0.94167  0.64432  1.0000
  C   C455      1.0  0.11585  0.98992  0.50226  1.0000
  H   H713      1.0  0.28843  0.93800  0.65162  1.0000
  Fe  Fe79      1.0  0.11948  0.98594  0.58589  1.0000
  C   C456      1.0  0.34494  0.97577  0.69784  1.0000
  S   S172      1.0  0.02850  0.87960  0.54887  1.0000
  H   H714      1.0  0.10021  0.92404  0.51970  1.0000
  C   C457      1.0  0.03654  0.82961  0.63560  1.0000
  H   H715      1.0  0.30145  0.98394  0.65638  1.0000
  H   H716      1.0  0.26272  0.97921  0.61776  1.0000
  H   H717      1.0  0.08129  0.90489  0.55197  1.0000
  H   H718      1.0  0.45292  0.97458  0.68845  1.0000
  C   C458      1.0  0.35074  0.95082  0.72720  1.0000
  H   H719      1.0  0.05477  0.88244  0.63272  1.0000
  H   H720      1.0  0.99192  0.73700  0.64045  1.0000
  H   H721      1.0  0.03458  0.83534  0.64996  1.0000
  C   C459      1.0  0.06299  0.94009  0.58407  1.0000
  C   C460      1.0  0.07941  0.93135  0.57150  1.0000
  C   C461      1.0  0.06854  0.91198  0.56136  1.0000
  C   C462      1.0  0.04129  0.90168  0.56339  1.0000
  C   C463      1.0  0.02480  0.90983  0.57636  1.0000
  C   C464      1.0  0.03566  0.92899  0.58673  1.0000
  H   H722      1.0  0.10050  0.93941  0.56970  1.0000
  C   C465      1.0  0.07510  0.96036  0.52237  1.0000
  H   H723      1.0  0.00372  0.90196  0.57802  1.0000
  H   H724      1.0  0.02291  0.93560  0.59656  1.0000
  H   H725      1.0  0.00801  0.89632  0.48999  1.0000
  H   H726      1.0  0.07596  0.87272  0.61544  1.0000
  H   H727      1.0  0.13056  0.94664  0.50551  1.0000
  H   H728      1.0  0.08086  0.96647  0.53575  1.0000
  H   H729      1.0  0.32528  0.96255  0.61208  1.0000
  H   H730      1.0  0.98697  0.82339  0.50748  1.0000
  C   C466      1.0  0.11256  0.94516  0.51595  1.0000
  C   C467      1.0  0.05628  0.87520  0.61892  1.0000
  H   H731      1.0  0.02006  0.84277  0.49591  1.0000
  C   C468      1.0  0.47993  0.95688  0.72131  1.0000
  N   N47       1.0  0.29493  0.97230  0.62955  1.0000
  H   H732      1.0  0.06130  0.93977  0.52672  1.0000
  H   H733      1.0  0.00735  0.87017  0.61344  1.0000
  S   S173      1.0  0.44740  0.93577  0.72811  1.0000
  H   H734      1.0  0.98490  0.70226  0.57394  1.0000
  S   S174      1.0  0.17596  0.96871  0.53182  1.0000
  H   H735      1.0  0.07643  0.93273  0.49409  1.0000
  H   H736      1.0  0.28158  0.93102  0.62873  1.0000
  H   H737      1.0  0.99276  0.83630  0.62602  1.0000
  H   H738      1.0  0.00662  0.86129  0.63884  1.0000
  S   S175      1.0  0.99377  0.80677  0.56806  1.0000
  H   H739      1.0  0.11889  0.95075  0.52930  1.0000
  H   H740      1.0  0.05554  0.82558  0.63252  1.0000
  C   C469      1.0  0.00021  0.84396  0.50127  1.0000
  H   H741      1.0  0.18020  0.95857  0.49336  1.0000
  H   H742      1.0  0.06402  0.97322  0.51678  1.0000
  H   H743      1.0  0.41115  0.97363  0.70778  1.0000
  Fe  Fe80      1.0  0.99037  0.84736  0.56275  1.0000
  H   H744      1.0  0.33214  0.96985  0.63491  1.0000
  H   H745      1.0  0.00170  0.85483  0.51335  1.0000
  H   H746      1.0  0.44596  0.84816  0.73005  1.0000
  N   N48       1.0  0.99044  0.85707  0.48563  1.0000
  C   C470      1.0  0.24547  0.68174  0.87715  1.0000
  C   C471      1.0  0.23631  0.69758  0.90666  1.0000
  H   H747      1.0  0.22249  0.69773  0.91925  1.0000
  C   C472      1.0  0.22791  0.68120  0.89381  1.0000
  H   H748      1.0  0.20787  0.68337  0.80061  1.0000
  C   C473      1.0  0.19687  0.67461  0.81577  1.0000
  H   H749      1.0  0.18064  0.68311  0.81855  1.0000
  H   H750      1.0  0.21050  0.68123  0.82558  1.0000
  C   C474      1.0  0.26251  0.71365  0.90330  1.0000
  H   H751      1.0  0.26237  0.78133  0.89155  1.0000
  H   H752      1.0  0.20765  0.66876  0.89651  1.0000
  S   S176      1.0  0.23486  0.66287  0.86026  1.0000
  H   H753      1.0  0.26099  0.80010  0.86891  1.0000
  H   H754      1.0  0.28208  0.66619  0.92284  1.0000
  H   H755      1.0  0.26497  0.81559  0.88938  1.0000
  H   H756      1.0  0.30115  0.66860  0.89940  1.0000
  H   H757      1.0  0.41252  0.67464  0.98500  1.0000
  H   H758      1.0  0.33539  0.65818  0.91453  1.0000
  H   H759      1.0  0.45241  0.89858  0.76041  1.0000
  N   N49       1.0  0.43555  0.85859  0.75741  1.0000
  H   H760      1.0  0.42048  0.81638  0.76084  1.0000
  H   H761      1.0  0.41545  0.82844  0.78280  1.0000
  H   H762      1.0  0.43367  0.87593  0.78257  1.0000
  C   C475      1.0  0.27169  0.69762  0.87385  1.0000
  H   H763      1.0  0.28540  0.69775  0.86111  1.0000
  Fe  Fe81      1.0  0.41647  0.96210  0.79146  1.0000
  C   C476      1.0  0.28032  0.71304  0.88715  1.0000
  C   C477      1.0  0.42952  0.83160  0.76886  1.0000
  Fe  Fe82      1.0  0.31536  0.74527  0.91910  1.0000
  H   H764      1.0  0.48097  0.97018  0.74828  1.0000
  Fe  Fe83      1.0  0.36810  0.78850  0.90725  1.0000
  H   H765      1.0  0.39049  0.82055  0.98149  1.0000
  N   N50       1.0  0.29951  0.80847  0.87548  1.0000
  H   H766      1.0  0.40240  0.81346  0.93033  1.0000
  C   C478      1.0  0.40374  0.67097  0.93196  1.0000
  H   H767      1.0  0.37242  0.84032  0.93432  1.0000
  C   C479      1.0  0.39181  0.66078  0.89654  1.0000
  C   C480      1.0  0.27068  0.80111  0.88156  1.0000
  H   H768      1.0  0.38857  0.79592  0.95489  1.0000
  H   H769      1.0  0.40140  0.84807  0.74478  1.0000
  S   S177      1.0  0.38252  0.91186  0.76324  1.0000
  C   C481      1.0  0.42215  0.86114  0.93794  1.0000
  C   C482      1.0  0.30604  0.78855  0.86536  1.0000
  C   C483      1.0  0.45421  0.86236  0.73904  1.0000
  S   S178      1.0  0.38958  0.76182  0.91894  1.0000
  C   C484      1.0  0.40413  0.81363  0.94565  1.0000
  H   H770      1.0  0.29837  0.76859  0.87495  1.0000
  C   C485      1.0  0.38865  0.68324  0.90273  1.0000
  H   H771      1.0  0.32765  0.79330  0.86067  1.0000
  Fe  Fe84      1.0  0.42397  0.93895  0.75581  1.0000
  H   H772      1.0  0.42337  0.81113  0.94720  1.0000
  H   H773      1.0  0.30065  0.72478  0.88462  1.0000
  S   S179      1.0  0.37934  0.86121  0.80719  1.0000
  H   H774      1.0  0.38959  0.89383  0.83593  1.0000
  N   N51       1.0  0.40171  0.83827  0.95111  1.0000
  S   S180      1.0  0.41272  0.97436  0.76088  1.0000
  C   C486      1.0  0.38310  0.82175  0.85881  1.0000
  S   S181      1.0  0.43228  0.92948  0.78539  1.0000
  S   S182      1.0  0.38644  0.83220  0.89500  1.0000
  H   H775      1.0  0.40231  0.85591  0.97627  1.0000
  S   S183      1.0  0.36314  0.73906  0.97466  1.0000
  H   H776      1.0  0.44219  0.86023  0.93862  1.0000
  C   C487      1.0  0.39447  0.68828  0.92049  1.0000
  H   H777      1.0  0.37804  0.81321  0.83086  1.0000
  S   S184      1.0  0.34557  0.75965  0.89163  1.0000
  H   H778      1.0  0.42101  0.88012  0.94165  1.0000
  S   S185      1.0  0.33602  0.77661  0.93380  1.0000
  H   H779      1.0  0.35960  0.82320  0.95900  1.0000
  S   S186      1.0  0.37598  0.70404  0.88866  1.0000
  H   H780      1.0  0.30725  0.82452  0.90062  1.0000
  H   H781      1.0  0.37296  0.85851  0.95347  1.0000
  C   C488      1.0  0.38671  0.84095  0.87016  1.0000
  C   C489      1.0  0.37553  0.84019  0.94940  1.0000
  C   C490      1.0  0.34232  0.96754  0.73799  1.0000
  H   H782      1.0  0.39665  0.86032  0.76665  1.0000
  C   C491      1.0  0.41104  0.86253  0.75311  1.0000
  H   H783      1.0  0.39236  0.88206  0.87044  1.0000
  C   C492      1.0  0.40503  0.83812  0.97131  1.0000
  H   H784      1.0  0.30175  0.83468  0.84891  1.0000
  H   H785      1.0  0.30537  0.85025  0.86937  1.0000
  H   H786      1.0  0.33173  0.84073  0.85761  1.0000
  S   S187      1.0  0.37479  0.93607  0.80226  1.0000
  H   H787      1.0  0.33305  0.81429  0.88881  1.0000
  C   C493      1.0  0.31137  0.80939  0.89278  1.0000
  C   C494      1.0  0.38777  0.87372  0.84228  1.0000
  H   H788      1.0  0.39195  0.70556  0.92536  1.0000
  C   C495      1.0  0.30997  0.83468  0.86228  1.0000
  H   H789      1.0  0.42484  0.83742  0.97302  1.0000
  H   H790      1.0  0.44753  0.82794  0.77248  1.0000
  C   C496      1.0  0.38114  0.82829  0.83946  1.0000
  H   H791      1.0  0.40838  0.67505  0.94560  1.0000
  H   H792      1.0  0.41997  0.86178  0.92258  1.0000
  H   H793      1.0  0.30362  0.79003  0.90318  1.0000
  Fe  Fe85      1.0  0.37191  0.94639  0.77125  1.0000
  Fe  Fe86      1.0  0.36402  0.73176  0.90564  1.0000
  S   S188      1.0  0.33195  0.71502  0.93210  1.0000
  Fe  Fe87      1.0  0.35561  0.74758  0.94447  1.0000
  C   C497      1.0  0.38937  0.86704  0.86179  1.0000
  H   H794      1.0  0.44458  0.66065  0.78894  1.0000
  C   C498      1.0  0.38331  0.85421  0.83118  1.0000
  H   H795      1.0  0.38221  0.80191  0.86484  1.0000
  S   S189      1.0  0.27248  0.73513  0.91889  1.0000
  H   H796      1.0  0.29743  0.78728  0.85222  1.0000
  H   H797      1.0  0.33279  0.77531  0.97366  1.0000
  S   S190      1.0  0.34086  0.96288  0.76304  1.0000
  Fe  Fe88      1.0  0.38998  0.90421  0.79330  1.0000
  H   H798      1.0  0.47302  0.85970  0.74170  1.0000
  H   H799      1.0  0.46578  0.87548  0.77237  1.0000
  H   H800      1.0  0.41487  0.88262  0.74435  1.0000
  C   C499      1.0  0.44736  0.87798  0.76870  1.0000
  H   H801      1.0  0.53114  0.04410  0.22677  1.0000
  S   S191      1.0  0.57954  0.30006  0.03329  1.0000
  Fe  Fe89      1.0  0.50982  0.11613  0.17767  1.0000
  H   H802      1.0  0.50938  0.20411  0.09910  1.0000
  H   H803      1.0  0.54094  0.24180  0.10619  1.0000
  H   H804      1.0  0.60676  0.09694  0.17845  1.0000
  S   S192      1.0  0.53304  0.24433  0.05397  1.0000
  H   H805      1.0  0.63245  0.12665  0.14717  1.0000
  H   H806      1.0  0.57948  0.13252  0.14245  1.0000
  H   H807      1.0  0.60194  0.03852  0.19422  1.0000
  C   C500      1.0  0.54799  0.17483  0.09530  1.0000
  H   H808      1.0  0.56778  0.20124  0.13303  1.0000
  H   H809      1.0  0.51499  0.99522  0.19563  1.0000
  H   H810      1.0  0.58496  0.10169  0.15094  1.0000
  S   S193      1.0  0.54652  0.29787  0.08731  1.0000
  Fe  Fe90      1.0  0.60811  0.27817  0.03786  1.0000
  H   H811      1.0  0.52414  0.15784  0.04108  1.0000
  S   S194      1.0  0.55620  0.05031  0.18656  1.0000
  H   H812      1.0  0.57538  0.21166  0.09723  1.0000
  H   H813      1.0  0.50963  0.99348  0.22124  1.0000
  H   H814      1.0  0.50676  0.13390  0.00705  1.0000
  C   C501      1.0  0.53072  0.15031  0.10577  1.0000
  H   H815      1.0  0.50733  0.19329  0.02788  1.0000
  H   H816      1.0  0.55132  0.16080  0.98913  1.0000
  C   C502      1.0  0.56560  0.04201  0.20846  1.0000
  N   N52       1.0  0.60068  0.13287  0.16565  1.0000
  C   C503      1.0  0.49712  0.20075  0.11383  1.0000
  C   C504      1.0  0.65828  0.29190  0.06388  1.0000
  S   S195      1.0  0.53750  0.26671  0.99849  1.0000
  C   C505      1.0  0.58076  0.11914  0.15550  1.0000
  H   H817      1.0  0.66288  0.28484  0.09352  1.0000
  H   H818      1.0  0.64507  0.27223  0.06507  1.0000
  H   H819      1.0  0.51200  0.12599  0.13411  1.0000
  Fe  Fe91      1.0  0.55875  0.27861  0.06343  1.0000
  Fe  Fe92      1.0  0.55708  0.26373  0.02406  1.0000
  S   S196      1.0  0.55128  0.18290  0.07003  1.0000
  C   C506      1.0  0.58930  0.03665  0.20796  1.0000
  C   C507      1.0  0.52836  0.23838  0.12079  1.0000
  H   H820      1.0  0.60824  0.16623  0.17958  1.0000
  S   S197      1.0  0.58717  0.24313  0.02652  1.0000
  C   C508      1.0  0.66861  0.29893  0.07988  1.0000
  H   H821      1.0  0.62645  0.15720  0.13931  1.0000
  C   C509      1.0  0.55735  0.18699  0.12546  1.0000
  C   C510      1.0  0.53923  0.16300  0.13599  1.0000
  Fe  Fe93      1.0  0.52262  0.06632  0.19044  1.0000
  S   S198      1.0  0.53187  0.15779  0.16137  1.0000
  C   C511      1.0  0.59356  0.15516  0.17203  1.0000
  H   H822      1.0  0.54314  0.14442  0.02499  1.0000
  C   C512      1.0  0.53826  0.16261  0.02698  1.0000
  H   H823      1.0  0.52021  0.13613  0.09820  1.0000
  H   H824      1.0  0.64215  0.15345  0.15950  1.0000
  H   H825      1.0  0.53177  0.25796  0.12496  1.0000
  H   H826      1.0  0.57414  0.14818  0.18222  1.0000
  C   C513      1.0  0.60174  0.11418  0.18270  1.0000
  C   C514      1.0  0.56156  0.19300  0.10518  1.0000
  C   C515      1.0  0.62660  0.14301  0.15231  1.0000
  S   S199      1.0  0.52642  0.10252  0.20272  1.0000
  C   C516      1.0  0.52161  0.19693  0.01404  1.0000
  H   H827      1.0  0.58246  0.10602  0.19305  1.0000
  C   C517      1.0  0.52621  0.14445  0.12611  1.0000
  H   H828      1.0  0.53551  0.22601  0.13118  1.0000
  H   H829      1.0  0.61653  0.12379  0.19078  1.0000
  Fe  Fe94      1.0  0.56497  0.22650  0.05720  1.0000
  S   S200      1.0  0.58905  0.25950  0.06891  1.0000
  H   H830      1.0  0.59197  0.16933  0.15957  1.0000
  C   C518      1.0  0.54933  0.03960  0.22630  1.0000
  H   H831      1.0  0.56099  0.11176  0.16506  1.0000
  C   C519      1.0  0.52824  0.31846  0.08099  1.0000
  C   C520      1.0  0.66517  0.31029  0.04640  1.0000
  S   S201      1.0  0.50880  0.08103  0.16429  1.0000
  C   C521      1.0  0.51591  0.31626  0.06521  1.0000
  C   C522      1.0  0.50310  0.15252  0.00947  1.0000
  N   N53       1.0  0.52747  0.17269  0.01073  1.0000
  H   H832      1.0  0.50305  0.18649  0.12363  1.0000
  H   H833      1.0  0.49386  0.26290  0.11239  1.0000
  H   H834      1.0  0.48460  0.02787  0.16478  1.0000
  H   H835      1.0  0.58315  0.25010  0.98851  1.0000
  S   S202      1.0  0.65040  0.30269  0.02696  1.0000
  H   H836      1.0  0.56586  0.19332  0.99311  1.0000
  C   C523      1.0  0.54694  0.17875  0.99243  1.0000
  H   H837      1.0  0.48792  0.14760  0.02302  1.0000
  H   H838      1.0  0.50262  0.24818  0.09267  1.0000
  H   H839      1.0  0.51732  0.30147  0.05680  1.0000
  H   H840      1.0  0.53961  0.21269  0.01480  1.0000
  N   N54       1.0  0.50036  0.22570  0.12077  1.0000
  H   H841      1.0  0.61493  0.02423  0.22478  1.0000
  H   H842      1.0  0.55656  0.17752  0.02844  1.0000
  C   C524      1.0  0.59660  0.02850  0.22524  1.0000
  Fe  Fe95      1.0  0.48468  0.08228  0.21798  1.0000
  C   C525      1.0  0.49125  0.24363  0.10781  1.0000
  H   H843      1.0  0.51330  0.20513  0.00213  1.0000
  H   H844      1.0  0.48694  0.23844  0.14642  1.0000
  H   H845      1.0  0.49119  0.20644  0.15080  1.0000
  S   S203      1.0  0.48251  0.04446  0.20814  1.0000
  H   H846      1.0  0.49462  0.15959  0.99725  1.0000
  C   C526      1.0  0.48478  0.22003  0.14069  1.0000
  C   C527      1.0  0.68581  0.32435  0.07840  1.0000
  S   S204      1.0  0.87270  0.12824  0.43271  1.0000
  Fe  Fe96      1.0  0.76714  0.03919  0.39124  1.0000
  S   S205      1.0  0.73146  0.05234  0.39290  1.0000
  S   S206      1.0  0.80659  0.06951  0.37748  1.0000
  H   H847      1.0  0.58943  0.08230  0.35488  1.0000
  Fe  Fe97      1.0  0.95866  0.20423  0.40769  1.0000
  H   H848      1.0  0.55576  0.06286  0.36509  1.0000
  C   C528      1.0  0.75059  0.06480  0.45114  1.0000
  H   H849      1.0  0.57001  0.00120  0.38271  1.0000
  Fe  Fe98      1.0  0.71848  0.02614  0.42244  1.0000
  S   S207      1.0  0.70055  0.03602  0.44962  1.0000
  H   H850      1.0  0.93103  0.31733  0.29253  1.0000
  C   C529      1.0  0.94122  0.31657  0.30491  1.0000
  H   H851      1.0  0.75168  0.01089  0.46692  1.0000
  C   C530      1.0  0.76962  0.07817  0.46053  1.0000
  H   H852      1.0  0.84651  0.14673  0.47346  1.0000
  S   S208      1.0  0.51768  0.04605  0.33943  1.0000
  C   C531      1.0  0.60913  0.04178  0.35953  1.0000
  H   H853      1.0  0.82017  0.13338  0.44255  1.0000
  H   H854      1.0  0.59392  0.03676  0.39789  1.0000
  C   C532      1.0  0.71747  0.05517  0.48037  1.0000
  C   C533      1.0  0.55649  0.03100  0.24366  1.0000
  S   S209      1.0  0.92552  0.19155  0.39208  1.0000
  C   C534      1.0  0.58739  0.05098  0.38848  1.0000
  Fe  Fe99      1.0  0.71318  0.01544  0.38237  1.0000
  H   H855      1.0  0.90268  0.25970  0.44327  1.0000
  H   H856      1.0  0.94888  0.28472  0.38730  1.0000
  S   S210      1.0  0.75555  0.01582  0.42169  1.0000
  H   H857      1.0  0.96537  0.31195  0.44120  1.0000
  H   H858      1.0  0.60712  0.03520  0.34563  1.0000
  S   S211      1.0  0.89866  0.25265  0.38185  1.0000
  H   H859      1.0  0.88104  0.15706  0.46347  1.0000
  H   H860      1.0  0.66286  0.01486  0.32751  1.0000
  H   H861      1.0  0.78982  0.08676  0.45290  1.0000
  H   H862      1.0  0.95462  0.30034  0.42057  1.0000
  C   C535      1.0  0.91308  0.28698  0.37899  1.0000
  H   H863      1.0  0.62461  0.06142  0.35605  1.0000
  H   H864      1.0  0.84189  0.15851  0.40942  1.0000
  C   C536      1.0  0.96746  0.24608  0.47000  1.0000
  H   H865      1.0  0.97116  0.24579  0.45473  1.0000
  C   C537      1.0  0.56393  0.01638  0.37390  1.0000
  C   C538      1.0  0.86630  0.15440  0.47685  1.0000
  C   C539      1.0  0.74245  0.99764  0.48136  1.0000
  H   H866      1.0  0.56873  0.05205  0.39668  1.0000
  H   H867      1.0  0.88332  0.28152  0.44181  1.0000
  H   H868      1.0  0.87957  0.11076  0.47461  1.0000
  H   H869      1.0  0.86859  0.17427  0.48028  1.0000
  H   H870      1.0  0.78877  0.13486  0.45325  1.0000
  H   H871      1.0  0.82448  0.17372  0.39442  1.0000
  C   C540      1.0  0.72446  0.05334  0.46104  1.0000
  C   C541      1.0  0.57512  0.06204  0.35794  1.0000
  H   H872      1.0  0.94995  0.27736  0.44274  1.0000
  C   C542      1.0  0.93780  0.29754  0.38317  1.0000
  H   H873      1.0  0.77126  0.11678  0.42572  1.0000
  S   S212      1.0  0.69313  0.01701  0.35682  1.0000
  H   H874      1.0  0.54458  0.01639  0.38167  1.0000
  C   C543      1.0  0.85621  0.11105  0.41686  1.0000
  C   C544      1.0  0.86184  0.12145  0.39696  1.0000
  C   C545      1.0  0.84679  0.10823  0.38494  1.0000
  C   C546      1.0  0.82601  0.08470  0.39276  1.0000
  C   C547      1.0  0.82079  0.07408  0.41261  1.0000
  C   C548      1.0  0.83597  0.08715  0.42460  1.0000
  H   H875      1.0  0.87759  0.13976  0.39085  1.0000
  H   H876      1.0  0.85104  0.11639  0.36955  1.0000
  H   H877      1.0  0.80507  0.05584  0.41875  1.0000
  H   H878      1.0  0.83172  0.07891  0.43997  1.0000
  H   H879      1.0  0.80333  0.11669  0.41542  1.0000
  H   H880      1.0  0.54395  0.02911  0.25741  1.0000
  H   H881      1.0  0.90694  0.28235  0.42104  1.0000
  S   S213      1.0  0.93598  0.17864  0.43639  1.0000
  H   H882      1.0  0.91175  0.14804  0.48346  1.0000
  Fe  Fe100     1.0  0.91532  0.22650  0.40041  1.0000
  H   H883      1.0  0.60245  0.07078  0.38607  1.0000
  H   H884      1.0  0.79219  0.18734  0.42926  1.0000
  N   N55       1.0  0.58390  0.04280  0.36995  1.0000
  S   S214      1.0  0.91509  0.22203  0.47085  1.0000
  Fe  Fe101     1.0  0.90201  0.16894  0.42148  1.0000
  Fe  Fe102     1.0  0.92421  0.21385  0.44124  1.0000
  S   S215      1.0  0.88869  0.20259  0.42835  1.0000
  Fe  Fe103     1.0  0.52924  0.01571  0.32525  1.0000
  H   H885      1.0  0.61652  0.02769  0.36826  1.0000
  C   C549      1.0  0.64988  0.00304  0.34092  1.0000
  C   C550      1.0  0.58013  0.02532  0.24312  1.0000
  H   H886      1.0  0.81716  0.16384  0.44798  1.0000
  H   H887      1.0  0.76483  0.15747  0.43385  1.0000
  H   H888      1.0  0.77983  0.17486  0.40936  1.0000
  H   H889      1.0  0.56069  0.00958  0.36027  1.0000
  S   S216      1.0  0.95008  0.24083  0.41397  1.0000
  C   C551      1.0  0.82721  0.16919  0.40956  1.0000
  S   S217      1.0  0.52026  0.00421  0.29759  1.0000
  H   H890      1.0  0.88028  0.29593  0.36946  1.0000
  C   C552      1.0  0.65969  0.00064  0.35795  1.0000
  C   C553      1.0  0.94199  0.23482  0.48124  1.0000
  C   C554      1.0  0.79029  0.12911  0.41603  1.0000
  S   S218      1.0  0.75000  0.00403  0.37848  1.0000
  C   C555      1.0  0.89941  0.30401  0.37276  1.0000
  S   S219      1.0  0.57117  0.01659  0.31869  1.0000
  H   H891      1.0  0.75612  0.06361  0.43618  1.0000
  H   H892      1.0  0.57264  0.05664  0.34372  1.0000
  H   H893      1.0  0.78661  0.13367  0.40117  1.0000
  H   H894      1.0  0.83612  0.18827  0.41378  1.0000
  N   N56       1.0  0.80220  0.15335  0.42300  1.0000
  C   C556      1.0  0.78396  0.16899  0.42390  1.0000
  C   C557      1.0  0.80728  0.14611  0.44254  1.0000
  C   C558      1.0  0.90322  0.28008  0.43708  1.0000
  H   H895      1.0  0.91763  0.27621  0.47151  1.0000
  C   C559      1.0  0.76265  0.08002  0.47985  1.0000
  H   H896      1.0  0.92840  0.29959  0.31656  1.0000
  S   S220      1.0  0.58976  0.01380  0.26425  1.0000
  N   N57       1.0  0.92354  0.30015  0.44323  1.0000
  C   C560      1.0  0.91784  0.29620  0.46460  1.0000
  H   H897      1.0  0.89836  0.29807  0.47017  1.0000
  H   H898      1.0  0.93293  0.31082  0.46978  1.0000
  C   C561      1.0  0.94953  0.29739  0.43662  1.0000
  H   H899      1.0  0.48597  0.06416  0.36630  1.0000
  H   H900      1.0  0.95963  0.31216  0.29998  1.0000
  Fe  Fe104     1.0  0.56073  0.00071  0.29262  1.0000
  H   H901      1.0  0.94812  0.32283  0.34031  1.0000
  H   H902      1.0  0.48422  0.00327  0.25698  1.0000
  H   H903      1.0  0.61605  0.99227  0.32782  1.0000
  C   C562      1.0  0.48354  0.03996  0.34486  1.0000
  Fe  Fe105     1.0  0.96081  0.20130  0.56826  1.0000
  C   C563      1.0  0.59967  0.07626  0.70848  1.0000
  S   S221      1.0  0.91772  0.17735  0.57726  1.0000
  C   C564      1.0  0.55560  0.07706  0.70833  1.0000
  H   H904      1.0  0.86440  0.14628  0.57957  1.0000
  H   H905      1.0  0.95457  0.24569  0.52506  1.0000
  H   H906      1.0  0.51032  0.07005  0.63819  1.0000
  Fe  Fe106     1.0  0.82400  0.06177  0.54383  1.0000
  S   S222      1.0  0.79805  0.08727  0.54522  1.0000
  S   S223      1.0  0.86785  0.07722  0.54237  1.0000
  Fe  Fe107     1.0  0.78078  0.01527  0.53638  1.0000
  S   S224      1.0  0.75177  0.03758  0.53683  1.0000
  S   S225      1.0  0.52804  0.16209  0.72781  1.0000
  Fe  Fe108     1.0  0.78554  0.07206  0.51943  1.0000
  H   H907      1.0  0.61329  0.12590  0.68851  1.0000
  Fe  Fe109     1.0  0.76681  0.05032  0.56265  1.0000
  S   S226      1.0  0.74203  0.04967  0.59132  1.0000
  S   S227      1.0  0.81335  0.04886  0.51688  1.0000
  S   S228      1.0  0.79384  0.02558  0.56340  1.0000
  Fe  Fe110     1.0  0.57673  0.08142  0.64103  1.0000
  S   S229      1.0  0.56922  0.06170  0.61616  1.0000
  S   S230      1.0  0.58524  0.12541  0.63556  1.0000
  Fe  Fe111     1.0  0.56861  0.02999  0.66819  1.0000
  H   H908      1.0  0.94438  0.21524  0.60407  1.0000
  H   H909      1.0  0.57258  0.09973  0.58279  1.0000
  Fe  Fe112     1.0  0.59448  0.03817  0.62596  1.0000
  S   S231      1.0  0.61967  0.02978  0.60101  1.0000
  Fe  Fe113     1.0  0.53616  0.03138  0.63755  1.0000
  S   S232      1.0  0.60495  0.06063  0.64937  1.0000
  S   S233      1.0  0.54152  0.05286  0.66168  1.0000
  C   C565      1.0  0.56207  0.13795  0.64730  1.0000
  C   C566      1.0  0.54393  0.12342  0.66428  1.0000
  H   H910      1.0  0.54342  0.10368  0.67024  1.0000
  H   H911      1.0  0.51827  0.07951  0.57365  1.0000
  C   C567      1.0  0.49064  0.06466  0.63559  1.0000
  S   S234      1.0  0.78645  0.09762  0.49124  1.0000
  H   H912      1.0  0.88629  0.20080  0.60428  1.0000
  H   H913      1.0  0.49993  0.08470  0.59499  1.0000
  H   H914      1.0  0.57660  0.17491  0.62663  1.0000
  C   C568      1.0  0.93745  0.23478  0.50105  1.0000
  H   H915      1.0  0.88200  0.19737  0.63987  1.0000
  H   H916      1.0  0.88424  0.23379  0.60205  1.0000
  H   H917      1.0  0.54576  0.19456  0.64310  1.0000
  S   S235      1.0  0.56034  0.00573  0.64552  1.0000
  C   C569      1.0  0.70849  0.04653  0.59330  1.0000
  C   C570      1.0  0.69384  0.04742  0.61102  1.0000
  C   C571      1.0  0.66663  0.04298  0.61350  1.0000
  C   C572      1.0  0.65393  0.03723  0.59830  1.0000
  C   C573      1.0  0.66860  0.03641  0.58058  1.0000
  C   C574      1.0  0.69583  0.04131  0.57800  1.0000
  H   H918      1.0  0.70352  0.05137  0.62294  1.0000
  H   H919      1.0  0.65544  0.04354  0.62722  1.0000
  H   H920      1.0  0.73020  0.00738  0.48953  1.0000
  H   H921      1.0  0.70688  0.04081  0.56424  1.0000
  H   H922      1.0  0.58067  0.12736  0.68893  1.0000
  C   C575      1.0  0.90424  0.15011  0.56684  1.0000
  C   C576      1.0  0.92018  0.13965  0.55530  1.0000
  C   C577      1.0  0.90878  0.11723  0.54795  1.0000
  C   C578      1.0  0.88141  0.10536  0.55185  1.0000
  C   C579      1.0  0.86546  0.11616  0.56306  1.0000
  C   C580      1.0  0.87686  0.13835  0.57062  1.0000
  H   H923      1.0  0.94128  0.14849  0.55237  1.0000
  H   H924      1.0  0.92123  0.10894  0.53932  1.0000
  H   H925      1.0  0.84437  0.10711  0.56625  1.0000
  C   C581      1.0  0.52916  0.13183  0.57316  1.0000
  H   H926      1.0  0.56388  0.10829  0.56003  1.0000
  H   H927      1.0  0.59199  0.05978  0.72143  1.0000
  H   H928      1.0  0.48554  0.10197  0.63919  1.0000
  H   H929      1.0  0.57055  0.11918  0.72454  1.0000
  C   C582      1.0  0.73660  0.06825  0.48984  1.0000
  H   H930      1.0  0.75848  0.99661  0.48918  1.0000
  H   H931      1.0  0.94229  0.21304  0.62952  1.0000
  C   C583      1.0  0.89672  0.14627  0.49649  1.0000
  H   H932      1.0  0.55153  0.31898  0.71845  1.0000
  Fe  Fe114     1.0  0.49692  0.16068  0.71043  1.0000
  C   C584      1.0  0.95825  0.24599  0.50970  1.0000
  S   S236      1.0  0.56296  0.01495  0.70019  1.0000
  C   C585      1.0  0.89795  0.22201  0.60249  1.0000
  C   C586      1.0  0.51995  0.08591  0.58764  1.0000
  H   H933      1.0  0.91140  0.22765  0.58803  1.0000
  H   H934      1.0  0.54271  0.15239  0.57086  1.0000
  H   H935      1.0  0.90474  0.22145  0.64912  1.0000
  H   H936      1.0  0.85348  0.15336  0.51504  1.0000
  H   H937      1.0  0.55611  0.13958  0.60225  1.0000
  H   H938      1.0  0.65885  0.03206  0.56876  1.0000
  N   N58       1.0  0.58279  0.09334  0.70778  1.0000
  H   H939      1.0  0.57942  0.13373  0.57208  1.0000
  H   H940      1.0  0.94280  0.26091  0.60082  1.0000
  H   H941      1.0  0.59174  0.10467  0.67666  1.0000
  H   H942      1.0  0.83013  0.12666  0.50845  1.0000
  H   H943      1.0  0.91931  0.18859  0.62045  1.0000
  H   H944      1.0  0.54235  0.08931  0.70741  1.0000
  H   H945      1.0  0.88056  0.23051  0.63755  1.0000
  H   H946      1.0  0.62014  0.08757  0.70890  1.0000
  H   H947      1.0  0.60051  0.06702  0.69555  1.0000
  C   C587      1.0  0.59257  0.11371  0.68969  1.0000
  C   C588      1.0  0.52711  0.13497  0.67407  1.0000
  C   C589      1.0  0.54512  0.17468  0.64902  1.0000
  C   C590      1.0  0.52777  0.16068  0.66642  1.0000
  H   H948      1.0  0.55466  0.06638  0.69623  1.0000
  C   C591      1.0  0.54340  0.29949  0.71451  1.0000
  S   S237      1.0  0.50732  0.17587  0.67835  1.0000
  H   H949      1.0  0.51365  0.12400  0.68747  1.0000
  H   H950      1.0  0.53801  0.30351  0.70017  1.0000
  S   S238      1.0  0.49603  0.01671  0.63113  1.0000
  H   H951      1.0  0.91586  0.26750  0.61470  1.0000
  S   S239      1.0  0.96749  0.24499  0.56451  1.0000
  C   C592      1.0  0.92842  0.25449  0.61488  1.0000
  C   C593      1.0  0.56475  0.11372  0.57442  1.0000
  C   C594      1.0  0.58321  0.10623  0.72465  1.0000
  H   H952      1.0  0.52208  0.12120  0.61149  1.0000
  H   H953      1.0  0.54740  0.06178  0.72198  1.0000
  H   H954      1.0  0.91781  0.22595  0.50980  1.0000
  C   C595      1.0  0.56253  0.16353  0.63969  1.0000
  H   H955      1.0  0.54659  0.10538  0.61331  1.0000
  C   C596      1.0  0.54092  0.12008  0.60373  1.0000
  C   C597      1.0  0.89415  0.21856  0.63702  1.0000
  H   H956      1.0  0.93993  0.25840  0.62638  1.0000
  H   H957      1.0  0.50944  0.13153  0.58054  1.0000
  N   N59       1.0  0.53870  0.11286  0.58474  1.0000
  H   H958      1.0  0.52608  0.07106  0.59678  1.0000
  H   H959      1.0  0.90060  0.16623  0.50011  1.0000
  N   N60       1.0  0.91271  0.22629  0.61814  1.0000
  C   C598      1.0  0.93039  0.21003  0.61816  1.0000
  H   H960      1.0  0.72406  0.00334  0.57466  1.0000
  C   C599      1.0  0.85061  0.13397  0.51066  1.0000
  H   H961      1.0  0.89988  0.13293  0.50874  1.0000
  H   H962      1.0  0.55943  0.29055  0.71267  1.0000
  H   H963      1.0  0.74018  0.99393  0.60422  1.0000
  H   H964      1.0  0.52737  0.12709  0.55867  1.0000
  H   H965      1.0  0.86832  0.09547  0.49993  1.0000
  H   H966      1.0  0.73108  0.06974  0.50475  1.0000
  H   H967      1.0  0.60339  0.11859  0.72487  1.0000
  H   H968      1.0  0.85248  0.11998  0.52307  1.0000
  C   C600      1.0  0.53126  0.99217  0.70865  1.0000
  H   H969      1.0  0.69439  0.99300  0.60714  1.0000
  N   N61       1.0  0.52048  0.28209  0.72937  1.0000
  C   C601      1.0  0.86565  0.10979  0.48807  1.0000
  N   N62       1.0  0.86985  0.13611  0.49302  1.0000
  H   H970      1.0  0.49343  0.29808  0.71667  1.0000
  H   H971      1.0  0.52632  0.24636  0.72273  1.0000
  C   C602      1.0  0.51089  0.25619  0.72390  1.0000
  H   H972      1.0  0.69727  0.04634  0.48807  1.0000
  C   C603      1.0  0.49937  0.29431  0.73083  1.0000
  H   H973      1.0  0.50473  0.25820  0.70972  1.0000
  H   H974      1.0  0.84544  0.10149  0.48552  1.0000
  H   H975      1.0  0.50584  0.31373  0.73521  1.0000
  H   H976      1.0  0.49380  0.24239  0.73494  1.0000
  C   C604      1.0  0.53990  0.19640  0.82132  1.0000
  H   H977      1.0  0.48560  0.32359  0.88463  1.0000
  C   C605      1.0  0.58046  0.23724  0.96169  1.0000
  C   C606      1.0  0.52789  0.20568  0.78440  1.0000
  C   C607      1.0  0.54414  0.24237  0.94748  1.0000
  C   C608      1.0  0.53534  0.25238  0.96337  1.0000
  C   C609      1.0  0.57181  0.24742  0.97744  1.0000
  H   H978      1.0  0.68008  0.29353  0.85576  1.0000
  H   H979      1.0  0.55552  0.23868  0.81708  1.0000
  Fe  Fe115     1.0  0.56764  0.23422  0.89972  1.0000
  C   C610      1.0  0.54901  0.25462  0.97851  1.0000
  S   S240      1.0  0.50158  0.27783  0.88109  1.0000
  H   H980      1.0  0.57822  0.30135  0.94998  1.0000
  H   H981      1.0  0.54439  0.24696  0.78475  1.0000
  H   H982      1.0  0.50688  0.21525  0.84872  1.0000
  Fe  Fe116     1.0  0.53521  0.26148  0.87877  1.0000
  S   S241      1.0  0.55885  0.26481  0.84936  1.0000
  C   C611      1.0  0.56651  0.23442  0.94681  1.0000
  Fe  Fe117     1.0  0.59382  0.27560  0.86321  1.0000
  S   S242      1.0  0.63093  0.30986  0.85189  1.0000
  S   S243      1.0  0.57035  0.27667  0.89150  1.0000
  C   C612      1.0  0.53974  0.22692  0.79264  1.0000
  H   H983      1.0  0.51359  0.16333  0.78828  1.0000
  C   C613      1.0  0.50470  0.29809  0.89818  1.0000
  C   C614      1.0  0.64273  0.30174  0.90652  1.0000
  C   C615      1.0  0.63571  0.29618  0.88920  1.0000
  H   H984      1.0  0.53540  0.29750  0.75297  1.0000
  C   C616      1.0  0.64329  0.31616  0.87257  1.0000
  C   C617      1.0  0.49462  0.06134  0.76416  1.0000
  H   H985      1.0  0.63641  0.28621  0.91942  1.0000
  H   H986      1.0  0.62415  0.27635  0.88888  1.0000
  H   H987      1.0  0.72788  0.31397  0.88720  1.0000
  C   C618      1.0  0.48900  0.03560  0.76087  1.0000
  H   H988      1.0  0.51786  0.25824  0.96395  1.0000
  C   C619      1.0  0.72174  0.28002  0.86319  1.0000
  C   C620      1.0  0.51836  0.29390  0.91281  1.0000
  Fe  Fe118     1.0  0.50176  0.12157  0.74298  1.0000
  H   H989      1.0  0.52361  0.27607  0.91535  1.0000
  C   C621      1.0  0.52603  0.31317  0.92378  1.0000
  H   H990      1.0  0.54438  0.26937  0.74764  1.0000
  Fe  Fe119     1.0  0.55646  0.22296  0.86082  1.0000
  H   H991      1.0  0.48635  0.08589  0.78380  1.0000
  N   N63       1.0  0.72004  0.30707  0.85941  1.0000
  S   S244      1.0  0.59362  0.23402  0.87217  1.0000
  H   H992      1.0  0.53760  0.31022  0.93443  1.0000
  C   C622      1.0  0.71317  0.31477  0.87805  1.0000
  H   H993      1.0  0.52386  0.15515  0.82081  1.0000
  H   H994      1.0  0.51165  0.26491  0.75978  1.0000
  S   S245      1.0  0.54584  0.18976  0.84482  1.0000
  C   C623      1.0  0.52832  0.17523  0.81298  1.0000
  H   H995      1.0  0.53326  0.24014  0.93601  1.0000
  C   C624      1.0  0.52240  0.17984  0.79456  1.0000
  S   S246      1.0  0.51956  0.21195  0.76167  1.0000
  H   H996      1.0  0.49908  0.03186  0.74785  1.0000
  C   C625      1.0  0.54588  0.22228  0.81102  1.0000
  H   H997      1.0  0.75138  0.32072  0.83410  1.0000
  H   H998      1.0  0.73706  0.27878  0.87169  1.0000
  C   C626      1.0  0.59420  0.31252  0.95648  1.0000
  H   H999      1.0  0.70428  0.30253  0.83374  1.0000
  S   S247      1.0  0.53026  0.21886  0.88947  1.0000
  S   S248      1.0  0.57653  0.21945  0.92821  1.0000
  H   H1000     1.0  0.59804  0.23154  0.96102  1.0000
  C   C627      1.0  0.49651  0.32043  0.89575  1.0000
  H   H1001     1.0  0.61295  0.31185  0.94824  1.0000
  C   C628      1.0  0.48828  0.21821  0.85518  1.0000
  H   H1002     1.0  0.50328  0.27038  0.84125  1.0000
  H   H1003     1.0  0.49043  0.26875  0.81959  1.0000
  C   C629      1.0  0.52833  0.27839  0.74828  1.0000
  H   H1004     1.0  0.69370  0.30148  0.88659  1.0000
  C   C630      1.0  0.69957  0.30776  0.84805  1.0000
  S   S249      1.0  0.51731  0.08754  0.74686  1.0000
  H   H1005     1.0  0.59160  0.30179  0.97158  1.0000
  Fe  Fe120     1.0  0.50307  0.17611  0.74916  1.0000
  H   H1006     1.0  0.49245  0.22966  0.86669  1.0000
  H   H1007     1.0  0.52666  0.00111  0.73717  1.0000
  H   H1008     1.0  0.57550  0.09135  0.73853  1.0000
  H   H1009     1.0  0.48893  0.21105  0.81893  1.0000
  H   H1010     1.0  0.70274  0.26553  0.87157  1.0000
  C   C631      1.0  0.49775  0.25760  0.83067  1.0000
  H   H1011     1.0  0.72677  0.27350  0.84944  1.0000
  H   H1012     1.0  0.51600  0.25483  0.82329  1.0000
  H   H1013     1.0  0.53988  0.18728  0.97989  1.0000
  H   H1014     1.0  0.58261  0.32401  0.85207  1.0000
  C   C632      1.0  0.61707  0.44407  0.99614  1.0000
  S   S250      1.0  0.75736  0.39818  0.07816  1.0000
  H   H1015     1.0  0.49604  0.56588  0.03254  1.0000
  Fe  Fe121     1.0  0.51183  0.45818  0.20828  1.0000
  H   H1016     1.0  0.64076  0.37288  0.03822  1.0000
  S   S251      1.0  0.52470  0.43738  0.18532  1.0000
  H   H1017     1.0  0.59259  0.36102  0.05036  1.0000
  Fe  Fe122     1.0  0.71573  0.37764  0.09349  1.0000
  H   H1018     1.0  0.64643  0.40128  0.04930  1.0000
  H   H1019     1.0  0.56627  0.53414  0.13381  1.0000
  C   C633      1.0  0.50127  0.47339  0.14063  1.0000
  C   C634      1.0  0.61888  0.33660  0.07136  1.0000
  S   S252      1.0  0.79321  0.42715  0.11636  1.0000
  Fe  Fe123     1.0  0.87743  0.49611  0.20671  1.0000
  S   S253      1.0  0.85299  0.52317  0.20503  1.0000
  S   S254      1.0  0.91767  0.50429  0.18897  1.0000
  Fe  Fe124     1.0  0.82068  0.48634  0.20463  1.0000
  S   S255      1.0  0.79348  0.48993  0.18414  1.0000
  S   S256      1.0  0.84599  0.46003  0.20420  1.0000
  H   H1020     1.0  0.63658  0.33306  0.07565  1.0000
  C   C635      1.0  0.59713  0.36877  0.06346  1.0000
  H   H1021     1.0  0.58005  0.35824  0.07554  1.0000
  C   C636      1.0  0.94916  0.57810  0.19794  1.0000
  H   H1022     1.0  0.59860  0.39006  0.06073  1.0000
  Fe  Fe125     1.0  0.52744  0.46387  0.07692  1.0000
  S   S257      1.0  0.53937  0.42725  0.07912  1.0000
  S   S258      1.0  0.51258  0.48126  0.10124  1.0000
  Fe  Fe126     1.0  0.53117  0.47095  0.03332  1.0000
  S   S259      1.0  0.54295  0.43484  0.03155  1.0000
  N   N64       1.0  0.74939  0.36880  0.99609  1.0000
  C   C637      1.0  0.69344  0.34243  0.06070  1.0000
  Fe  Fe127     1.0  0.56897  0.44913  0.05191  1.0000
  S   S260      1.0  0.61013  0.44803  0.04461  1.0000
  H   H1023     1.0  0.76197  0.33774  0.00984  1.0000
  S   S261      1.0  0.55973  0.48703  0.05151  1.0000
  S   S262      1.0  0.74702  0.45400  0.08456  1.0000
  Fe  Fe128     1.0  0.70596  0.42865  0.09929  1.0000
  S   S263      1.0  0.67307  0.44281  0.11148  1.0000
  C   C638      1.0  0.64375  0.37974  0.05190  1.0000
  S   S264      1.0  0.56683  0.54573  0.21526  1.0000
  H   H1024     1.0  0.72996  0.38897  0.01406  1.0000
  H   H1025     1.0  0.76376  0.39458  0.01511  1.0000
  S   S265      1.0  0.53889  0.47071  0.22831  1.0000
  C   C639      1.0  0.62758  0.44957  0.06336  1.0000
  C   C640      1.0  0.61506  0.44631  0.08264  1.0000
  C   C641      1.0  0.62928  0.44535  0.09749  1.0000
  C   C642      1.0  0.65595  0.44763  0.09300  1.0000
  C   C643      1.0  0.66857  0.45197  0.07366  1.0000
  C   C644      1.0  0.65440  0.45283  0.05890  1.0000
  H   H1026     1.0  0.59437  0.44394  0.08616  1.0000
  H   H1027     1.0  0.61947  0.44204  0.11244  1.0000
  H   H1028     1.0  0.68935  0.45469  0.07003  1.0000
  H   H1029     1.0  0.66428  0.45588  0.04399  1.0000
  H   H1030     1.0  0.62438  0.53261  0.15503  1.0000
  C   C645      1.0  0.79437  0.47292  0.16509  1.0000
  C   C646      1.0  0.80319  0.45099  0.16641  1.0000
  C   C647      1.0  0.80317  0.43731  0.15119  1.0000
  C   C648      1.0  0.79375  0.44514  0.13483  1.0000
  C   C649      1.0  0.78497  0.46711  0.13347  1.0000
  C   C650      1.0  0.78551  0.48112  0.14853  1.0000
  H   H1031     1.0  0.80948  0.44419  0.17931  1.0000
  H   H1032     1.0  0.80986  0.42022  0.15229  1.0000
  H   H1033     1.0  0.77892  0.49827  0.14740  1.0000
  H   H1034     1.0  0.88527  0.56009  0.23445  1.0000
  H   H1035     1.0  0.71619  0.33341  0.00693  1.0000
  C   C651      1.0  0.93097  0.55413  0.19690  1.0000
  C   C652      1.0  0.93977  0.53487  0.18962  1.0000
  H   H1036     1.0  0.51428  0.51839  0.04586  1.0000
  H   H1037     1.0  0.97121  0.62862  0.23378  1.0000
  C   C653      1.0  0.50046  0.35299  0.07081  1.0000
  H   H1038     1.0  0.91023  0.55065  0.20173  1.0000
  H   H1039     1.0  0.52045  0.64466  0.21573  1.0000
  H   H1040     1.0  0.68797  0.34981  0.03133  1.0000
  H   H1041     1.0  0.66788  0.42755  0.01705  1.0000
  C   C654      1.0  0.96668  0.53958  0.18338  1.0000
  S   S266      1.0  0.71834  0.39912  0.11792  1.0000
  C   C655      1.0  0.72411  0.35044  0.99436  1.0000
  H   H1042     1.0  0.61755  0.43042  0.98597  1.0000
  C   C656      1.0  0.51566  0.46829  0.12450  1.0000
  H   H1043     1.0  0.48832  0.37455  0.12640  1.0000
  C   C657      1.0  0.50161  0.33328  0.06033  1.0000
  C   C658      1.0  0.52037  0.44860  0.16207  1.0000
  C   C659      1.0  0.53446  0.44312  0.14594  1.0000
  C   C660      1.0  0.53215  0.45300  0.12716  1.0000
  C   C661      1.0  0.74203  0.44466  0.99563  1.0000
  S   S267      1.0  0.49797  0.45095  0.05870  1.0000
  H   H1044     1.0  0.54754  0.43163  0.14798  1.0000
  H   H1045     1.0  0.54356  0.44923  0.11477  1.0000
  C   C662      1.0  0.69716  0.43506  0.99113  1.0000
  C   C663      1.0  0.58129  0.54577  0.16652  1.0000
  C   C664      1.0  0.97613  0.58245  0.19223  1.0000
  H   H1046     1.0  0.76275  0.44962  0.98956  1.0000
  N   N65       1.0  0.58255  0.52266  0.15812  1.0000
  C   C665      1.0  0.52639  0.33761  0.09182  1.0000
  Fe  Fe129     1.0  0.51235  0.41617  0.05884  1.0000
  C   C666      1.0  0.57708  0.49943  0.17389  1.0000
  H   H1047     1.0  0.59124  0.50306  0.18369  1.0000
  H   H1048     1.0  0.57785  0.48154  0.16815  1.0000
  H   H1049     1.0  0.55716  0.49437  0.18301  1.0000
  H   H1050     1.0  0.59572  0.55043  0.17605  1.0000
  N   N66       1.0  0.70912  0.42848  0.17061  1.0000
  C   C667      1.0  0.72094  0.45718  0.16921  1.0000
  C   C668      1.0  0.68946  0.42400  0.15822  1.0000
  C   C669      1.0  0.69636  0.41561  0.19095  1.0000
  C   C670      1.0  0.72982  0.41717  0.16400  1.0000
  H   H1051     1.0  0.73040  0.46750  0.15397  1.0000
  H   H1052     1.0  0.73628  0.46143  0.17809  1.0000
  H   H1053     1.0  0.70596  0.46634  0.17429  1.0000
  H   H1054     1.0  0.69854  0.43386  0.14283  1.0000
  H   H1055     1.0  0.68046  0.40261  0.15849  1.0000
  H   H1056     1.0  0.67336  0.43207  0.16275  1.0000
  H   H1057     1.0  0.68726  0.39392  0.19251  1.0000
  H   H1058     1.0  0.68063  0.42367  0.19643  1.0000
  H   H1059     1.0  0.71081  0.41872  0.20059  1.0000
  H   H1060     1.0  0.72178  0.39544  0.16520  1.0000
  H   H1061     1.0  0.74556  0.42097  0.17254  1.0000
  H   H1062     1.0  0.73929  0.42587  0.14854  1.0000
  N   N67       1.0  0.88055  0.49942  0.14209  1.0000
  C   C671      1.0  0.87864  0.47279  0.15229  1.0000
  C   C672      1.0  0.90846  0.51483  0.13409  1.0000
  C   C673      1.0  0.86916  0.51305  0.15583  1.0000
  C   C674      1.0  0.86597  0.49703  0.12621  1.0000
  H   H1063     1.0  0.88708  0.46195  0.14236  1.0000
  H   H1064     1.0  0.85789  0.46062  0.15856  1.0000
  H   H1065     1.0  0.88935  0.47385  0.16441  1.0000
  H   H1066     1.0  0.91071  0.53516  0.12648  1.0000
  H   H1067     1.0  0.91994  0.51680  0.14580  1.0000
  H   H1068     1.0  0.91773  0.50522  0.12360  1.0000
  H   H1069     1.0  0.86952  0.53290  0.14856  1.0000
  H   H1070     1.0  0.88021  0.51591  0.16765  1.0000
  H   H1071     1.0  0.84838  0.50159  0.16271  1.0000
  H   H1072     1.0  0.87359  0.48630  0.11575  1.0000
  H   H1073     1.0  0.86727  0.51674  0.11800  1.0000
  H   H1074     1.0  0.84476  0.48594  0.13186  1.0000
  C   C675      1.0  0.51300  0.35521  0.08648  1.0000
  H   H1075     1.0  0.48837  0.48509  0.13864  1.0000
  C   C676      1.0  0.59127  0.61506  0.23222  1.0000
  C   C677      1.0  0.94784  0.48637  0.22889  1.0000
  H   H1076     1.0  0.70708  0.36192  0.05940  1.0000
  H   H1077     1.0  0.60960  0.36462  0.09837  1.0000
  H   H1078     1.0  0.49976  0.54096  0.01919  1.0000
  C   C678      1.0  0.62631  0.37487  0.08593  1.0000
  H   H1079     1.0  0.49202  0.33164  0.04813  1.0000
  N   N68       1.0  0.62151  0.36499  0.06816  1.0000
  C   C679      1.0  0.50348  0.46342  0.15940  1.0000
  C   C680      1.0  0.68301  0.33544  0.04473  1.0000
  H   H1080     1.0  0.64422  0.37171  0.09018  1.0000
  H   H1081     1.0  0.60871  0.63223  0.22831  1.0000
  S   S268      1.0  0.52639  0.50066  0.00975  1.0000
  C   C681      1.0  0.74553  0.37939  0.01386  1.0000
  H   H1082     1.0  0.54812  0.65102  0.22715  1.0000
  Fe  Fe130     1.0  0.53138  0.50942  0.22255  1.0000
  H   H1083     1.0  0.70892  0.36049  0.99376  1.0000
  C   C682      1.0  0.76879  0.35458  0.99715  1.0000
  C   C683      1.0  0.52419  0.49471  0.98640  1.0000
  S   S269      1.0  0.69609  0.33391  0.09903  1.0000
  H   H1084     1.0  0.69991  0.43232  0.03878  1.0000
  H   H1085     1.0  0.94235  0.59302  0.20353  1.0000
  H   H1086     1.0  0.56152  0.54212  0.17561  1.0000
  H   H1087     1.0  0.77795  0.47338  0.12074  1.0000
  C   C684      1.0  0.50041  0.52399  0.05625  1.0000
  H   H1088     1.0  0.63636  0.48910  0.00809  1.0000
  H   H1089     1.0  0.95801  0.53900  0.22700  1.0000
  H   H1090     1.0  0.49505  0.58302  0.20044  1.0000
  C   C685      1.0  0.68854  0.43216  0.01110  1.0000
  H   H1091     1.0  0.66244  0.37720  0.05486  1.0000
  C   C686      1.0  0.56720  0.57183  0.22742  1.0000
  C   C687      1.0  0.60901  0.52831  0.14620  1.0000
  H   H1092     1.0  0.54261  0.51279  0.15450  1.0000
  H   H1093     1.0  0.61057  0.51120  0.13966  1.0000
  H   H1094     1.0  0.58537  0.56373  0.15511  1.0000
  S   S270      1.0  0.50746  0.49814  0.20042  1.0000
  C   C688      1.0  0.56279  0.51710  0.14590  1.0000
  H   H1095     1.0  0.56306  0.49969  0.13939  1.0000
  H   H1096     1.0  0.62914  0.39640  0.08389  1.0000
  H   H1097     1.0  0.61381  0.54571  0.13414  1.0000
  Fe  Fe131     1.0  0.75907  0.42227  0.10125  1.0000
  Fe  Fe132     1.0  0.74164  0.42776  0.06278  1.0000
  S   S271      1.0  0.75652  0.44194  0.03056  1.0000
  H   H1098     1.0  0.60158  0.48158  0.01066  1.0000
  S   S272      1.0  0.69970  0.40496  0.07626  1.0000
  C   C689      1.0  0.73341  0.44078  0.01568  1.0000
  C   C690      1.0  0.70663  0.43476  0.02340  1.0000
  H   H1099     1.0  0.59816  0.43575  0.00690  1.0000
  H   H1100     1.0  0.60588  0.59520  0.21130  1.0000
  H   H1101     1.0  0.51142  0.54315  0.05948  1.0000
  H   H1102     1.0  0.61627  0.32858  0.05806  1.0000
  H   H1103     1.0  0.73963  0.36357  0.02714  1.0000
  H   H1104     1.0  0.49449  0.42002  0.10907  1.0000
  H   H1105     1.0  0.51228  0.37044  0.09454  1.0000
  C   C691      1.0  0.58963  0.59411  0.22257  1.0000
  H   H1106     1.0  0.97356  0.52481  0.17761  1.0000
  H   H1107     1.0  0.57942  0.46301  0.98575  1.0000
  H   H1108     1.0  0.96036  0.49842  0.21480  1.0000
  H   H1109     1.0  0.95305  0.46789  0.23171  1.0000
  H   H1110     1.0  0.52788  0.45568  0.99123  1.0000
  H   H1111     1.0  0.49466  0.50887  0.06994  1.0000
  H   H1112     1.0  0.53596  0.33933  0.10402  1.0000
  H   H1113     1.0  0.49208  0.46719  0.17178  1.0000
  H   H1114     1.0  0.48291  0.40821  0.14489  1.0000
  H   H1115     1.0  0.63305  0.44392  0.00422  1.0000
  H   H1116     1.0  0.62324  0.50916  0.99253  1.0000
  H   H1117     1.0  0.78799  0.36791  0.99861  1.0000
  S   S273      1.0  0.48402  0.37532  0.06413  1.0000
  H   H1118     1.0  0.92712  0.48082  0.22700  1.0000
  C   C692      1.0  0.48595  0.54591  0.03009  1.0000
  C   C693      1.0  0.62045  0.48856  0.99982  1.0000
  N   N69       1.0  0.62053  0.47106  0.98576  1.0000
  H   H1119     1.0  0.48255  0.53463  0.20509  1.0000
  H   H1120     1.0  0.60180  0.32475  0.08315  1.0000
  Fe  Fe133     1.0  0.51146  0.63420  0.32070  1.0000
  H   H1121     1.0  0.84680  0.43593  0.31093  1.0000
  C   C694      1.0  0.84883  0.48570  0.37040  1.0000
  H   H1122     1.0  0.51797  0.63549  0.25917  1.0000
  H   H1123     1.0  0.60028  0.52745  0.28511  1.0000
  S   S274      1.0  0.52168  0.60946  0.34470  1.0000
  Fe  Fe134     1.0  0.55465  0.63049  0.29035  1.0000
  S   S275      1.0  0.56865  0.60575  0.31156  1.0000
  Fe  Fe135     1.0  0.52604  0.58394  0.32329  1.0000
  S   S276      1.0  0.51085  0.53966  0.32796  1.0000
  S   S277      1.0  0.51240  0.60652  0.30043  1.0000
  H   H1124     1.0  0.82307  0.64257  0.38759  1.0000
  H   H1125     1.0  0.96804  0.38284  0.30087  1.0000
  C   C695      1.0  0.87786  0.42157  0.25298  1.0000
  S   S278      1.0  0.59403  0.64331  0.34973  1.0000
  H   H1126     1.0  0.55978  0.54926  0.30193  1.0000
  Fe  Fe136     1.0  0.90680  0.59796  0.33999  1.0000
  S   S279      1.0  0.93805  0.59553  0.31678  1.0000
  S   S280      1.0  0.87484  0.56519  0.36096  1.0000
  H   H1127     1.0  0.49286  0.65017  0.26521  1.0000
  C   C696      1.0  0.90061  0.41908  0.25893  1.0000
  H   H1128     1.0  0.87090  0.65004  0.40670  1.0000
  Fe  Fe137     1.0  0.93053  0.62924  0.29893  1.0000
  S   S281      1.0  0.93093  0.62717  0.26772  1.0000
  C   C697      1.0  0.56074  0.51428  0.26617  1.0000
  H   H1129     1.0  0.88044  0.60305  0.39076  1.0000
  S   S282      1.0  0.89654  0.62884  0.32108  1.0000
  S   S283      1.0  0.93426  0.62674  0.35290  1.0000
  C   C698      1.0  0.87239  0.53252  0.35912  1.0000
  C   C699      1.0  0.89141  0.52650  0.34670  1.0000
  H   H1130     1.0  0.58030  0.51549  0.30911  1.0000
  H   H1131     1.0  0.90778  0.54219  0.33745  1.0000
  H   H1132     1.0  0.58191  0.49287  0.29321  1.0000
  C   C700      1.0  0.58136  0.51319  0.29378  1.0000
  S   S284      1.0  0.92856  0.40788  0.28595  1.0000
  S   S285      1.0  0.83555  0.53140  0.26121  1.0000
  C   C701      1.0  0.94468  0.52548  0.24031  1.0000
  C   C702      1.0  0.50431  0.64476  0.25309  1.0000
  H   H1133     1.0  0.55964  0.49363  0.26513  1.0000
  N   N70       1.0  0.55881  0.51791  0.28639  1.0000
  C   C703      1.0  0.90500  0.60001  0.26582  1.0000
  C   C704      1.0  0.88331  0.58882  0.28115  1.0000
  C   C705      1.0  0.86206  0.56791  0.27946  1.0000
  H   H1134     1.0  0.87938  0.62921  0.35988  1.0000
  C   C706      1.0  0.85576  0.45777  0.30679  1.0000
  H   H1135     1.0  0.88249  0.59674  0.29412  1.0000
  H   H1136     1.0  0.84498  0.55998  0.29115  1.0000
  H   H1137     1.0  0.96446  0.56767  0.33787  1.0000
  C   C707      1.0  0.87587  0.40090  0.29180  1.0000
  C   C708      1.0  0.85287  0.40208  0.28564  1.0000
  H   H1138     1.0  0.87503  0.39304  0.30682  1.0000
  H   H1139     1.0  0.83431  0.39510  0.29591  1.0000
  H   H1140     1.0  0.53185  0.50125  0.31381  1.0000
  S   S286      1.0  0.92596  0.45862  0.31802  1.0000
  C   C709      1.0  0.97927  0.50789  0.24655  1.0000
  H   H1141     1.0  0.96741  0.33287  0.38534  1.0000
  S   S287      1.0  0.93439  0.44352  0.36273  1.0000
  Fe  Fe138     1.0  0.90101  0.43759  0.34712  1.0000
  C   C710      1.0  0.88475  0.56803  0.24749  1.0000
  C   C711      1.0  0.97632  0.52156  0.36986  1.0000
  H   H1142     1.0  0.84587  0.60984  0.36220  1.0000
  Fe  Fe139     1.0  0.92854  0.41886  0.31495  1.0000
  C   C712      1.0  0.92362  0.32686  0.43465  1.0000
  C   C713      1.0  0.82751  0.62490  0.39454  1.0000
  H   H1143     1.0  0.97464  0.51668  0.38580  1.0000
  H   H1144     1.0  0.86888  0.46252  0.29228  1.0000
  H   H1145     1.0  0.93673  0.53471  0.38961  1.0000
  H   H1146     1.0  0.57625  0.56016  0.27693  1.0000
  H   H1147     1.0  0.48281  0.39372  0.31308  1.0000
  S   S288      1.0  0.94763  0.37558  0.37595  1.0000
  H   H1148     1.0  0.83222  0.47001  0.37953  1.0000
  C   C714      1.0  0.88945  0.49997  0.34654  1.0000
  C   C715      1.0  0.85111  0.51206  0.37089  1.0000
  C   C716      1.0  0.54811  0.59151  0.25200  1.0000
  H   H1149     1.0  0.54100  0.54864  0.28345  1.0000
  H   H1150     1.0  0.53195  0.59056  0.26326  1.0000
  H   H1151     1.0  0.86818  0.46380  0.31739  1.0000
  C   C717      1.0  0.89970  0.40918  0.27839  1.0000
  C   C718      1.0  0.93931  0.53785  0.37357  1.0000
  C   C719      1.0  0.86810  0.47955  0.35844  1.0000
  H   H1152     1.0  0.96467  0.50356  0.36545  1.0000
  Fe  Fe140     1.0  0.56359  0.63378  0.33109  1.0000
  C   C720      1.0  0.53410  0.49893  0.29847  1.0000
  H   H1153     1.0  0.97940  0.33679  0.32399  1.0000
  C   C721      1.0  0.54619  0.57069  0.24196  1.0000
  H   H1154     1.0  0.85734  0.60085  0.41237  1.0000
  H   H1155     1.0  0.57936  0.52786  0.25660  1.0000
  H   H1156     1.0  0.51664  0.50179  0.29321  1.0000
  C   C722      1.0  0.57078  0.61367  0.24717  1.0000
  C   C723      1.0  0.55904  0.54517  0.28716  1.0000
  C   C724      1.0  0.96371  0.36361  0.29607  1.0000
  S   S289      1.0  0.82545  0.41615  0.25917  1.0000
  N   N71       1.0  0.95154  0.50098  0.24471  1.0000
  H   H1157     1.0  0.87867  0.42963  0.23798  1.0000
  S   S290      1.0  0.80714  0.47575  0.23692  1.0000
  Fe  Fe141     1.0  0.93616  0.40469  0.35582  1.0000
  C   C725      1.0  0.85393  0.41285  0.26632  1.0000
  H   H1158     1.0  0.83631  0.51657  0.38047  1.0000
  S   S291      1.0  0.57378  0.64053  0.25880  1.0000
  H   H1159     1.0  0.90429  0.49536  0.33712  1.0000
  C   C726      1.0  0.93457  0.48421  0.26309  1.0000
  C   C727      1.0  0.86002  0.60261  0.39641  1.0000
  H   H1160     1.0  0.82377  0.62384  0.41046  1.0000
  H   H1161     1.0  0.93899  0.34252  0.43875  1.0000
  Fe  Fe142     1.0  0.95952  0.46137  0.33312  1.0000
  Fe  Fe143     1.0  0.50240  0.45825  0.25140  1.0000
  H   H1162     1.0  0.81325  0.60716  0.39166  1.0000
  H   H1163     1.0  0.93129  0.55398  0.36874  1.0000
  H   H1164     1.0  0.91134  0.34876  0.30614  1.0000
  H   H1165     1.0  0.95708  0.53296  0.33784  1.0000
  H   H1166     1.0  0.53326  0.47813  0.29830  1.0000
  C   C728      1.0  0.96979  0.54981  0.34282  1.0000
  S   S292      1.0  0.96446  0.42328  0.32746  1.0000
  N   N72       1.0  0.83543  0.47095  0.30673  1.0000
  C   C729      1.0  0.84804  0.49985  0.30333  1.0000
  C   C730      1.0  0.82106  0.46437  0.29120  1.0000
  C   C731      1.0  0.81684  0.46183  0.32564  1.0000
  H   H1167     1.0  0.83329  0.51044  0.30285  1.0000
  H   H1168     1.0  0.86236  0.50743  0.28924  1.0000
  H   H1169     1.0  0.85868  0.50563  0.31496  1.0000
  H   H1170     1.0  0.81157  0.44267  0.29311  1.0000
  H   H1171     1.0  0.80563  0.47409  0.29063  1.0000
  H   H1172     1.0  0.83440  0.47119  0.27672  1.0000
  H   H1173     1.0  0.80697  0.44008  0.32871  1.0000
  H   H1174     1.0  0.80136  0.47155  0.32613  1.0000
  H   H1175     1.0  0.82706  0.46631  0.33770  1.0000
  S   S293      1.0  0.90024  0.39701  0.34281  1.0000
  S   S294      1.0  0.49706  0.49808  0.24730  1.0000
  Fe  Fe144     1.0  0.96484  0.62732  0.32776  1.0000
  H   H1176     1.0  0.92529  0.36519  0.32382  1.0000
  C   C732      1.0  0.86270  0.55752  0.26266  1.0000
  S   S295      1.0  0.86417  0.44619  0.35815  1.0000
  H   H1177     1.0  0.84670  0.58425  0.39352  1.0000
  N   N73       1.0  0.85486  0.62637  0.38698  1.0000
  H   H1178     1.0  0.92430  0.52128  0.23782  1.0000
  N   N74       1.0  0.94672  0.34162  0.31190  1.0000
  H   H1179     1.0  0.85527  0.64545  0.35809  1.0000
  H   H1180     1.0  0.54450  0.51849  0.26003  1.0000
  H   H1181     1.0  0.89909  0.34434  0.36708  1.0000
  S   S296      1.0  0.86954  0.48660  0.23906  1.0000
  H   H1182     1.0  0.90826  0.33032  0.33011  1.0000
  H   H1183     1.0  0.93664  0.49472  0.27532  1.0000
  H   H1184     1.0  0.95407  0.36576  0.28348  1.0000
  C   C733      1.0  0.91006  0.33140  0.37134  1.0000
  C   C734      1.0  0.90579  0.58955  0.24898  1.0000
  C   C735      1.0  0.93441  0.34178  0.37617  1.0000
  S   S297      1.0  0.50322  0.43733  0.28079  1.0000
  H   H1185     1.0  0.89400  0.65213  0.38513  1.0000
  H   H1186     1.0  0.94631  0.53654  0.25226  1.0000
  H   H1187     1.0  0.91353  0.47810  0.26206  1.0000
  H   H1188     1.0  0.90436  0.32973  0.43942  1.0000
  N   N75       1.0  0.96715  0.54424  0.36407  1.0000
  C   C736      1.0  0.92175  0.34659  0.31829  1.0000
  H   H1189     1.0  0.93974  0.46585  0.26701  1.0000
  H   H1190     1.0  0.91895  0.42514  0.24850  1.0000
  H   H1191     1.0  0.92688  0.51944  0.37016  1.0000
  H   H1192     1.0  0.92255  0.59814  0.23709  1.0000
  H   H1193     1.0  0.92762  0.33044  0.41854  1.0000
  Fe  Fe145     1.0  0.83558  0.45305  0.23662  1.0000
  H   H1194     1.0  0.52850  0.55389  0.24547  1.0000
  H   H1195     1.0  0.97599  0.58493  0.36649  1.0000
  H   H1196     1.0  0.96368  0.35797  0.33450  1.0000
  C   C737      1.0  0.96010  0.33974  0.32837  1.0000
  C   C738      1.0  0.85885  0.62775  0.36587  1.0000
  H   H1197     1.0  0.49032  0.62944  0.24761  1.0000
  C   C739      1.0  0.87317  0.65025  0.39092  1.0000
  Fe  Fe146     1.0  0.84182  0.50995  0.23738  1.0000
  C   C740      1.0  0.94835  0.32483  0.38189  1.0000
  H   H1198     1.0  0.88649  0.48330  0.69611  1.0000
  H   H1199     1.0  0.53758  0.40195  0.63423  1.0000
  C   C741      1.0  0.49705  0.49290  0.62778  1.0000
  C   C742      1.0  0.58086  0.49975  0.70399  1.0000
  Fe  Fe147     1.0  0.91261  0.57397  0.68798  1.0000
  N   N76       1.0  0.97678  0.49441  0.70836  1.0000
  S   S298      1.0  0.95284  0.57396  0.69078  1.0000
  S   S299      1.0  0.60871  0.62989  0.59592  1.0000
  S   S300      1.0  0.52943  0.35785  0.70178  1.0000
  S   S301      1.0  0.92365  0.58872  0.65581  1.0000
  C   C743      1.0  0.63070  0.63614  0.64492  1.0000
  H   H1200     1.0  0.51387  0.32851  0.67318  1.0000
  H   H1201     1.0  0.95013  0.51701  0.70682  1.0000
  H   H1202     1.0  0.81489  0.45678  0.69754  1.0000
  H   H1203     1.0  0.65733  0.63783  0.60947  1.0000
  C   C744      1.0  0.55847  0.42281  0.66253  1.0000
  H   H1204     1.0  0.83995  0.46236  0.66411  1.0000
  H   H1205     1.0  0.54442  0.45943  0.62513  1.0000
  H   H1206     1.0  0.88782  0.56795  0.73045  1.0000
  Fe  Fe148     1.0  0.93268  0.62923  0.66273  1.0000
  S   S302      1.0  0.53506  0.42761  0.71262  1.0000
  C   C745      1.0  0.89225  0.39974  0.71796  1.0000
  Fe  Fe149     1.0  0.57648  0.60367  0.62116  1.0000
  S   S303      1.0  0.56369  0.61410  0.64958  1.0000
  Fe  Fe150     1.0  0.57044  0.57688  0.66284  1.0000
  S   S304      1.0  0.59273  0.57820  0.68689  1.0000
  S   S305      1.0  0.58566  0.56785  0.63468  1.0000
  H   H1207     1.0  0.86531  0.48949  0.66828  1.0000
  C   C746      1.0  0.83394  0.46213  0.70230  1.0000
  H   H1208     1.0  0.86497  0.48582  0.72784  1.0000
  C   C747      1.0  0.61045  0.52326  0.72226  1.0000
  Fe  Fe151     1.0  0.96517  0.38705  0.68230  1.0000
  N   N77       1.0  0.85378  0.45411  0.69031  1.0000
  H   H1209     1.0  0.57009  0.48147  0.70052  1.0000
  C   C748      1.0  0.58017  0.52392  0.69389  1.0000
  C   C749      1.0  0.59429  0.54771  0.69828  1.0000
  H   H1210     1.0  0.57172  0.41476  0.65363  1.0000
  H   H1211     1.0  0.49043  0.53036  0.62763  1.0000
  C   C750      1.0  0.87865  0.46155  0.69724  1.0000
  H   H1212     1.0  0.56871  0.52416  0.68277  1.0000
  H   H1213     1.0  0.65799  0.61008  0.62631  1.0000
  C   C751      1.0  0.85824  0.46759  0.66988  1.0000
  C   C752      1.0  0.60932  0.54729  0.71251  1.0000
  C   C753      1.0  0.97303  0.54016  0.64425  1.0000
  C   C754      1.0  0.93253  0.50366  0.65608  1.0000
  Fe  Fe152     1.0  0.95980  0.61550  0.69465  1.0000
  H   H1214     1.0  0.89397  0.45550  0.68866  1.0000
  H   H1215     1.0  0.82563  0.41883  0.68668  1.0000
  H   H1216     1.0  0.93736  0.54311  0.66005  1.0000
  H   H1217     1.0  0.91229  0.49660  0.66337  1.0000
  C   C755      1.0  0.84432  0.42520  0.69182  1.0000
  C   C756      1.0  0.91246  0.39052  0.71051  1.0000
  S   S306      1.0  0.94211  0.38392  0.65865  1.0000
  H   H1218     1.0  0.91915  0.39397  0.69503  1.0000
  C   C757      1.0  0.48735  0.51393  0.72381  1.0000
  C   C758      1.0  0.55687  0.45341  0.63476  1.0000
  H   H1219     1.0  0.93473  0.48192  0.71193  1.0000
  C   C759      1.0  0.66594  0.63201  0.62196  1.0000
  Fe  Fe153     1.0  0.54361  0.54533  0.63553  1.0000
  C   C760      1.0  0.48564  0.46636  0.62704  1.0000
  H   H1220     1.0  0.51366  0.60344  0.72073  1.0000
  Fe  Fe154     1.0  0.52372  0.58710  0.64925  1.0000
  H   H1221     1.0  0.87593  0.45191  0.71268  1.0000
  S   S307      1.0  0.92656  0.45258  0.65316  1.0000
  H   H1222     1.0  0.84076  0.41445  0.70711  1.0000
  S   S308      1.0  0.53550  0.58002  0.61945  1.0000
  C   C761      1.0  0.94451  0.48635  0.64900  1.0000
  H   H1223     1.0  0.84049  0.48391  0.70141  1.0000
  S   S309      1.0  0.88087  0.53541  0.70138  1.0000
  H   H1224     1.0  0.51012  0.44932  0.65603  1.0000
  C   C762      1.0  0.49994  0.33887  0.67638  1.0000
  S   S310      1.0  0.97508  0.63369  0.66298  1.0000
  H   H1225     1.0  0.51112  0.41575  0.63576  1.0000
  H   H1226     1.0  0.52356  0.56185  0.71861  1.0000
  C   C763      1.0  0.92354  0.37653  0.72299  1.0000
  H   H1227     1.0  0.83027  0.45241  0.71785  1.0000
  S   S311      1.0  0.53009  0.50408  0.62999  1.0000
  H   H1228     1.0  0.62489  0.64523  0.65716  1.0000
  H   H1229     1.0  0.51068  0.42589  0.67640  1.0000
  Fe  Fe155     1.0  0.53046  0.38496  0.72271  1.0000
  H   H1230     1.0  0.57166  0.44728  0.62569  1.0000
  C   C764      1.0  0.97092  0.49604  0.63949  1.0000
  C   C765      1.0  0.52504  0.40977  0.64396  1.0000
  H   H1231     1.0  0.96121  0.45197  0.71615  1.0000
  N   N78       1.0  0.54093  0.43196  0.65130  1.0000
  H   H1232     1.0  0.49741  0.45341  0.62659  1.0000
  Fe  Fe156     1.0  0.95368  0.42811  0.65398  1.0000
  C   C766      1.0  0.59608  0.49944  0.71816  1.0000
  H   H1233     1.0  0.56745  0.47141  0.63970  1.0000
  H   H1234     1.0  0.53695  0.54107  0.70597  1.0000
  H   H1235     1.0  0.62027  0.56563  0.71592  1.0000
  C   C767      1.0  0.52336  0.44178  0.66399  1.0000
  H   H1236     1.0  0.96467  0.48008  0.68362  1.0000
  H   H1237     1.0  0.85897  0.41855  0.68296  1.0000
  C   C768      1.0  0.49705  0.59728  0.71393  1.0000
  H   H1238     1.0  0.62244  0.61432  0.64998  1.0000
  H   H1239     1.0  0.57091  0.43914  0.66815  1.0000
  S   S312      1.0  0.94970  0.36601  0.71349  1.0000
  H   H1240     1.0  0.87329  0.46208  0.66045  1.0000
  Fe  Fe157     1.0  0.96468  0.59163  0.65915  1.0000
  C   C769      1.0  0.53070  0.54456  0.72063  1.0000
  S   S313      1.0  0.91806  0.61410  0.69494  1.0000
  H   H1241     1.0  0.54703  0.40683  0.67522  1.0000
  S   S314      1.0  0.52938  0.55090  0.66518  1.0000
  H   H1242     1.0  0.88371  0.41010  0.70811  1.0000
  C   C770      1.0  0.50114  0.59793  0.69394  1.0000
  H   H1243     1.0  0.53468  0.45840  0.66992  1.0000
  N   N79       1.0  0.51029  0.52098  0.73302  1.0000
  C   C771      1.0  0.94682  0.53029  0.65404  1.0000
  H   H1244     1.0  0.51304  0.39315  0.65600  1.0000
  H   H1245     1.0  0.94697  0.49781  0.73049  1.0000
  H   H1246     1.0  0.49278  0.50931  0.70936  1.0000
  H   H1247     1.0  0.52089  0.60448  0.68537  1.0000
  C   C772      1.0  0.67154  0.63682  0.65431  1.0000
  C   C773      1.0  0.50257  0.35453  0.69032  1.0000
  H   H1248     1.0  0.66699  0.64611  0.66674  1.0000
  H   H1249     1.0  0.52590  0.49288  0.72135  1.0000
  C   C774      1.0  0.98115  0.49494  0.68735  1.0000
  S   S315      1.0  0.97344  0.43043  0.67905  1.0000
  S   S316      1.0  0.91666  0.65761  0.64576  1.0000
  H   H1250     1.0  0.66400  0.61501  0.65979  1.0000
  H   H1251     1.0  0.62091  0.64164  0.63312  1.0000
  H   H1252     1.0  0.68751  0.63773  0.61658  1.0000
  N   N80       1.0  0.65946  0.64471  0.63816  1.0000
  C   C775      1.0  0.48450  0.36802  0.69428  1.0000
  H   H1253     1.0  0.69327  0.64275  0.64975  1.0000
  H   H1254     1.0  0.98035  0.48294  0.63381  1.0000
  S   S317      1.0  0.98179  0.62529  0.71812  1.0000
  S   S318      1.0  0.48434  0.59076  0.66019  1.0000
  C   C776      1.0  0.95106  0.49798  0.71472  1.0000
  C   C777      1.0  0.87698  0.52767  0.72666  1.0000
  C   C778      1.0  0.97696  0.46869  0.71887  1.0000
  H   H1255     1.0  0.54858  0.55033  0.72688  1.0000
  Fe  Fe158     1.0  0.56165  0.43512  0.73362  1.0000
  S   S319      1.0  0.59745  0.46968  0.73109  1.0000
  H   H1256     1.0  0.62236  0.52315  0.73310  1.0000
  H   H1257     1.0  0.48635  0.38014  0.70507  1.0000
  H   H1258     1.0  0.97389  0.46761  0.73478  1.0000
  Fe  Fe159     1.0  0.98130  0.39104  0.63918  1.0000
  Fe  Fe160     1.0  0.86751  0.46170  0.79741  1.0000
  S   S320      1.0  0.87162  0.43881  0.82503  1.0000
  S   S321      1.0  0.87005  0.50447  0.79191  1.0000
  Fe  Fe161     1.0  0.86087  0.41589  0.77688  1.0000
  Fe  Fe162     1.0  0.83811  0.40627  0.82018  1.0000
  Fe  Fe163     1.0  0.89654  0.42246  0.80558  1.0000
  S   S322      1.0  0.93514  0.41746  0.80896  1.0000
  S   S323      1.0  0.83192  0.43063  0.79400  1.0000
  S   S324      1.0  0.89606  0.44879  0.77845  1.0000
  C   C779      1.0  0.49620  0.39466  0.80972  1.0000
  C   C780      1.0  0.91412  0.37169  0.74303  1.0000
  C   C781      1.0  0.81945  0.40850  0.87098  1.0000
  Fe  Fe164     1.0  0.56292  0.44575  0.87967  1.0000
  S   S325      1.0  0.55940  0.44062  0.91193  1.0000
  S   S326      1.0  0.59758  0.46177  0.85483  1.0000
  H   H1259     1.0  0.58919  0.40212  0.86047  1.0000
  H   H1260     1.0  0.58270  0.34359  0.92853  1.0000
  H   H1261     1.0  0.94266  0.51073  0.78579  1.0000
  C   C782      1.0  0.66562  0.34725  0.89051  1.0000
  H   H1262     1.0  0.67674  0.36712  0.89103  1.0000
  Fe  Fe165     1.0  0.53189  0.40015  0.91290  1.0000
  H   H1263     1.0  0.73079  0.44420  0.96798  1.0000
  H   H1264     1.0  0.49320  0.40022  0.79526  1.0000
  S   S327      1.0  0.53890  0.40444  0.88070  1.0000
  H   H1265     1.0  0.80783  0.43981  0.83939  1.0000
  H   H1266     1.0  0.93360  0.54505  0.80161  1.0000
  H   H1267     1.0  0.60610  0.39727  0.83849  1.0000
  S   S328      1.0  0.70918  0.38734  0.95023  1.0000
  H   H1268     1.0  0.96706  0.56436  0.74094  1.0000
  C   C783      1.0  0.51988  0.33662  0.92017  1.0000
  H   H1269     1.0  0.54334  0.35045  0.86793  1.0000
  S   S329      1.0  0.67441  0.42975  0.97594  1.0000
  N   N81       1.0  0.59410  0.33989  0.95608  1.0000
  H   H1270     1.0  0.49397  0.54354  0.75077  1.0000
  H   H1271     1.0  0.96577  0.35483  0.79116  1.0000
  H   H1272     1.0  0.93321  0.56116  0.74896  1.0000
  H   H1273     1.0  0.94063  0.57805  0.78792  1.0000
  Fe  Fe166     1.0  0.68719  0.37627  0.92715  1.0000
  C   C784      1.0  0.59879  0.47048  0.97547  1.0000
  Fe  Fe167     1.0  0.50464  0.41932  0.88250  1.0000
  C   C785      1.0  0.62696  0.45939  0.86089  1.0000
  C   C786      1.0  0.65042  0.47135  0.84720  1.0000
  C   C787      1.0  0.67424  0.47025  0.85187  1.0000
  C   C788      1.0  0.67468  0.45706  0.87019  1.0000
  C   C789      1.0  0.65111  0.44459  0.88374  1.0000
  C   C790      1.0  0.62722  0.44572  0.87909  1.0000
  H   H1274     1.0  0.65029  0.48198  0.83313  1.0000
  H   H1275     1.0  0.69239  0.47998  0.84136  1.0000
  H   H1276     1.0  0.60912  0.43635  0.88968  1.0000
  C   C791      1.0  0.51070  0.37753  0.81331  1.0000
  C   C792      1.0  0.51371  0.36969  0.83220  1.0000
  C   C793      1.0  0.89448  0.38179  0.75053  1.0000
  C   C794      1.0  0.87126  0.51374  0.76702  1.0000
  H   H1277     1.0  0.96492  0.38695  0.79421  1.0000
  C   C795      1.0  0.86637  0.49425  0.75601  1.0000
  H   H1278     1.0  0.52433  0.35590  0.83511  1.0000
  H   H1279     1.0  0.49853  0.35738  0.90434  1.0000
  C   C796      1.0  0.61535  0.35371  0.96515  1.0000
  H   H1280     1.0  0.61756  0.35441  0.92724  1.0000
  H   H1281     1.0  0.92963  0.46468  0.82118  1.0000
  S   S330      1.0  0.49510  0.41152  0.91499  1.0000
  C   C797      1.0  0.56076  0.35052  0.87436  1.0000
  H   H1282     1.0  0.79175  0.45910  0.87597  1.0000
  S   S331      1.0  0.86349  0.38813  0.80265  1.0000
  C   C798      1.0  0.81517  0.41593  0.88894  1.0000
  H   H1283     1.0  0.60071  0.49055  0.96751  1.0000
  H   H1284     1.0  0.50444  0.37269  0.86202  1.0000
  H   H1285     1.0  0.65128  0.43457  0.89791  1.0000
  H   H1286     1.0  0.75534  0.37070  0.90893  1.0000
  C   C799      1.0  0.72394  0.44154  0.98341  1.0000
  H   H1287     1.0  0.81372  0.47038  0.82283  1.0000
  C   C800      1.0  0.79156  0.40296  0.90235  1.0000
  H   H1288     1.0  0.58894  0.43237  0.77949  1.0000
  H   H1289     1.0  0.57741  0.41278  0.80378  1.0000
  C   C801      1.0  0.80014  0.38815  0.86641  1.0000
  Fe  Fe168     1.0  0.70310  0.43237  0.90458  1.0000
  C   C802      1.0  0.51885  0.48729  0.94885  1.0000
  C   C803      1.0  0.77608  0.44974  0.86846  1.0000
  C   C804      1.0  0.60775  0.36232  0.86919  1.0000
  S   S332      1.0  0.51193  0.48291  0.92605  1.0000
  H   H1290     1.0  0.51981  0.53273  0.97718  1.0000
  H   H1291     1.0  0.66531  0.35696  0.86013  1.0000
  H   H1292     1.0  0.74524  0.34638  0.84549  1.0000
  H   H1293     1.0  0.95831  0.58844  0.75289  1.0000
  S   S333      1.0  0.80271  0.38090  0.84309  1.0000
  H   H1294     1.0  0.56086  0.43231  0.83054  1.0000
  S   S334      1.0  0.52984  0.43153  0.75853  1.0000
  H   H1295     1.0  0.57848  0.49310  0.79205  1.0000
  C   C805      1.0  0.65741  0.32732  0.90726  1.0000
  S   S335      1.0  0.66771  0.40744  0.92731  1.0000
  C   C806      1.0  0.98009  0.40955  0.75579  1.0000
  H   H1296     1.0  0.76245  0.35835  0.87710  1.0000
  H   H1297     1.0  0.82391  0.47056  0.84560  1.0000
  N   N82       1.0  0.58538  0.36159  0.85963  1.0000
  C   C807      1.0  0.77316  0.38142  0.89833  1.0000
  C   C808      1.0  0.65907  0.34151  0.87303  1.0000
  H   H1298     1.0  0.76366  0.49130  0.85199  1.0000
  H   H1299     1.0  0.77380  0.42834  0.87072  1.0000
  H   H1300     1.0  0.86050  0.47368  0.76283  1.0000
  H   H1301     1.0  0.75739  0.45158  0.87598  1.0000
  H   H1302     1.0  0.88749  0.37820  0.76600  1.0000
  Fe  Fe169     1.0  0.52305  0.45242  0.91160  1.0000
  S   S336      1.0  0.78330  0.41587  0.92267  1.0000
  H   H1303     1.0  0.82959  0.43245  0.89207  1.0000
  C   C809      1.0  0.56849  0.33939  0.96696  1.0000
  C   C810      1.0  0.58501  0.34468  0.84513  1.0000
  H   H1304     1.0  0.60594  0.34224  0.87707  1.0000
  C   C811      1.0  0.96397  0.37363  0.78368  1.0000
  H   H1305     1.0  0.83736  0.41901  0.86057  1.0000
  H   H1306     1.0  0.92191  0.36018  0.75279  1.0000
  H   H1307     1.0  0.88184  0.55564  0.76626  1.0000
  S   S337      1.0  0.72017  0.39970  0.90259  1.0000
  C   C812      1.0  0.77733  0.37421  0.88036  1.0000
  H   H1308     1.0  0.69722  0.32770  0.84531  1.0000
  H   H1309     1.0  0.77233  0.34652  0.98389  1.0000
  C   C813      1.0  0.88190  0.54738  0.73757  1.0000
  H   H1310     1.0  0.52319  0.44911  0.95783  1.0000
  Fe  Fe170     1.0  0.74099  0.41362  0.92561  1.0000
  S   S338      1.0  0.66518  0.33390  0.92924  1.0000
  H   H1311     1.0  0.79806  0.50117  0.85247  1.0000
  N   N83       1.0  0.78225  0.46191  0.84762  1.0000
  H   H1312     1.0  0.78772  0.49968  0.82979  1.0000
  C   C814      1.0  0.95003  0.46825  0.81491  1.0000
  H   H1313     1.0  0.56153  0.46596  0.82585  1.0000
  H   H1314     1.0  0.76566  0.45611  0.82250  1.0000
  H   H1315     1.0  0.97899  0.42379  0.76541  1.0000
  C   C815      1.0  0.57491  0.42902  0.79345  1.0000
  H   H1316     1.0  0.55482  0.42168  0.79061  1.0000
  H   H1317     1.0  0.96134  0.40413  0.75058  1.0000
  H   H1318     1.0  0.96261  0.50831  0.81927  1.0000
  C   C816      1.0  0.50205  0.52672  0.75216  1.0000
  H   H1319     1.0  0.66261  0.48147  0.97905  1.0000
  H   H1320     1.0  0.63486  0.35384  0.95753  1.0000
  S   S339      1.0  0.52605  0.36654  0.79430  1.0000
  H   H1321     1.0  0.58939  0.47830  0.77279  1.0000
  H   H1322     1.0  0.62066  0.46653  0.79178  1.0000
  H   H1323     1.0  0.60861  0.44704  0.81604  1.0000
  H   H1324     1.0  0.62665  0.36983  0.85845  1.0000
  C   C817      1.0  0.76175  0.44741  0.83824  1.0000
  C   C818      1.0  0.78298  0.48977  0.84534  1.0000
  H   H1325     1.0  0.74199  0.44782  0.84490  1.0000
  N   N84       1.0  0.57865  0.45339  0.80123  1.0000
  C   C819      1.0  0.60538  0.46224  0.80518  1.0000
  C   C820      1.0  0.50413  0.33972  0.90675  1.0000
  H   H1326     1.0  0.56739  0.35967  0.96675  1.0000
  S   S340      1.0  0.70502  0.45681  0.87568  1.0000
  C   C821      1.0  0.57528  0.47424  0.78684  1.0000
  H   H1327     1.0  0.55519  0.46836  0.78373  1.0000
  C   C822      1.0  0.95795  0.44814  0.80820  1.0000
  H   H1328     1.0  0.71216  0.33527  0.87579  1.0000
  C   C823      1.0  0.50278  0.37946  0.84739  1.0000
  C   C824      1.0  0.58795  0.38868  0.84999  1.0000
  C   C825      1.0  0.80804  0.46063  0.83847  1.0000
  H   H1329     1.0  0.76074  0.42629  0.83971  1.0000
  H   H1330     1.0  0.64933  0.50147  0.96357  1.0000
  H   H1331     1.0  0.53862  0.44152  0.81694  1.0000
  C   C826      1.0  0.95283  0.56695  0.75283  1.0000
  S   S341      1.0  0.53482  0.36330  0.93034  1.0000
  C   C827      1.0  0.87853  0.54039  0.75784  1.0000
  C   C828      1.0  0.52542  0.47114  0.98090  1.0000
  C   C829      1.0  0.48513  0.40430  0.82496  1.0000
  N   N85       1.0  0.95273  0.55150  0.77179  1.0000
  S   S342      1.0  0.72687  0.44877  0.92564  1.0000
  H   H1332     1.0  0.60895  0.37537  0.87993  1.0000
  C   C830      1.0  0.55904  0.44808  0.81938  1.0000
  C   C831      1.0  0.88340  0.39574  0.73796  1.0000
  Fe  Fe171     1.0  0.52645  0.38863  0.76483  1.0000
  H   H1333     1.0  0.60880  0.48051  0.81124  1.0000
  H   H1334     1.0  0.59801  0.37435  0.93490  1.0000
  H   H1335     1.0  0.64670  0.46825  0.96092  1.0000
  H   H1336     1.0  0.56079  0.36187  0.88613  1.0000
  Fe  Fe172     1.0  0.69282  0.42103  0.94836  1.0000
  S   S343      1.0  0.85861  0.40838  0.74692  1.0000
  H   H1337     1.0  0.94403  0.36924  0.78027  1.0000
  H   H1338     1.0  0.48639  0.50935  0.76179  1.0000
  C   C832      1.0  0.94409  0.52302  0.77144  1.0000
  S   S344      1.0  0.52915  0.46131  0.87916  1.0000
  H   H1339     1.0  0.59823  0.45746  0.96474  1.0000
  C   C833      1.0  0.51790  0.51074  0.95445  1.0000
  H   H1340     1.0  0.51493  0.52616  0.94436  1.0000
  C   C834      1.0  0.93456  0.55677  0.78713  1.0000
  C   C835      1.0  0.52285  0.46747  0.96201  1.0000
  S   S345      1.0  0.49608  0.37675  0.74697  1.0000
  H   H1341     1.0  0.91428  0.55142  0.78446  1.0000
  C   C836      1.0  0.52063  0.51446  0.97307  1.0000
  H   H1342     1.0  0.57084  0.38898  0.84326  1.0000
  C   C837      1.0  0.96868  0.49290  0.81383  1.0000
  H   H1343     1.0  0.76168  0.32548  0.85636  1.0000
  C   C838      1.0  0.59833  0.35371  0.93577  1.0000
  H   H1344     1.0  0.61625  0.37461  0.96483  1.0000
  H   H1345     1.0  0.50653  0.48092  0.74541  1.0000
  H   H1346     1.0  0.96460  0.35902  0.74982  1.0000
  H   H1347     1.0  0.92432  0.51667  0.76781  1.0000
  H   H1348     1.0  0.51881  0.53208  0.75959  1.0000
  C   C839      1.0  0.64586  0.48110  0.97168  1.0000
  S   S346      1.0  0.56058  0.39300  0.74123  1.0000
  H   H1349     1.0  0.55198  0.32880  0.96065  1.0000
  C   C840      1.0  0.48883  0.39712  0.84375  1.0000
  H   H1350     1.0  0.56851  0.34397  0.83748  1.0000
  H   H1351     1.0  0.55786  0.32975  0.88134  1.0000
  C   C841      1.0  0.86890  0.50116  0.73601  1.0000
  H   H1352     1.0  0.60368  0.35178  0.83409  1.0000
  H   H1353     1.0  0.95799  0.51817  0.76062  1.0000
  H   H1354     1.0  0.53921  0.50381  0.74130  1.0000
  Fe  Fe173     1.0  0.50284  0.42020  0.73827  1.0000
  H   H1355     1.0  0.76274  0.38370  0.96527  1.0000
  H   H1356     1.0  0.61261  0.34384  0.98054  1.0000
  H   H1357     1.0  0.74486  0.40168  0.97758  1.0000
  H   H1358     1.0  0.77794  0.40541  0.97995  1.0000
  C   C842      1.0  0.75918  0.39081  0.97899  1.0000
  C   C843      1.0  0.74563  0.32566  0.84837  1.0000
  C   C844      1.0  0.97946  0.55937  0.77581  1.0000
  H   H1359     1.0  0.97984  0.54878  0.79032  1.0000
  H   H1360     1.0  0.72616  0.34234  0.98096  1.0000
  H   H1361     1.0  0.56462  0.32895  0.98234  1.0000
  C   C845      1.0  0.52097  0.49871  0.73542  1.0000
  C   C846      1.0  0.50010  0.67980  0.22974  1.0000
  H   H1362     1.0  0.55883  0.95869  0.21130  1.0000
  H   H1363     1.0  0.48732  0.93365  0.23375  1.0000
  N   N86       1.0  0.51977  0.96084  0.21224  1.0000
  H   H1364     1.0  0.48619  0.66560  0.22346  1.0000
  H   H1365     1.0  0.52292  0.95779  0.18229  1.0000
  H   H1366     1.0  0.55708  0.98785  0.19630  1.0000
  C   C847      1.0  0.50679  0.98137  0.20996  1.0000
  C   C848      1.0  0.54825  0.97351  0.21035  1.0000
  H   H1367     1.0  0.52489  0.92952  0.19824  1.0000
  C   C849      1.0  0.51528  0.94514  0.19709  1.0000
  H   H1368     1.0  0.51034  0.69765  0.21813  1.0000
  H   H1369     1.0  0.54479  0.67682  0.20970  1.0000
  H   H1370     1.0  0.54836  0.70581  0.23399  1.0000
  H   H1371     1.0  0.49400  0.93504  0.19825  1.0000
  C   C850      1.0  0.50884  0.94331  0.23157  1.0000
  H   H1372     1.0  0.48533  0.97252  0.21088  1.0000
  H   H1373     1.0  0.49756  0.98863  0.16035  1.0000
  H   H1374     1.0  0.55230  0.98453  0.22212  1.0000
  C   C851      1.0  0.53371  0.65984  0.22181  1.0000
  H   H1375     1.0  0.51777  0.92720  0.23354  1.0000
  H   H1376     1.0  0.96483  0.67156  0.23486  1.0000
  Fe  Fe174     1.0  0.50864  0.96275  0.31456  1.0000
  S   S347      1.0  0.54854  0.95809  0.30776  1.0000
  Fe  Fe175     1.0  0.91008  0.82426  0.40051  1.0000
  S   S348      1.0  0.90477  0.78402  0.41764  1.0000
  S   S349      1.0  0.88255  0.83578  0.38277  1.0000
  C   C852      1.0  0.64284  0.98526  0.37521  1.0000
  H   H1377     1.0  0.80160  0.85202  0.38275  1.0000
  C   C853      1.0  0.91848  0.82680  0.34039  1.0000
  S   S350      1.0  0.91991  0.84527  0.42439  1.0000
  S   S351      1.0  0.95238  0.83221  0.38701  1.0000
  Fe  Fe176     1.0  0.68743  0.77097  0.37449  1.0000
  S   S352      1.0  0.72951  0.79247  0.35947  1.0000
  S   S353      1.0  0.65325  0.75922  0.35940  1.0000
  Fe  Fe177     1.0  0.69813  0.77922  0.41416  1.0000
  S   S354      1.0  0.74071  0.80150  0.40261  1.0000
  S   S355      1.0  0.67807  0.76881  0.44562  1.0000
  Fe  Fe178     1.0  0.72723  0.82180  0.37833  1.0000
  S   S356      1.0  0.74463  0.86545  0.36567  1.0000
  Fe  Fe179     1.0  0.73969  0.77054  0.38498  1.0000
  S   S357      1.0  0.77225  0.75267  0.38547  1.0000
  S   S358      1.0  0.68461  0.80231  0.39144  1.0000
  S   S359      1.0  0.69784  0.74632  0.39837  1.0000
  C   C854      1.0  0.62338  0.99029  0.34106  1.0000
  H   H1378     1.0  0.95552  0.86658  0.48170  1.0000
  S   S360      1.0  0.73276  0.94090  0.42351  1.0000
  C   C855      1.0  0.89259  0.78317  0.35837  1.0000
  H   H1379     1.0  0.69274  0.98305  0.47630  1.0000
  H   H1380     1.0  0.97873  0.67333  0.25597  1.0000
  C   C856      1.0  0.69752  0.78483  0.46063  1.0000
  N   N87       1.0  0.51884  0.66807  0.23749  1.0000
  H   H1381     1.0  0.75892  0.95158  0.38338  1.0000
  H   H1382     1.0  0.79886  0.88427  0.38323  1.0000
  C   C857      1.0  0.91165  0.72119  0.36966  1.0000
  C   C858      1.0  0.48586  0.68333  0.29370  1.0000
  H   H1383     1.0  0.72321  0.81601  0.43747  1.0000
  C   C859      1.0  0.67657  0.90864  0.38098  1.0000
  C   C860      1.0  0.59128  0.71855  0.40355  1.0000
  H   H1384     1.0  0.83990  0.89657  0.39578  1.0000
  H   H1385     1.0  0.57835  0.72347  0.44045  1.0000
  C   C861      1.0  0.59478  0.71535  0.43718  1.0000
  Fe  Fe180     1.0  0.73490  0.98183  0.40931  1.0000
  C   C862      1.0  0.63833  0.72712  0.35568  1.0000
  C   C863      1.0  0.64622  0.70570  0.36274  1.0000
  C   C864      1.0  0.53723  0.68786  0.24531  1.0000
  C   C865      1.0  0.79789  0.83710  0.42105  1.0000
  C   C866      1.0  0.60352  0.69735  0.34406  1.0000
  C   C867      1.0  0.61700  0.72286  0.34631  1.0000
  H   H1386     1.0  0.66282  0.70877  0.36977  1.0000
  H   H1387     1.0  0.60795  0.72072  0.44752  1.0000
  H   H1388     1.0  0.58707  0.69427  0.33687  1.0000
  H   H1389     1.0  0.61078  0.73934  0.34081  1.0000
  C   C868      1.0  0.73699  0.92001  0.40760  1.0000
  C   C869      1.0  0.72662  0.89255  0.41416  1.0000
  C   C870      1.0  0.72879  0.87558  0.40135  1.0000
  C   C871      1.0  0.74171  0.88610  0.38204  1.0000
  C   C872      1.0  0.75276  0.91350  0.37565  1.0000
  C   C873      1.0  0.75031  0.93045  0.38839  1.0000
  H   H1390     1.0  0.71641  0.88438  0.42907  1.0000
  H   H1391     1.0  0.72030  0.85441  0.40640  1.0000
  H   H1392     1.0  0.76317  0.92166  0.36080  1.0000
  H   H1393     1.0  0.84277  0.86431  0.39564  1.0000
  C   C874      1.0  0.95051  0.74282  0.38118  1.0000
  H   H1394     1.0  0.62312  0.69250  0.41513  1.0000
  C   C875      1.0  0.60650  0.97490  0.35826  1.0000
  H   H1395     1.0  0.93377  0.83890  0.32752  1.0000
  H   H1396     1.0  0.91312  0.74871  0.38888  1.0000
  C   C876      1.0  0.85155  0.81267  0.38447  1.0000
  C   C877      1.0  0.84459  0.78690  0.39519  1.0000
  C   C878      1.0  0.82026  0.76849  0.39535  1.0000
  C   C879      1.0  0.80244  0.77601  0.38534  1.0000
  C   C880      1.0  0.80915  0.80196  0.37499  1.0000
  C   C881      1.0  0.83386  0.82010  0.37427  1.0000
  H   H1397     1.0  0.85803  0.78094  0.40309  1.0000
  H   H1398     1.0  0.81508  0.74842  0.40339  1.0000
  H   H1399     1.0  0.79557  0.80776  0.36705  1.0000
  H   H1400     1.0  0.83933  0.83987  0.36566  1.0000
  C   C882      1.0  0.92400  0.73851  0.38077  1.0000
  H   H1401     1.0  0.66619  0.91575  0.39267  1.0000
  H   H1402     1.0  0.89792  0.78818  0.37212  1.0000
  S   S361      1.0  0.90978  0.68804  0.34417  1.0000
  H   H1403     1.0  0.92115  0.80183  0.31054  1.0000
  Fe  Fe181     1.0  0.91783  0.80575  0.44072  1.0000
  H   H1404     1.0  0.95478  0.80397  0.33150  1.0000
  H   H1405     1.0  0.88828  0.76154  0.35964  1.0000
  H   H1406     1.0  0.60489  0.76417  0.41650  1.0000
  H   H1407     1.0  0.51072  0.91864  0.29371  1.0000
  H   H1408     1.0  0.80135  0.88100  0.43534  1.0000
  H   H1409     1.0  0.77201  0.87210  0.42579  1.0000
  H   H1410     1.0  0.84277  0.87684  0.41750  1.0000
  C   C883      1.0  0.63251  0.68014  0.36072  1.0000
  H   H1411     1.0  0.63857  0.66359  0.36632  1.0000
  H   H1412     1.0  0.65022  0.98336  0.38842  1.0000
  H   H1413     1.0  0.63470  0.76098  0.42298  1.0000
  H   H1414     1.0  0.64447  0.71910  0.42330  1.0000
  H   H1415     1.0  0.49386  0.71365  0.26800  1.0000
  H   H1416     1.0  0.77241  0.85543  0.39568  1.0000
  H   H1417     1.0  0.50612  0.68805  0.29519  1.0000
  H   H1418     1.0  0.68538  0.89758  0.34557  1.0000
  H   H1419     1.0  0.60165  0.72661  0.38815  1.0000
  H   H1420     1.0  0.90170  0.76942  0.32408  1.0000
  C   C884      1.0  0.71904  0.80757  0.45274  1.0000
  Fe  Fe182     1.0  0.55570  0.97433  0.33440  1.0000
  H   H1421     1.0  0.89122  0.71814  0.36921  1.0000
  H   H1422     1.0  0.66378  0.88873  0.38025  1.0000
  S   S362      1.0  0.89459  0.79531  0.47132  1.0000
  C   C885      1.0  0.61632  0.97226  0.37531  1.0000
  H   H1423     1.0  0.58634  0.69342  0.44026  1.0000
  S   S363      1.0  0.51428  0.97461  0.34272  1.0000
  H   H1424     1.0  0.90024  0.83208  0.33966  1.0000
  S   S364      1.0  0.55299  0.66077  0.30863  1.0000
  N   N88       1.0  0.68321  0.92731  0.36216  1.0000
  C   C886      1.0  0.49359  0.91179  0.28762  1.0000
  C   C887      1.0  0.73470  0.81992  0.46474  1.0000
  H   H1425     1.0  0.63101  0.76331  0.39825  1.0000
  H   H1426     1.0  0.52678  0.69405  0.25744  1.0000
  H   H1427     1.0  0.69365  0.95390  0.46709  1.0000
  C   C888      1.0  0.92563  0.70795  0.35901  1.0000
  H   H1428     1.0  0.51165  0.89163  0.26858  1.0000
  H   H1429     1.0  0.71865  0.95229  0.36802  1.0000
  N   N89       1.0  0.80496  0.86440  0.40984  1.0000
  H   H1430     1.0  0.87399  0.78752  0.35730  1.0000
  H   H1431     1.0  0.71587  0.91501  0.35110  1.0000
  S   S365      1.0  0.96717  0.76580  0.39382  1.0000
  S   S366      1.0  0.57304  0.95927  0.35892  1.0000
  H   H1432     1.0  0.70289  0.93099  0.33287  1.0000
  C   C889      1.0  0.95187  0.71152  0.35994  1.0000
  N   N90       1.0  0.72666  0.97113  0.47950  1.0000
  H   H1433     1.0  0.80510  0.82423  0.41227  1.0000
  H   H1434     1.0  0.64725  0.93657  0.36779  1.0000
  N   N91       1.0  0.91372  0.79821  0.34146  1.0000
  C   C890      1.0  0.96428  0.72898  0.37096  1.0000
  C   C891      1.0  0.90565  0.79096  0.32363  1.0000
  C   C892      1.0  0.93804  0.79190  0.34346  1.0000
  H   H1435     1.0  0.93559  0.77077  0.34324  1.0000
  H   H1436     1.0  0.94387  0.79559  0.35737  1.0000
  S   S367      1.0  0.69669  0.99038  0.41222  1.0000
  H   H1437     1.0  0.88736  0.79552  0.32169  1.0000
  H   H1438     1.0  0.93696  0.77286  0.46936  1.0000
  H   H1439     1.0  0.48812  0.68565  0.24125  1.0000
  H   H1440     1.0  0.58308  0.69673  0.40521  1.0000
  H   H1441     1.0  0.92516  0.83298  0.35345  1.0000
  H   H1442     1.0  0.64231  0.72234  0.39823  1.0000
  H   H1443     1.0  0.71437  0.98584  0.45407  1.0000
  H   H1444     1.0  0.51243  0.95430  0.24343  1.0000
  Fe  Fe183     1.0  0.94796  0.79349  0.40609  1.0000
  H   H1445     1.0  0.70529  0.96817  0.35006  1.0000
  N   N92       1.0  0.60924  0.72576  0.41690  1.0000
  H   H1446     1.0  0.81942  0.75931  0.47739  1.0000
  C   C893      1.0  0.62041  0.75483  0.41355  1.0000
  C   C894      1.0  0.63071  0.71437  0.41329  1.0000
  H   H1447     1.0  0.75117  0.83760  0.45858  1.0000
  C   C895      1.0  0.49404  0.89637  0.27348  1.0000
  H   H1448     1.0  0.66321  0.94476  0.34280  1.0000
  H   H1449     1.0  0.68999  0.96150  0.37513  1.0000
  H   H1450     1.0  0.69451  0.90609  0.38556  1.0000
  H   H1451     1.0  0.77624  0.82794  0.42584  1.0000
  H   H1452     1.0  0.57459  0.72648  0.40599  1.0000
  C   C896      1.0  0.65886  0.92992  0.35653  1.0000
  H   H1453     1.0  0.80640  0.83655  0.43427  1.0000
  C   C897      1.0  0.69149  0.77482  0.48068  1.0000
  H   H1454     1.0  0.64601  0.91082  0.35441  1.0000
  C   C898      1.0  0.83385  0.87608  0.40447  1.0000
  H   H1455     1.0  0.79867  0.90106  0.41365  1.0000
  C   C899      1.0  0.79410  0.86404  0.39209  1.0000
  H   H1456     1.0  0.60330  0.96036  0.38867  1.0000
  C   C900      1.0  0.79385  0.88035  0.42170  1.0000
  C   C901      1.0  0.70002  0.95341  0.36392  1.0000
  C   C902      1.0  0.69744  0.91732  0.34725  1.0000
  S   S368      1.0  0.96088  0.81191  0.43088  1.0000
  C   C903      1.0  0.61115  0.67586  0.35136  1.0000
  Fe  Fe184     1.0  0.96198  0.84997  0.41257  1.0000
  H   H1457     1.0  0.96279  0.70134  0.35182  1.0000
  H   H1458     1.0  0.77189  0.75520  0.48170  1.0000
  S   S369      1.0  0.95959  0.66139  0.30833  1.0000
  C   C904      1.0  0.74385  0.95884  0.46887  1.0000
  H   H1459     1.0  0.77991  0.79049  0.47873  1.0000
  H   H1460     1.0  0.82783  0.79458  0.47425  1.0000
  H   H1461     1.0  0.73255  0.93894  0.46693  1.0000
  C   C905      1.0  0.70589  0.97351  0.46884  1.0000
  C   C906      1.0  0.82204  0.77588  0.48524  1.0000
  C   C907      1.0  0.72881  0.80979  0.48473  1.0000
  H   H1462     1.0  0.75960  0.95655  0.47662  1.0000
  H   H1463     1.0  0.55185  0.67985  0.25110  1.0000
  H   H1464     1.0  0.75351  0.97095  0.45411  1.0000
  H   H1465     1.0  0.97690  0.82181  0.47453  1.0000
  C   C908      1.0  0.93227  0.77637  0.48380  1.0000
  H   H1466     1.0  0.86993  0.66853  0.38380  1.0000
  Fe  Fe185     1.0  0.92611  0.65789  0.33260  1.0000
  C   C909      1.0  0.70242  0.93757  0.59372  1.0000
  C   C910      1.0  0.96913  0.70040  0.56543  1.0000
  H   H1467     1.0  0.67122  0.96839  0.59883  1.0000
  Fe  Fe186     1.0  0.93127  0.82647  0.57721  1.0000
  S   S370      1.0  0.92985  0.78396  0.58376  1.0000
  S   S371      1.0  0.89527  0.83915  0.58253  1.0000
  H   H1468     1.0  0.68218  0.95972  0.62073  1.0000
  C   C911      1.0  0.93290  0.69182  0.64153  1.0000
  H   H1469     1.0  0.66459  0.68405  0.64320  1.0000
  C   C912      1.0  0.96359  0.85707  0.49319  1.0000
  S   S372      1.0  0.96491  0.84138  0.59192  1.0000
  S   S373      1.0  0.95682  0.83617  0.54753  1.0000
  H   H1470     1.0  0.96309  0.86775  0.50535  1.0000
  Fe  Fe187     1.0  0.76280  0.78457  0.56060  1.0000
  S   S374      1.0  0.73731  0.79049  0.58620  1.0000
  S   S375      1.0  0.79543  0.76674  0.55923  1.0000
  Fe  Fe188     1.0  0.73843  0.81051  0.53147  1.0000
  S   S376      1.0  0.71026  0.81894  0.55427  1.0000
  S   S377      1.0  0.74941  0.82558  0.49909  1.0000
  Fe  Fe189     1.0  0.74446  0.83108  0.56870  1.0000
  S   S378      1.0  0.75577  0.86738  0.58182  1.0000
  Fe  Fe190     1.0  0.70456  0.77757  0.57031  1.0000
  S   S379      1.0  0.66464  0.75285  0.58885  1.0000
  S   S380      1.0  0.77305  0.82623  0.54473  1.0000
  S   S381      1.0  0.72969  0.76819  0.54600  1.0000
  H   H1471     1.0  0.70154  0.96333  0.50748  1.0000
  C   C913      1.0  0.94954  0.72598  0.58411  1.0000
  H   H1472     1.0  0.91685  0.67827  0.60342  1.0000
  C   C914      1.0  0.93539  0.67851  0.59415  1.0000
  S   S382      1.0  0.95972  0.76951  0.53322  1.0000
  H   H1473     1.0  0.67474  0.75736  0.48690  1.0000
  C   C915      1.0  0.49168  0.97197  0.73381  1.0000
  H   H1474     1.0  0.78779  0.73037  0.50708  1.0000
  C   C916      1.0  0.64914  0.71885  0.59014  1.0000
  C   C917      1.0  0.66001  0.70449  0.57846  1.0000
  H   H1475     1.0  0.93112  0.72756  0.59224  1.0000
  H   H1476     1.0  0.66088  0.68026  0.61922  1.0000
  C   C918      1.0  0.61253  0.67866  0.60527  1.0000
  C   C919      1.0  0.62534  0.70583  0.60350  1.0000
  H   H1477     1.0  0.67824  0.71434  0.56807  1.0000
  H   H1478     1.0  0.80758  0.74803  0.52191  1.0000
  H   H1479     1.0  0.97645  0.71705  0.55256  1.0000
  H   H1480     1.0  0.61675  0.71686  0.61250  1.0000
  H   H1481     1.0  0.96844  0.68869  0.64995  1.0000
  N   N93       1.0  0.71048  0.96594  0.59444  1.0000
  H   H1482     1.0  0.80697  0.81431  0.49905  1.0000
  C   C920      1.0  0.64706  0.67736  0.58011  1.0000
  C   C921      1.0  0.80248  0.79521  0.50938  1.0000
  H   H1483     1.0  0.68496  0.93195  0.58699  1.0000
  S   S383      1.0  0.76845  0.97600  0.52720  1.0000
  C   C922      1.0  0.94645  0.77030  0.49773  1.0000
  H   H1484     1.0  0.96383  0.72780  0.59388  1.0000
  H   H1485     1.0  0.70239  0.77939  0.50817  1.0000
  C   C923      1.0  0.76527  0.94615  0.54268  1.0000
  C   C924      1.0  0.75659  0.92244  0.53625  1.0000
  C   C925      1.0  0.75330  0.89817  0.54829  1.0000
  C   C926      1.0  0.75863  0.89747  0.56687  1.0000
  C   C927      1.0  0.76752  0.92119  0.57329  1.0000
  C   C928      1.0  0.77097  0.94554  0.56117  1.0000
  H   H1486     1.0  0.75244  0.92276  0.52189  1.0000
  H   H1487     1.0  0.74667  0.87999  0.54317  1.0000
  H   H1488     1.0  0.77200  0.92072  0.58758  1.0000
  H   H1489     1.0  0.77819  0.96379  0.56604  1.0000
  C   C929      1.0  0.68858  0.97193  0.60578  1.0000
  C   C930      1.0  0.93354  0.73644  0.62866  1.0000
  C   C931      1.0  0.92031  0.70917  0.63405  1.0000
  H   H1490     1.0  0.77355  0.74507  0.52508  1.0000
  H   H1491     1.0  0.92365  0.74965  0.62290  1.0000
  H   H1492     1.0  0.90029  0.70146  0.63225  1.0000
  C   C932      1.0  0.92426  0.69871  0.56544  1.0000
  C   C933      1.0  0.86739  0.81765  0.57710  1.0000
  C   C934      1.0  0.86970  0.79867  0.56623  1.0000
  C   C935      1.0  0.84745  0.78275  0.56102  1.0000
  C   C936      1.0  0.82290  0.78601  0.56650  1.0000
  C   C937      1.0  0.82054  0.80483  0.57752  1.0000
  C   C938      1.0  0.84270  0.82034  0.58305  1.0000
  H   H1493     1.0  0.88865  0.79640  0.56175  1.0000
  H   H1494     1.0  0.84935  0.76814  0.55255  1.0000
  H   H1495     1.0  0.80155  0.80710  0.58207  1.0000
  H   H1496     1.0  0.84074  0.83438  0.59199  1.0000
  C   C939      1.0  0.97188  0.72929  0.63874  1.0000
  H   H1497     1.0  0.96621  0.68166  0.56006  1.0000
  H   H1498     1.0  0.70059  0.97797  0.56718  1.0000
  H   H1499     1.0  0.94992  0.83659  0.49875  1.0000
  H   H1500     1.0  0.65551  0.66641  0.57095  1.0000
  H   H1501     1.0  0.90552  0.69919  0.57396  1.0000
  C   C940      1.0  0.95952  0.74649  0.63061  1.0000
  H   H1502     1.0  0.75039  0.96826  0.59551  1.0000
  H   H1503     1.0  0.70227  0.93433  0.49811  1.0000
  H   H1504     1.0  0.71838  0.93247  0.58501  1.0000
  N   N94       1.0  0.94458  0.70086  0.57728  1.0000
  H   H1505     1.0  0.88958  0.79834  0.51138  1.0000
  H   H1506     1.0  0.72949  0.95211  0.50737  1.0000
  H   H1507     1.0  0.92000  0.68000  0.55999  1.0000
  H   H1508     1.0  0.52989  0.97862  0.68188  1.0000
  H   H1509     1.0  0.78473  0.79305  0.52029  1.0000
  C   C941      1.0  0.73348  0.97253  0.60366  1.0000
  C   C942      1.0  0.94059  0.77507  0.51638  1.0000
  C   C943      1.0  0.92011  0.78517  0.52126  1.0000
  H   H1510     1.0  0.73386  0.97778  0.56546  1.0000
  C   C944      1.0  0.66952  0.67375  0.63149  1.0000
  C   C945      1.0  0.90547  0.79057  0.50751  1.0000
  C   C946      1.0  0.79143  0.74790  0.51395  1.0000
  H   H1511     1.0  0.91545  0.78869  0.53568  1.0000
  H   H1512     1.0  0.93053  0.71539  0.55265  1.0000
  C   C947      1.0  0.71439  0.95446  0.49898  1.0000
  N   N95       1.0  0.83860  0.89339  0.55723  1.0000
  C   C948      1.0  0.85101  0.87497  0.54954  1.0000
  C   C949      1.0  0.82096  0.89951  0.54469  1.0000
  C   C950      1.0  0.85915  0.91804  0.55763  1.0000
  C   C951      1.0  0.82328  0.88103  0.57710  1.0000
  H   H1513     1.0  0.86478  0.87026  0.55852  1.0000
  H   H1514     1.0  0.86246  0.88343  0.53448  1.0000
  H   H1515     1.0  0.83605  0.85594  0.54938  1.0000
  H   H1516     1.0  0.83142  0.90748  0.52934  1.0000
  H   H1517     1.0  0.80418  0.88164  0.54510  1.0000
  H   H1518     1.0  0.81243  0.91450  0.54945  1.0000
  H   H1519     1.0  0.85043  0.93220  0.56364  1.0000
  H   H1520     1.0  0.87088  0.92808  0.54284  1.0000
  H   H1521     1.0  0.87298  0.91404  0.56681  1.0000
  H   H1522     1.0  0.81244  0.89373  0.58299  1.0000
  H   H1523     1.0  0.83611  0.87729  0.58720  1.0000
  H   H1524     1.0  0.80834  0.86173  0.57751  1.0000
  Fe  Fe191     1.0  0.95826  0.79494  0.55524  1.0000
  C   C952      1.0  0.49390  0.95923  0.70267  1.0000
  H   H1525     1.0  0.95005  0.67968  0.60361  1.0000
  H   H1526     1.0  0.69734  0.92488  0.60846  1.0000
  H   H1527     1.0  0.83897  0.77646  0.49243  1.0000
  H   H1528     1.0  0.95762  0.74331  0.57184  1.0000
  H   H1529     1.0  0.69121  0.68101  0.62632  1.0000
  Fe  Fe192     1.0  0.96554  0.79953  0.59610  1.0000
  H   H1530     1.0  0.72888  0.96109  0.61879  1.0000
  H   H1531     1.0  0.75748  0.76943  0.49990  1.0000
  C   C953      1.0  0.95862  0.70195  0.64413  1.0000
  H   H1532     1.0  0.96224  0.76238  0.49394  1.0000
  H   H1533     1.0  0.59417  0.66891  0.61556  1.0000
  C   C954      1.0  0.70715  0.78724  0.49273  1.0000
  H   H1534     1.0  0.48496  0.94751  0.69297  1.0000
  H   H1535     1.0  0.81890  0.79648  0.51721  1.0000
  N   N96       1.0  0.79798  0.77269  0.49947  1.0000
  C   C955      1.0  0.51933  0.97704  0.69629  1.0000
  C   C956      1.0  0.71753  0.98189  0.57454  1.0000
  C   C957      1.0  0.91187  0.78664  0.48867  1.0000
  C   C958      1.0  0.62336  0.66431  0.59358  1.0000
  H   H1536     1.0  0.93157  0.65914  0.58967  1.0000
  S   S384      1.0  0.97715  0.78026  0.62212  1.0000
  C   C959      1.0  0.77591  0.77185  0.48947  1.0000
  C   C960      1.0  0.51751  0.98945  0.72753  1.0000
