data_image0
_chemical_formula_structural       CH3CHFeHSH3CFeHS2C2H2CNCHCH2CSHCHC2H2SH2CH4C2H2SCHFeHCH2CS2H3NCNC3FeCH2FeH2CH2C2SH2CSHFeH2NSHCH4C2SHFeHSHCFeH2CH2FeC3HS2C4HC4HSC2HC2HC2HSH2SH2FeH4CNH3CH2SCH2NH2SC3H2FeS2FeS2FeSFeS2CH2C2H2SH2SFeSFeCHC5H4NC7H4CH2CH3NH2NH2FeHCH3CH3SH3CHCHCH2C2HC2H2CH6S2H5CHC2HCSH2C4H2CHC2H2CHCH4CHC2HNSCNCHFeH2SCH3CHCH4CHSH6C3H3SFeSHCFeSHS2HFeSH2C6H2CH2NH3CH2CH2CHSCH2CHS3FeS2FeSC2HC2HCHSCNC3H2FeHCS2H2CH4CH2FeH3FeHC3H3CHFeHCFeH5C2H4C5HSH3CHFeHCH2N2HCHSCHCHCH2SHCHCSCSH2CH2CSCHC2H2CHCHCHC2HCHFeC2H2SCHCSHC2HCHCNHSCH2SCNH2CH3CHC2HC3HC2HSH3CH2CHNH2SHFeH7CH2CHCHNC2H2C3HCHSCHCH4CHSHCSCHNHCH3CH4C8SH2SHFeSH3SHCHFeC2HCSHSFe2SH2CNHC2H3CH4CH3SFeSFeSC6H4SFeS3CFeS3FeS4H2C6H4CHCHCFeH2C2HC2HCH2FeH2CSNC4H13FeH2FeH2C4S3H3CHCFeHFeHSC2H2SH2CHCFeHC2H3FeH3SHFeSNH3NC3HCHFeHCHSH2C2H3SC2HCH3CHNH3CSH2CHNHCH3NFeHC2H3SHCSH2FeH3CNSCHSFeS2FeSHFeSFeS3HC6H6FeC6H5CH2CH6C2HC5H4CH6SC3H2CHFeS2CH3NC3H4SH3CH2CFeH5FeS2FeSHCFeHS2FeCHCH3CSHNCHCHCSCHC4HCH2NC3HS2CH2FeH10CH5SFeS3FeSFeSC4SH2C3HC2H3CNH2SH7C2HC2SC3H2C2HNH2C2NHCHCH2C2H9C2H7C2HSFeSHC2HNCH3CH3CH4CH3SHNCSH2SH3SH3CH2C4H2FeCHCH2CHCFeSC2S2CHS2C2H6Fe2H3SH2C2HNH3CS2H2S2H2FeSC2HCHC4H4C3HNCHCFeSHFeS2FeHFeS3Fe2SHSFeS2FeSFeHFeS3HC7H2CSH2C2FeC3SH3C6H5C6H5CH2FeNC4H14S3H2SFeHCS2HCH3C2HCH3NH9CHFeHSH2NCHCH2FeHCH2NH4C2HCSHSHCH3CFeS2FeCFeSCSFeSFeS2FeSFeS3H2C6H4CNC2HC6H4C6H7NC5SH7NH2NC4H6CH3NHCSH3CHCSH13CH4SHSHSHCH4CH2CHC2H2C3H2CHC2HSCNHCHFeHC2H2SHCHSFeHSH3C5SH5CH2CHCH2SNSH4C2FeHC2HSH2CH3C4HFeS2HFeS4HFeSHFeSFeHCFeS2FeSFeSFeS3C4HC6H4C3H4C6H4NC5FeH11CSH3NH2FeH4C2H2NH2SHNC4H11C2H2C5HCHSH2FeS2H3SNSCH6FeS2FeS2FeSFeS3HCH2CNHC6HCH2C6H4CHNH2CH3C2H2CSHCH2NCH4CH8CHC2H8CH3CH3CHCHFeHSFeH2NHSH5SH2C3HCH2NCHSHCH2C2H3CH3CH3SH4CFeS2FeSFeSFeHS2H2CH2FeS2FeS2FeSFeS3C6H4C6HCH2C6H4NH2C7H3CNH2CSC5H4CHCH2SCHCH6CFeHCFeHSH2SH3NHC2H4CHCHCHSH4CNH9C2HC2HNHCH2CH7CHCH2CH2FeNSHSH2FeCHC3FeSCHSH3CFeHSHCFeHC2H5C2SFeHNH5C2SHS3CSH4C3H3SNC3SCH6C2HCH3SHCHCH2CHC2HSFeS2FeS2FeSFeS3C2HCH4CH2C2H2C6H6C5H3CFeC3H2NC2H4CH2CNH2CH2CHCH6NCHC2HSHC3FeH2CH2C3H3NHFeHS2NHFeH3C2H2C2H2C2SHSHFeH4FeC2SHSFeHSHSHC2SH6FeH3CH3
_chemical_formula_sum              "C720 H1152 Fe144 S288 N72"
_cell_length_a       53.4878
_cell_length_b       53.9443
_cell_length_c       55.971
_cell_angle_alpha    88.7715
_cell_angle_beta     91.1259
_cell_angle_gamma    117.144

_space_group_name_H-M_alt    "P 1"
_space_group_IT_number       1

loop_
  _space_group_symop_operation_xyz
  'x, y, z'

loop_
  _atom_site_type_symbol
  _atom_site_label
  _atom_site_symmetry_multiplicity
  _atom_site_fract_x
  _atom_site_fract_y
  _atom_site_fract_z
  _atom_site_occupancy
  C   C1        1.0  0.00758  0.08288  0.04413  1.0000
  H   H1        1.0  0.12693  0.13431  0.99875  1.0000
  H   H2        1.0  0.00407  0.06946  0.00752  1.0000
  H   H3        1.0  0.00293  0.07406  0.22802  1.0000
  C   C2        1.0  0.11148  0.14199  0.00323  1.0000
  H   H4        1.0  0.00118  0.00837  0.08302  1.0000
  Fe  Fe1       1.0  0.26207  0.11653  0.99133  1.0000
  H   H5        1.0  0.42658  0.32835  0.13029  1.0000
  S   S1        1.0  0.23694  0.06941  0.98832  1.0000
  H   H6        1.0  0.11348  0.01631  0.10297  1.0000
  H   H7        1.0  0.25196  0.31756  0.12050  1.0000
  H   H8        1.0  0.19539  0.01209  0.99447  1.0000
  C   C3        1.0  0.26275  0.31964  0.13808  1.0000
  Fe  Fe2       1.0  0.25737  0.17031  0.99695  1.0000
  H   H9        1.0  0.45842  0.28721  0.17899  1.0000
  S   S2        1.0  0.38361  0.31422  0.20355  1.0000
  S   S3        1.0  0.01024  0.09872  0.09132  1.0000
  C   C4        1.0  0.45456  0.30556  0.17552  1.0000
  C   C5        1.0  0.13945  0.12183  0.23439  1.0000
  H   H10       1.0  0.02181  0.05359  0.19809  1.0000
  H   H11       1.0  0.19028  0.03875  0.10311  1.0000
  C   C6        1.0  0.25948  0.31992  0.18099  1.0000
  N   N1        1.0  0.44044  0.30367  0.15215  1.0000
  C   C7        1.0  0.24503  0.19384  0.07991  1.0000
  H   H12       1.0  0.14197  0.04522  0.05714  1.0000
  C   C8        1.0  0.43647  0.32879  0.14810  1.0000
  H   H13       1.0  0.17422  0.04322  0.06132  1.0000
  H   H14       1.0  0.05233  0.04899  0.20536  1.0000
  C   C9        1.0  0.12697  0.03928  0.10285  1.0000
  S   S4        1.0  0.32549  0.32450  0.16554  1.0000
  H   H15       1.0  0.11621  0.04881  0.09150  1.0000
  C   C10       1.0  0.07529  0.09487  0.00939  1.0000
  H   H16       1.0  0.34150  0.19826  0.09549  1.0000
  C   C11       1.0  0.04179  0.06227  0.20860  1.0000
  C   C12       1.0  0.16873  0.03342  0.10929  1.0000
  H   H17       1.0  0.20373  0.28882  0.17169  1.0000
  H   H18       1.0  0.24632  0.31870  0.19655  1.0000
  S   S5        1.0  0.22679  0.18599  0.00680  1.0000
  H   H19       1.0  0.05368  0.07881  0.00480  1.0000
  H   H20       1.0  0.47876  0.32017  0.13222  1.0000
  C   C13       1.0  0.19352  0.00235  0.03226  1.0000
  H   H21       1.0  0.14082  0.15831  0.21667  1.0000
  H   H22       1.0  0.12782  0.04670  0.12142  1.0000
  H   H23       1.0  0.15658  0.01026  0.10910  1.0000
  H   H24       1.0  0.26947  0.30297  0.13942  1.0000
  C   C14       1.0  0.45778  0.30158  0.13280  1.0000
  C   C15       1.0  0.15314  0.03670  0.06910  1.0000
  H   H25       1.0  0.05568  0.08330  0.20100  1.0000
  H   H26       1.0  0.17041  0.04010  0.12817  1.0000
  S   S6        1.0  0.08090  0.13340  0.13041  1.0000
  C   C16       1.0  0.19007  0.13058  0.01208  1.0000
  H   H27       1.0  0.02876  0.08565  0.04674  1.0000
  Fe  Fe3       1.0  0.36553  0.32036  0.16784  1.0000
  H   H28       1.0  0.40137  0.27704  0.13481  1.0000
  C   C17       1.0  0.34968  0.21570  0.08303  1.0000
  H   H29       1.0  0.07643  0.09740  0.02912  1.0000
  H   H30       1.0  0.20022  0.24876  0.09034  1.0000
  C   C18       1.0  0.26316  0.23767  0.05823  1.0000
  S   S7        1.0  0.32159  0.30978  0.10810  1.0000
  S   S8        1.0  0.06823  0.07521  0.10285  1.0000
  H   H31       1.0  0.24748  0.26776  0.10972  1.0000
  H   H32       1.0  0.41481  0.25928  0.15475  1.0000
  H   H33       1.0  0.30461  0.22501  0.04721  1.0000
  N   N2        1.0  0.24432  0.31767  0.15812  1.0000
  C   C19       1.0  0.23504  0.23484  0.13620  1.0000
  N   N3        1.0  0.15535  0.04666  0.09384  1.0000
  C   C20       1.0  0.20387  0.23777  0.10533  1.0000
  C   C21       1.0  0.20360  0.02006  0.01201  1.0000
  C   C22       1.0  0.21871  0.29056  0.15747  1.0000
  Fe  Fe4       1.0  0.09550  0.10036  0.13323  1.0000
  C   C23       1.0  0.06272  0.13232  0.00372  1.0000
  H   H34       1.0  0.11340  0.05776  0.20928  1.0000
  H   H35       1.0  0.46117  0.28280  0.13517  1.0000
  Fe  Fe5       1.0  0.30807  0.28628  0.14288  1.0000
  H   H36       1.0  0.20265  0.12671  0.99921  1.0000
  H   H37       1.0  0.11901  0.13394  0.17894  1.0000
  C   C24       1.0  0.19713  0.15789  0.01869  1.0000
  H   H38       1.0  0.16326  0.08790  0.08257  1.0000
  H   H39       1.0  0.17459  0.08552  0.11252  1.0000
  C   C25       1.0  0.23463  0.05792  0.03710  1.0000
  C   C26       1.0  0.17264  0.07725  0.09416  1.0000
  S   S9        1.0  0.09692  0.07576  0.16595  1.0000
  H   H40       1.0  0.11361  0.14618  0.02273  1.0000
  H   H41       1.0  0.25223  0.24567  0.07019  1.0000
  C   C27       1.0  0.15783  0.14026  0.04582  1.0000
  S   S10       1.0  0.26691  0.24911  0.15265  1.0000
  H   H42       1.0  0.22387  0.27291  0.16028  1.0000
  Fe  Fe6       1.0  0.11726  0.15491  0.10511  1.0000
  H   H43       1.0  0.18639  0.18378  0.04077  1.0000
  H   H44       1.0  0.26556  0.30276  0.18315  1.0000
  N   N4        1.0  0.27075  0.21771  0.07094  1.0000
  S   S11       1.0  0.14795  0.20069  0.10064  1.0000
  H   H45       1.0  0.39922  0.27961  0.16666  1.0000
  C   C28       1.0  0.15022  0.11301  0.03870  1.0000
  H   H46       1.0  0.38018  0.27818  0.03850  1.0000
  H   H47       1.0  0.21628  0.19892  0.15962  1.0000
  H   H48       1.0  0.16075  0.08710  0.01641  1.0000
  H   H49       1.0  0.36052  0.22981  0.02352  1.0000
  C   C29       1.0  0.41274  0.27876  0.15208  1.0000
  C   C30       1.0  0.11464  0.09421  0.19162  1.0000
  S   S12       1.0  0.26293  0.14123  0.02310  1.0000
  H   H50       1.0  0.44747  0.30008  0.11497  1.0000
  Fe  Fe7       1.0  0.10486  0.10176  0.08001  1.0000
  H   H51       1.0  0.25064  0.07921  0.03916  1.0000
  S   S13       1.0  0.13354  0.12354  0.11052  1.0000
  H   H52       1.0  0.23361  0.04797  0.07472  1.0000
  C   C31       1.0  0.23059  0.24860  0.11634  1.0000
  Fe  Fe8       1.0  0.30872  0.16709  0.01545  1.0000
  H   H53       1.0  0.09011  0.08641  0.00490  1.0000
  H   H54       1.0  0.16959  0.17939  0.13959  1.0000
  C   C32       1.0  0.22417  0.04794  0.01430  1.0000
  H   H55       1.0  0.14585  0.14426  0.05911  1.0000
  H   H56       1.0  0.20744  0.28728  0.13996  1.0000
  Fe  Fe9       1.0  0.36214  0.30770  0.11478  1.0000
  C   C33       1.0  0.13502  0.13640  0.21504  1.0000
  C   C34       1.0  0.18171  0.21279  0.11368  1.0000
  C   C35       1.0  0.22495  0.04011  0.05727  1.0000
  H   H57       1.0  0.44154  0.30645  0.19046  1.0000
  S   S14       1.0  0.09085  0.13441  0.07270  1.0000
  S   S15       1.0  0.33605  0.17655  0.04844  1.0000
  C   C36       1.0  0.11946  0.07974  0.21083  1.0000
  C   C37       1.0  0.18086  0.16272  0.03544  1.0000
  C   C38       1.0  0.28505  0.20761  0.05430  1.0000
  C   C39       1.0  0.16637  0.10815  0.02184  1.0000
  H   H58       1.0  0.23334  0.20068  0.09222  1.0000
  C   C40       1.0  0.36030  0.23342  0.04244  1.0000
  C   C41       1.0  0.20432  0.01226  0.05501  1.0000
  C   C42       1.0  0.35986  0.24297  0.09143  1.0000
  C   C43       1.0  0.28987  0.23170  0.09116  1.0000
  H   H59       1.0  0.28210  0.25581  0.05107  1.0000
  S   S16       1.0  0.34681  0.28052  0.14721  1.0000
  C   C44       1.0  0.12268  0.12264  0.19367  1.0000
  C   C45       1.0  0.37105  0.26555  0.07540  1.0000
  H   H60       1.0  0.27978  0.23946  0.10421  1.0000
  C   C46       1.0  0.37139  0.26075  0.05093  1.0000
  C   C47       1.0  0.34974  0.21089  0.05853  1.0000
  H   H61       1.0  0.35960  0.24648  0.11032  1.0000
  C   C48       1.0  0.21302  0.20969  0.14426  1.0000
  C   C49       1.0  0.18654  0.19854  0.13292  1.0000
  H   H62       1.0  0.24878  0.22770  0.04282  1.0000
  S   S17       1.0  0.12018  0.08518  0.05048  1.0000
  H   H63       1.0  0.19419  0.08348  0.08744  1.0000
  H   H64       1.0  0.23050  0.18260  0.06493  1.0000
  S   S18       1.0  0.38573  0.29991  0.08567  1.0000
  H   H65       1.0  0.25006  0.17853  0.08979  1.0000
  H   H66       1.0  0.29622  0.21727  0.10100  1.0000
  Fe  Fe10      1.0  0.05613  0.10970  0.09808  1.0000
  H   H67       1.0  0.27145  0.19727  0.03869  1.0000
  H   H68       1.0  0.30944  0.24985  0.08493  1.0000
  H   H69       1.0  0.29076  0.19216  0.06309  1.0000
  H   H70       1.0  0.06299  0.13506  0.02342  1.0000
  C   C50       1.0  0.13197  0.09354  0.23214  1.0000
  N   N5        1.0  0.08248  0.12158  0.99676  1.0000
  H   H71       1.0  0.47512  0.32464  0.17658  1.0000
  H   H72       1.0  0.03705  0.10353  0.23118  1.0000
  H   H73       1.0  0.14168  0.01354  0.06833  1.0000
  C   C51       1.0  0.99360  0.07371  0.02201  1.0000
  H   H74       1.0  0.04070  0.11786  0.99846  1.0000
  H   H75       1.0  0.11793  0.16230  0.99375  1.0000
  S   S19       1.0  0.30334  0.19835  0.99145  1.0000
  C   C52       1.0  0.99391  0.08816  0.06295  1.0000
  H   H76       1.0  0.99905  0.04056  0.08415  1.0000
  H   H77       1.0  0.06803  0.15287  0.99510  1.0000
  N   N6        1.0  0.03683  0.06362  0.23433  1.0000
  H   H78       1.0  0.99523  0.02052  0.11100  1.0000
  H   H79       1.0  0.99722  0.02643  0.23461  1.0000
  S   S20       1.0  0.08533  0.06056  0.35786  1.0000
  C   C53       1.0  0.05645  0.05824  0.34074  1.0000
  C   C54       1.0  0.05983  0.07818  0.32303  1.0000
  C   C55       1.0  0.03645  0.07617  0.30973  1.0000
  H   H80       1.0  0.08031  0.09560  0.32011  1.0000
  H   H81       1.0  0.26159  0.20267  0.31356  1.0000
  Fe  Fe11      1.0  0.16657  0.06758  0.31464  1.0000
  S   S21       1.0  0.16436  0.07924  0.35244  1.0000
  S   S22       1.0  0.17658  0.03306  0.30458  1.0000
  Fe  Fe12      1.0  0.15471  0.11365  0.29339  1.0000
  S   S23       1.0  0.15059  0.12852  0.32959  1.0000
  S   S24       1.0  0.15336  0.13927  0.26140  1.0000
  Fe  Fe13      1.0  0.18909  0.12367  0.33977  1.0000
  S   S25       1.0  0.22976  0.16000  0.35245  1.0000
  Fe  Fe14      1.0  0.12633  0.08295  0.33868  1.0000
  S   S26       1.0  0.19444  0.11136  0.30284  1.0000
  S   S27       1.0  0.12711  0.06848  0.30160  1.0000
  C   C56       1.0  0.22124  0.05192  0.35627  1.0000
  H   H82       1.0  0.45291  0.29560  0.42757  1.0000
  H   H83       1.0  0.01909  0.08316  0.25691  1.0000
  C   C57       1.0  0.00670  0.03328  0.33060  1.0000
  C   C58       1.0  0.00993  0.05349  0.31321  1.0000
  H   H84       1.0  0.22418  0.06025  0.40357  1.0000
  H   H85       1.0  0.44677  0.29709  0.38377  1.0000
  S   S28       1.0  0.36795  0.23612  0.44020  1.0000
  H   H86       1.0  0.20993  0.18621  0.25072  1.0000
  H   H87       1.0  0.40245  0.29991  0.24743  1.0000
  S   S29       1.0  0.32971  0.26003  0.46994  1.0000
  Fe  Fe15      1.0  0.32991  0.21895  0.46377  1.0000
  S   S30       1.0  0.28989  0.17960  0.45485  1.0000
  Fe  Fe16      1.0  0.36928  0.27722  0.44840  1.0000
  C   C59       1.0  0.26781  0.07647  0.37345  1.0000
  H   H88       1.0  0.01451  0.03565  0.26311  1.0000
  C   C60       1.0  0.44684  0.22095  0.46726  1.0000
  C   C61       1.0  0.43079  0.20139  0.45012  1.0000
  C   C62       1.0  0.44206  0.18579  0.43862  1.0000
  C   C63       1.0  0.46938  0.18977  0.44413  1.0000
  C   C64       1.0  0.41113  0.32658  0.40940  1.0000
  H   H89       1.0  0.20849  0.07996  0.38932  1.0000
  H   H90       1.0  0.40970  0.19813  0.44586  1.0000
  H   H91       1.0  0.42958  0.17056  0.42545  1.0000
  H   H92       1.0  0.27442  0.19750  0.28553  1.0000
  N   N7        1.0  0.24089  0.07734  0.36898  1.0000
  C   C65       1.0  0.46392  0.24582  0.40032  1.0000
  C   C66       1.0  0.24560  0.16518  0.38128  1.0000
  C   C67       1.0  0.27176  0.18849  0.38494  1.0000
  C   C68       1.0  0.28542  0.19327  0.40740  1.0000
  C   C69       1.0  0.27311  0.17464  0.42642  1.0000
  C   C70       1.0  0.24695  0.15123  0.42273  1.0000
  C   C71       1.0  0.23316  0.14658  0.40030  1.0000
  H   H93       1.0  0.28156  0.20305  0.37037  1.0000
  H   H94       1.0  0.30551  0.21136  0.40998  1.0000
  H   H95       1.0  0.23718  0.13686  0.43743  1.0000
  H   H96       1.0  0.21282  0.12883  0.39784  1.0000
  C   C72       1.0  0.44681  0.27655  0.38292  1.0000
  H   H97       1.0  0.47773  0.24291  0.41409  1.0000
  H   H98       1.0  0.20054  0.05161  0.35297  1.0000
  C   C73       1.0  0.24704  0.22811  0.27776  1.0000
  H   H99       1.0  0.26059  0.12182  0.36328  1.0000
  H   H100      1.0  0.26590  0.23483  0.26632  1.0000
  H   H101      1.0  0.19951  0.16745  0.30288  1.0000
  N   N8        1.0  0.23440  0.19795  0.28330  1.0000
  H   H102      1.0  0.07859  0.09625  0.24086  1.0000
  H   H103      1.0  0.24306  0.09765  0.40220  1.0000
  N   N9        1.0  0.46440  0.27331  0.40222  1.0000
  H   H104      1.0  0.33733  0.31802  0.44924  1.0000
  H   H105      1.0  0.48665  0.23993  0.48603  1.0000
  Fe  Fe17      1.0  0.39289  0.24231  0.47430  1.0000
  H   H106      1.0  0.25371  0.24062  0.29437  1.0000
  C   C74       1.0  0.22587  0.18212  0.26082  1.0000
  H   H107      1.0  0.19310  0.19420  0.28919  1.0000
  H   H108      1.0  0.24629  0.16889  0.30059  1.0000
  H   H109      1.0  0.47118  0.24331  0.38247  1.0000
  C   C75       1.0  0.20948  0.19003  0.29842  1.0000
  H   H110      1.0  0.46654  0.27352  0.44058  1.0000
  H   H111      1.0  0.28315  0.09544  0.38294  1.0000
  H   H112      1.0  0.02690  0.02084  0.35869  1.0000
  S   S31       1.0  0.37616  0.30848  0.41887  1.0000
  H   H113      1.0  0.14672  0.01789  0.34930  1.0000
  H   H114      1.0  0.03896  0.09231  0.29683  1.0000
  H   H115      1.0  0.27759  0.07525  0.35642  1.0000
  C   C76       1.0  0.41978  0.31866  0.24061  1.0000
  H   H116      1.0  0.45472  0.27520  0.36495  1.0000
  C   C77       1.0  0.25516  0.19154  0.29624  1.0000
  H   H117      1.0  0.44234  0.22854  0.40271  1.0000
  C   C78       1.0  0.47408  0.22485  0.47279  1.0000
  H   H118      1.0  0.26481  0.05805  0.38468  1.0000
  H   H119      1.0  0.23183  0.23360  0.26805  1.0000
  C   C79       1.0  0.45337  0.27535  0.42568  1.0000
  C   C80       1.0  0.15342  0.00063  0.31712  1.0000
  H   H120      1.0  0.06121  0.07635  0.26687  1.0000
  C   C81       1.0  0.02977  0.03602  0.34472  1.0000
  C   C82       1.0  0.24596  0.10220  0.35420  1.0000
  H   H121      1.0  0.21505  0.20127  0.31570  1.0000
  H   H122      1.0  0.43159  0.25853  0.42834  1.0000
  C   C83       1.0  0.22863  0.07883  0.39203  1.0000
  H   H123      1.0  0.22936  0.05041  0.33846  1.0000
  H   H124      1.0  0.42459  0.26020  0.38417  1.0000
  H   H125      1.0  0.22615  0.10360  0.35056  1.0000
  H   H126      1.0  0.21721  0.03265  0.36663  1.0000
  H   H127      1.0  0.25506  0.10178  0.33660  1.0000
  H   H128      1.0  0.21606  0.15923  0.26437  1.0000
  S   S32       1.0  0.39744  0.28512  0.48031  1.0000
  S   S33       1.0  0.48328  0.17036  0.42917  1.0000
  H   H129      1.0  0.44774  0.32088  0.26995  1.0000
  H   H130      1.0  0.39978  0.32516  0.37211  1.0000
  H   H131      1.0  0.07457  0.06155  0.24534  1.0000
  H   H132      1.0  0.06791  0.00998  0.32632  1.0000
  H   H133      1.0  0.24407  0.18752  0.24889  1.0000
  C   C84       1.0  0.01820  0.03536  0.24362  1.0000
  H   H134      1.0  0.13555  0.08221  0.24688  1.0000
  C   C85       1.0  0.06396  0.07494  0.24742  1.0000
  C   C86       1.0  0.48527  0.20930  0.46133  1.0000
  H   H135      1.0  0.05576  0.99709  0.35586  1.0000
  C   C87       1.0  0.14183  0.99909  0.33961  1.0000
  S   S34       1.0  0.43422  0.24144  0.48210  1.0000
  H   H136      1.0  0.32279  0.31591  0.47827  1.0000
  H   H137      1.0  0.02738  0.02082  0.24096  1.0000
  C   C88       1.0  0.02343  0.08194  0.23771  1.0000
  C   C89       1.0  0.31552  0.28917  0.64210  1.0000
  C   C90       1.0  0.29091  0.26308  0.60730  1.0000
  C   C91       1.0  0.29816  0.30260  0.70984  1.0000
  H   H138      1.0  0.41974  0.24088  0.52989  1.0000
  H   H139      1.0  0.47091  0.29338  0.54700  1.0000
  C   C92       1.0  0.45940  0.22613  0.54452  1.0000
  H   H140      1.0  0.32320  0.27375  0.64712  1.0000
  C   C93       1.0  0.47374  0.27538  0.54081  1.0000
  C   C94       1.0  0.42531  0.24347  0.54924  1.0000
  H   H141      1.0  0.29430  0.31429  0.61239  1.0000
  H   H142      1.0  0.27052  0.25259  0.59747  1.0000
  C   C95       1.0  0.46374  0.30962  0.73252  1.0000
  H   H143      1.0  0.26474  0.26333  0.66217  1.0000
  C   C96       1.0  0.34858  0.30452  0.55071  1.0000
  H   H144      1.0  0.33179  0.30562  0.63079  1.0000
  H   H145      1.0  0.26523  0.26038  0.71161  1.0000
  H   H146      1.0  0.27365  0.23786  0.65019  1.0000
  H   H147      1.0  0.31411  0.29918  0.65888  1.0000
  C   C97       1.0  0.33982  0.31209  0.73398  1.0000
  H   H148      1.0  0.31983  0.29978  0.52174  1.0000
  C   C98       1.0  0.32831  0.30974  0.53861  1.0000
  C   C99       1.0  0.27863  0.29710  0.62349  1.0000
  H   H149      1.0  0.25839  0.28810  0.61336  1.0000
  N   N10       1.0  0.28807  0.27587  0.62952  1.0000
  S   S35       1.0  0.36147  0.28217  0.53918  1.0000
  C   C100      1.0  0.35872  0.31698  0.57301  1.0000
  N   N11       1.0  0.45489  0.24936  0.55350  1.0000
  C   C101      1.0  0.26721  0.25422  0.64521  1.0000
  H   H150      1.0  0.27548  0.30666  0.63983  1.0000
  Fe  Fe18      1.0  0.35794  0.26460  0.50172  1.0000
  H   H151      1.0  0.42120  0.26069  0.55557  1.0000
  H   H152      1.0  0.30612  0.27901  0.59491  1.0000
  S   S36       1.0  0.35494  0.22186  0.49763  1.0000
  C   C102      1.0  0.46630  0.29952  0.71020  1.0000
  H   H153      1.0  0.44756  0.28557  0.70053  1.0000
  H   H154      1.0  0.41048  0.22394  0.55850  1.0000
  H   H155      1.0  0.36851  0.32618  0.49672  1.0000
  C   C103      1.0  0.32517  0.32127  0.71779  1.0000
  H   H156      1.0  0.44566  0.20611  0.55369  1.0000
  C   C104      1.0  0.28610  0.27484  0.71763  1.0000
  H   H157      1.0  0.44737  0.23325  0.58956  1.0000
  H   H158      1.0  0.24615  0.24393  0.63644  1.0000
  H   H159      1.0  0.45831  0.27003  0.58676  1.0000
  H   H160      1.0  0.29853  0.24731  0.61105  1.0000
  C   C105      1.0  0.46120  0.25250  0.57942  1.0000
  H   H161      1.0  0.37440  0.31307  0.58253  1.0000
  S   S37       1.0  0.27878  0.31289  0.68992  1.0000
  H   H162      1.0  0.48230  0.25527  0.72219  1.0000
  H   H163      1.0  0.48331  0.25685  0.58331  1.0000
  H   H164      1.0  0.45472  0.22313  0.52501  1.0000
  H   H165      1.0  0.46961  0.27362  0.52118  1.0000
  H   H166      1.0  0.48779  0.20623  0.70113  1.0000
  H   H167      1.0  0.48161  0.23008  0.54732  1.0000
  C   C106      1.0  0.30093  0.26557  0.73319  1.0000
  C   C107      1.0  0.48893  0.24251  0.73415  1.0000
  C   C108      1.0  0.31861  0.32754  0.54860  1.0000
  H   H168      1.0  0.47040  0.22174  0.73634  1.0000
  H   H169      1.0  0.35249  0.23286  0.94261  1.0000
  H   H170      1.0  0.24972  0.08646  0.92749  1.0000
  S   S38       1.0  0.25247  0.14371  0.96552  1.0000
  Fe  Fe19      1.0  0.38051  0.30091  0.78382  1.0000
  S   S39       1.0  0.30869  0.14002  0.98547  1.0000
  H   H171      1.0  0.30010  0.06465  0.90106  1.0000
  C   C109      1.0  0.28932  0.07417  0.94573  1.0000
  Fe  Fe20      1.0  0.40483  0.30622  0.83419  1.0000
  S   S40       1.0  0.40047  0.29337  0.87381  1.0000
  H   H172      1.0  0.33657  0.10651  0.92131  1.0000
  S   S41       1.0  0.41018  0.28642  0.80083  1.0000
  S   S42       1.0  0.37277  0.31751  0.81772  1.0000
  H   H173      1.0  0.05883  0.10170  0.96521  1.0000
  Fe  Fe21      1.0  0.29939  0.16924  0.96163  1.0000
  S   S43       1.0  0.31487  0.17787  0.92303  1.0000
  H   H174      1.0  0.28704  0.08629  0.88605  1.0000
  H   H175      1.0  0.38586  0.27710  0.92286  1.0000
  C   C110      1.0  0.37547  0.26143  0.88700  1.0000
  C   C111      1.0  0.35872  0.23809  0.87333  1.0000
  C   C112      1.0  0.34014  0.21283  0.88464  1.0000
  C   C113      1.0  0.33764  0.21067  0.90969  1.0000
  C   C114      1.0  0.35399  0.23418  0.92334  1.0000
  C   C115      1.0  0.37292  0.25930  0.91205  1.0000
  H   H176      1.0  0.36044  0.23932  0.85407  1.0000
  H   H177      1.0  0.32766  0.19484  0.87386  1.0000
  C   C116      1.0  0.28537  0.07387  0.90265  1.0000
  H   H178      1.0  0.32310  0.12812  0.90665  1.0000
  H   H179      1.0  0.29381  0.08666  0.96226  1.0000
  N   N12       1.0  0.29182  0.09134  0.92408  1.0000
  H   H180      1.0  0.32622  0.12805  0.93839  1.0000
  H   H181      1.0  0.09517  0.10904  0.96489  1.0000
  H   H182      1.0  0.26762  0.05685  0.94768  1.0000
  C   C117      1.0  0.32071  0.11437  0.92250  1.0000
  H   H183      1.0  0.27280  0.11607  0.90941  1.0000
  H   H184      1.0  0.30414  0.06495  0.94546  1.0000
  C   C118      1.0  0.27175  0.10303  0.92544  1.0000
  H   H185      1.0  0.27666  0.11676  0.94106  1.0000
  H   H186      1.0  0.26363  0.05643  0.90328  1.0000
  C   C119      1.0  0.08046  0.11710  0.97069  1.0000
  H   H187      1.0  0.08570  0.13681  0.96056  1.0000
  S   S44       1.0  0.34523  0.27103  0.76093  1.0000
  C   C120      1.0  0.32766  0.28411  0.74159  1.0000
  H   H188      1.0  0.29151  0.24398  0.73903  1.0000
  H   H189      1.0  0.44315  0.30350  0.73990  1.0000
  C   C121      1.0  0.48779  0.32738  0.74530  1.0000
  H   H190      1.0  0.36057  0.32641  0.74026  1.0000
  S   S45       1.0  0.18042  0.63514  0.01042  1.0000
  S   S46       1.0  0.27175  0.57615  0.02967  1.0000
  S   S47       1.0  0.26151  0.64186  0.01292  1.0000
  Fe  Fe22      1.0  0.06651  0.63722  0.16741  1.0000
  S   S48       1.0  0.06825  0.61443  0.13499  1.0000
  S   S49       1.0  0.06316  0.62190  0.20632  1.0000
  Fe  Fe23      1.0  0.04344  0.63342  0.11631  1.0000
  S   S50       1.0  0.14550  0.65020  0.11565  1.0000
  C   C122      1.0  0.04085  0.58892  0.21951  1.0000
  C   C123      1.0  0.02516  0.56526  0.20584  1.0000
  H   H191      1.0  0.02558  0.56694  0.18653  1.0000
  C   C124      1.0  0.28027  0.55317  0.01408  1.0000
  C   C125      1.0  0.30083  0.54639  0.02350  1.0000
  H   H192      1.0  0.31044  0.55435  0.04067  1.0000
  C   C126      1.0  0.17098  0.63884  0.03993  1.0000
  H   H193      1.0  0.30956  0.41199  0.04841  1.0000
  S   S51       1.0  0.00517  0.60381  0.09586  1.0000
  C   C127      1.0  0.18696  0.63861  0.05995  1.0000
  N   N13       1.0  0.12280  0.59521  0.17650  1.0000
  C   C128      1.0  0.09379  0.57851  0.18511  1.0000
  C   C129      1.0  0.13057  0.62514  0.17823  1.0000
  C   C130      1.0  0.12455  0.58846  0.15130  1.0000
  H   H194      1.0  0.22484  0.33932  0.13895  1.0000
  H   H195      1.0  0.38193  0.62053  0.00383  1.0000
  Fe  Fe24      1.0  0.25417  0.59817  0.00542  1.0000
  H   H196      1.0  0.32608  0.52566  0.01767  1.0000
  C   C131      1.0  0.14235  0.58888  0.19137  1.0000
  S   S52       1.0  0.03863  0.65318  0.14960  1.0000
  S   S53       1.0  0.20874  0.58235  0.99552  1.0000
  H   H197      1.0  0.11008  0.59304  0.13955  1.0000
  H   H198      1.0  0.13427  0.64257  0.02791  1.0000
  C   C132      1.0  0.30962  0.52994  0.01049  1.0000
  H   H199      1.0  0.48208  0.38564  0.21657  1.0000
  H   H200      1.0  0.35112  0.59280  0.01641  1.0000
  H   H201      1.0  0.11900  0.56609  0.14918  1.0000
  H   H202      1.0  0.35878  0.62048  0.06588  1.0000
  C   C133      1.0  0.34185  0.63716  0.01108  1.0000
  H   H203      1.0  0.19152  0.64216  0.09834  1.0000
  H   H204      1.0  0.45678  0.34817  0.14879  1.0000
  Fe  Fe25      1.0  0.39070  0.48644  0.00455  1.0000
  H   H205      1.0  0.28213  0.38788  0.02970  1.0000
  H   H206      1.0  0.14160  0.59394  0.21045  1.0000
  H   H207      1.0  0.15233  0.63854  0.17190  1.0000
  Fe  Fe26      1.0  0.10582  0.65395  0.12404  1.0000
  H   H208      1.0  0.16441  0.60117  0.18528  1.0000
  C   C134      1.0  0.31409  0.43483  0.00493  1.0000
  C   C135      1.0  0.29679  0.51880  0.98862  1.0000
  C   C136      1.0  0.36943  0.61310  0.02046  1.0000
  H   H209      1.0  0.02604  0.65507  0.06668  1.0000
  H   H210      1.0  0.47261  0.59866  0.99598  1.0000
  H   H211      1.0  0.33501  0.44082  0.01345  1.0000
  C   C137      1.0  0.43895  0.35510  0.21053  1.0000
  H   H212      1.0  0.25545  0.36130  0.15615  1.0000
  Fe  Fe27      1.0  0.34188  0.34798  0.13077  1.0000
  H   H213      1.0  0.27383  0.40467  0.05357  1.0000
  C   C138      1.0  0.44875  0.64489  0.01064  1.0000
  Fe  Fe28      1.0  0.40696  0.54869  0.00183  1.0000
  H   H214      1.0  0.09170  0.58323  0.20405  1.0000
  H   H215      1.0  0.33381  0.65157  0.01741  1.0000
  H   H216      1.0  0.20566  0.63601  0.05767  1.0000
  H   H217      1.0  0.11651  0.63053  0.16688  1.0000
  H   H218      1.0  0.43659  0.36502  0.19425  1.0000
  C   C139      1.0  0.46472  0.36682  0.22328  1.0000
  C   C140      1.0  0.15470  0.64566  0.08630  1.0000
  H   H219      1.0  0.31654  0.45153  0.99180  1.0000
  H   H220      1.0  0.36256  0.37214  0.08170  1.0000
  H   H221      1.0  0.33789  0.63806  0.05863  1.0000
  H   H222      1.0  0.32640  0.60295  0.04951  1.0000
  C   C141      1.0  0.00510  0.64093  0.06062  1.0000
  C   C142      1.0  0.37534  0.43166  0.05004  1.0000
  C   C143      1.0  0.13860  0.64562  0.06629  1.0000
  C   C144      1.0  0.00931  0.53918  0.21717  1.0000
  C   C145      1.0  0.30184  0.45687  0.03651  1.0000
  H   H223      1.0  0.13702  0.56641  0.19057  1.0000
  S   S54       1.0  0.38360  0.34757  0.13518  1.0000
  H   H224      1.0  0.14604  0.60118  0.14406  1.0000
  H   H225      1.0  0.99770  0.52094  0.20639  1.0000
  H   H226      1.0  0.22282  0.34003  0.17093  1.0000
  C   C146      1.0  0.17888  0.64208  0.08300  1.0000
  H   H227      1.0  0.28620  0.45484  0.05022  1.0000
  Fe  Fe29      1.0  0.21676  0.62676  0.99976  1.0000
  H   H228      1.0  0.27914  0.33998  0.18201  1.0000
  C   C147      1.0  0.36410  0.44342  0.06606  1.0000
  H   H229      1.0  0.34339  0.43848  0.09993  1.0000
  H   H230      1.0  0.11997  0.64836  0.06854  1.0000
  N   N14       1.0  0.36053  0.63352  0.02910  1.0000
  N   N15       1.0  0.29270  0.43093  0.02290  1.0000
  H   H231      1.0  0.38344  0.39672  0.04374  1.0000
  C   C148      1.0  0.35190  0.42923  0.08756  1.0000
  H   H232      1.0  0.24900  0.42124  0.02363  1.0000
  S   S55       1.0  0.33554  0.38570  0.12035  1.0000
  C   C149      1.0  0.44918  0.61928  0.00846  1.0000
  H   H233      1.0  0.08697  0.55576  0.18398  1.0000
  C   C150      1.0  0.35128  0.40343  0.09339  1.0000
  H   H234      1.0  0.30851  0.41548  0.99475  1.0000
  C   C151      1.0  0.34530  0.62334  0.05181  1.0000
  H   H235      1.0  0.43177  0.64593  0.01990  1.0000
  H   H236      1.0  0.12876  0.63102  0.19684  1.0000
  S   S56       1.0  0.36985  0.51146  0.01722  1.0000
  H   H237      1.0  0.36523  0.46359  0.06205  1.0000
  C   C152      1.0  0.36276  0.39190  0.07745  1.0000
  H   H238      1.0  0.38263  0.60898  0.03403  1.0000
  C   C153      1.0  0.37461  0.40590  0.05590  1.0000
  S   S57       1.0  0.42185  0.58931  0.02116  1.0000
  C   C154      1.0  0.23648  0.34059  0.15596  1.0000
  S   S58       1.0  0.39015  0.44788  0.02237  1.0000
  H   H239      1.0  0.32223  0.46259  0.04590  1.0000
  H   H240      1.0  0.30470  0.47466  0.02448  1.0000
  C   C155      1.0  0.26571  0.42436  0.01064  1.0000
  H   H241      1.0  0.07852  0.58307  0.17449  1.0000
  H   H242      1.0  0.32315  0.61702  0.00712  1.0000
  C   C156      1.0  0.14677  0.64232  0.04325  1.0000
  S   S59       1.0  0.42986  0.52419  0.99244  1.0000
  C   C157      1.0  0.28931  0.40784  0.03937  1.0000
  H   H243      1.0  0.28218  0.33997  0.13787  1.0000
  C   C158      1.0  0.26740  0.54213  0.99215  1.0000
  C   C159      1.0  0.47179  0.61828  0.99712  1.0000
  H   H244      1.0  0.25833  0.40511  0.99990  1.0000
  H   H245      1.0  0.35290  0.64579  0.99394  1.0000
  C   C160      1.0  0.99250  0.64831  0.04116  1.0000
  H   H246      1.0  0.26776  0.44161  0.99817  1.0000
  C   C161      1.0  0.41632  0.33085  0.21912  1.0000
  H   H247      1.0  0.40028  0.65840  0.04642  1.0000
  C   C162      1.0  0.38559  0.66047  0.03312  1.0000
  H   H248      1.0  0.42266  0.33046  0.16193  1.0000
  C   C163      1.0  0.02363  0.56026  0.25593  1.0000
  C   C164      1.0  0.03775  0.56426  0.37494  1.0000
  H   H249      1.0  0.04189  0.55856  0.35758  1.0000
  C   C165      1.0  0.02759  0.57903  0.42006  1.0000
  H   H250      1.0  0.02332  0.58445  0.43741  1.0000
  Fe  Fe30      1.0  0.04162  0.64613  0.44029  1.0000
  C   C166      1.0  0.04685  0.59953  0.40493  1.0000
  C   C167      1.0  0.05183  0.59212  0.38232  1.0000
  H   H251      1.0  0.05208  0.60433  0.25537  1.0000
  H   H252      1.0  0.06671  0.60789  0.37053  1.0000
  S   S60       1.0  0.06576  0.63414  0.41457  1.0000
  C   C168      1.0  0.01949  0.54363  0.39056  1.0000
  H   H253      1.0  0.02335  0.55855  0.27523  1.0000
  C   C169      1.0  0.01445  0.55108  0.41311  1.0000
  S   S61       1.0  0.02420  0.62186  0.47399  1.0000
  H   H254      1.0  0.09363  0.60418  0.44459  1.0000
  C   C170      1.0  0.11030  0.65258  0.46688  1.0000
  C   C171      1.0  0.03992  0.58622  0.24460  1.0000
  H   H255      1.0  0.06566  0.60208  0.46272  1.0000
  C   C172      1.0  0.08663  0.60253  0.46345  1.0000
  H   H256      1.0  0.32010  0.33885  0.45573  1.0000
  C   C173      1.0  0.00844  0.53648  0.24227  1.0000
  N   N16       1.0  0.10680  0.62605  0.47789  1.0000
  H   H257      1.0  0.08373  0.58210  0.47087  1.0000
  S   S62       1.0  0.00175  0.64666  0.42802  1.0000
  C   C174      1.0  0.13422  0.62559  0.47869  1.0000
  H   H258      1.0  0.14281  0.62736  0.46041  1.0000
  H   H259      1.0  0.11789  0.65496  0.44816  1.0000
  S   S63       1.0  0.00398  0.50826  0.38301  1.0000
  C   C175      1.0  0.41688  0.33237  0.38502  1.0000
  N   N17       1.0  0.36124  0.35316  0.47166  1.0000
  H   H260      1.0  0.42897  0.33210  0.44489  1.0000
  H   H261      1.0  0.08999  0.65356  0.46599  1.0000
  C   C176      1.0  0.33416  0.33053  0.46339  1.0000
  H   H262      1.0  0.36291  0.38125  0.44314  1.0000
  H   H263      1.0  0.44906  0.35166  0.35839  1.0000
  H   H264      1.0  0.00039  0.53516  0.42525  1.0000
  C   C177      1.0  0.46102  0.35186  0.41834  1.0000
  H   H265      1.0  0.37978  0.36007  0.43682  1.0000
  C   C178      1.0  0.46812  0.35467  0.24484  1.0000
  C   C179      1.0  0.43325  0.33618  0.42605  1.0000
  H   H266      1.0  0.39639  0.38885  0.45671  1.0000
  C   C180      1.0  0.37571  0.37171  0.45122  1.0000
  C   C181      1.0  0.46681  0.35726  0.39394  1.0000
  C   C182      1.0  0.44473  0.34731  0.37725  1.0000
  H   H267      1.0  0.47806  0.35968  0.43129  1.0000
  C   C183      1.0  0.37903  0.34100  0.48169  1.0000
  C   C184      1.0  0.44546  0.33048  0.25343  1.0000
  H   H268      1.0  0.34255  0.37861  0.48340  1.0000
  S   S64       1.0  0.48465  0.33006  0.32516  1.0000
  H   H269      1.0  0.38384  0.32941  0.46782  1.0000
  H   H270      1.0  0.13238  0.60589  0.48698  1.0000
  H   H271      1.0  0.03070  0.57813  0.70957  1.0000
  C   C185      1.0  0.02191  0.57623  0.69114  1.0000
  H   H272      1.0  0.02860  0.59784  0.68428  1.0000
  H   H273      1.0  0.03186  0.56648  0.67992  1.0000
  C   C186      1.0  0.06991  0.65356  0.72335  1.0000
  H   H274      1.0  0.16333  0.40416  0.73558  1.0000
  N   N18       1.0  0.16273  0.44376  0.73328  1.0000
  H   H275      1.0  0.06175  0.64925  0.68540  1.0000
  H   H276      1.0  0.48330  0.42306  0.68992  1.0000
  S   S65       1.0  0.03498  0.63058  0.73067  1.0000
  H   H277      1.0  0.32283  0.50609  0.73022  1.0000
  Fe  Fe31      1.0  0.18589  0.65597  0.65336  1.0000
  H   H278      1.0  0.11039  0.56680  0.72548  1.0000
  H   H279      1.0  0.23446  0.65087  0.66747  1.0000
  H   H280      1.0  0.45910  0.43097  0.73648  1.0000
  H   H281      1.0  0.15000  0.64317  0.48936  1.0000
  H   H282      1.0  0.09293  0.61314  0.73418  1.0000
  H   H283      1.0  0.39961  0.42697  0.73306  1.0000
  H   H284      1.0  0.35067  0.39009  0.73226  1.0000
  C   C187      1.0  0.46125  0.37397  0.71368  1.0000
  H   H285      1.0  0.44591  0.51773  0.72557  1.0000
  H   H286      1.0  0.11136  0.64032  0.51411  1.0000
  C   C188      1.0  0.16858  0.46625  0.71539  1.0000
  H   H287      1.0  0.44629  0.35791  0.72611  1.0000
  C   C189      1.0  0.07740  0.65905  0.69924  1.0000
  H   H288      1.0  0.10247  0.58633  0.70265  1.0000
  N   N19       1.0  0.33531  0.54281  0.70804  1.0000
  C   C190      1.0  0.42955  0.50581  0.71283  1.0000
  C   C191      1.0  0.09610  0.62356  0.50246  1.0000
  H   H289      1.0  0.09209  0.60328  0.51099  1.0000
  H   H290      1.0  0.30336  0.50820  0.68941  1.0000
  C   C192      1.0  0.24684  0.60949  0.70793  1.0000
  C   C193      1.0  0.40497  0.46397  0.68924  1.0000
  C   C194      1.0  0.36125  0.56839  0.70225  1.0000
  H   H291      1.0  0.29555  0.53141  0.72466  1.0000
  C   C195      1.0  0.11944  0.58628  0.71443  1.0000
  H   H292      1.0  0.34546  0.35595  0.50599  1.0000
  S   S66       1.0  0.31636  0.36275  0.58243  1.0000
  C   C196      1.0  0.20287  0.61150  0.68106  1.0000
  H   H293      1.0  0.07604  0.62514  0.50268  1.0000
  C   C197      1.0  0.32895  0.34020  0.57080  1.0000
  H   H294      1.0  0.37270  0.57926  0.71870  1.0000
  H   H295      1.0  0.33722  0.52196  0.67627  1.0000
  H   H296      1.0  0.30936  0.56383  0.70823  1.0000
  H   H297      1.0  0.18984  0.42958  0.71681  1.0000
  C   C198      1.0  0.45064  0.40983  0.72862  1.0000
  H   H298      1.0  0.43921  0.41008  0.71179  1.0000
  S   S67       1.0  0.41455  0.54832  0.71327  1.0000
  H   H299      1.0  0.35667  0.58326  0.69122  1.0000
  C   C199      1.0  0.21935  0.58816  0.71011  1.0000
  S   S68       1.0  0.27428  0.60738  0.72419  1.0000
  C   C200      1.0  0.14369  0.63655  0.71424  1.0000
  H   H300      1.0  0.30285  0.33140  0.53917  1.0000
  N   N20       1.0  0.13189  0.61125  0.72957  1.0000
  H   H301      1.0  0.44970  0.37297  0.69667  1.0000
  C   C201      1.0  0.32259  0.52782  0.68573  1.0000
  H   H302      1.0  0.37603  0.56353  0.69194  1.0000
  H   H303      1.0  0.31676  0.54065  0.67317  1.0000
  H   H304      1.0  0.47788  0.36762  0.70984  1.0000
  C   C202      1.0  0.27968  0.45072  0.73216  1.0000
  H   H305      1.0  0.27339  0.64894  0.69106  1.0000
  H   H306      1.0  0.29492  0.42835  0.70997  1.0000
  H   H307      1.0  0.24213  0.48379  0.71224  1.0000
  H   H308      1.0  0.13550  0.58530  0.70264  1.0000
  C   C203      1.0  0.34902  0.33475  0.58300  1.0000
  C   C204      1.0  0.31528  0.55031  0.71990  1.0000
  C   C205      1.0  0.25223  0.63227  0.69271  1.0000
  C   C206      1.0  0.25629  0.46028  0.69019  1.0000
  C   C207      1.0  0.19751  0.58894  0.69646  1.0000
  C   C208      1.0  0.27171  0.44504  0.68924  1.0000
  C   C209      1.0  0.23018  0.63340  0.67942  1.0000
  C   C210      1.0  0.41165  0.51629  0.70367  1.0000
  S   S69       1.0  0.28079  0.36489  0.64145  1.0000
  H   H309      1.0  0.44045  0.47195  0.71242  1.0000
  H   H310      1.0  0.37690  0.50871  0.67980  1.0000
  S   S70       1.0  0.27704  0.43351  0.66124  1.0000
  H   H311      1.0  0.15454  0.45852  0.69945  1.0000
  Fe  Fe32      1.0  0.30086  0.40788  0.65702  1.0000
  S   S71       1.0  0.31947  0.39552  0.68843  1.0000
  H   H312      1.0  0.21480  0.57080  0.72211  1.0000
  H   H313      1.0  0.37029  0.46234  0.66796  1.0000
  H   H314      1.0  0.19063  0.47533  0.70906  1.0000
  S   S72       1.0  0.39906  0.43014  0.68205  1.0000
  H   H315      1.0  0.33461  0.34270  0.71160  1.0000
  C   C211      1.0  0.25328  0.47141  0.71190  1.0000
  H   H316      1.0  0.37612  0.38657  0.49689  1.0000
  Fe  Fe33      1.0  0.30270  0.35394  0.67122  1.0000
  C   C212      1.0  0.39059  0.50066  0.68719  1.0000
  C   C213      1.0  0.38701  0.47442  0.68027  1.0000
  H   H317      1.0  0.17644  0.57204  0.69788  1.0000
  C   C214      1.0  0.28322  0.44017  0.71040  1.0000
  S   S73       1.0  0.34136  0.36339  0.65035  1.0000
  H   H318      1.0  0.24733  0.46413  0.67388  1.0000
  S   S74       1.0  0.33908  0.42155  0.63376  1.0000
  Fe  Fe34      1.0  0.35644  0.40657  0.66466  1.0000
  Fe  Fe35      1.0  0.32077  0.37707  0.62119  1.0000
  S   S75       1.0  0.17510  0.61217  0.66436  1.0000
  H   H319      1.0  0.16045  0.63693  0.70259  1.0000
  H   H320      1.0  0.35744  0.34463  0.59993  1.0000
  C   C215      1.0  0.42646  0.47985  0.70536  1.0000
  N   N21       1.0  0.47333  0.40208  0.72411  1.0000
  H   H321      1.0  0.16533  0.48351  0.72296  1.0000
  C   C216      1.0  0.16761  0.42152  0.72259  1.0000
  C   C217      1.0  0.34210  0.52467  0.72427  1.0000
  H   H322      1.0  0.11831  0.42361  0.72570  1.0000
  H   H323      1.0  0.15304  0.65585  0.72504  1.0000
  H   H324      1.0  0.17167  0.61059  0.73348  1.0000
  C   C218      1.0  0.26511  0.46675  0.73297  1.0000
  H   H325      1.0  0.36124  0.43823  0.72024  1.0000
  H   H326      1.0  0.15391  0.41260  0.70661  1.0000
  H   H327      1.0  0.12735  0.63769  0.70232  1.0000
  H   H328      1.0  0.35553  0.51694  0.71539  1.0000
  C   C219      1.0  0.35612  0.36931  0.49026  1.0000
  H   H329      1.0  0.32442  0.56172  0.73674  1.0000
  H   H330      1.0  0.39942  0.35733  0.48862  1.0000
  H   H331      1.0  0.99282  0.52087  0.69052  1.0000
  S   S76       1.0  0.15284  0.51037  0.76337  1.0000
  Fe  Fe36      1.0  0.02844  0.60710  0.76566  1.0000
  S   S77       1.0  0.05337  0.61987  0.79987  1.0000
  Fe  Fe37      1.0  0.05509  0.57913  0.79726  1.0000
  S   S78       1.0  0.09761  0.58159  0.80681  1.0000
  C   C220      1.0  0.13708  0.52975  0.77560  1.0000
  C   C221      1.0  0.15134  0.55008  0.79270  1.0000
  C   C222      1.0  0.13868  0.56538  0.80230  1.0000
  C   C223      1.0  0.11166  0.56061  0.79490  1.0000
  C   C224      1.0  0.09726  0.54027  0.77777  1.0000
  C   C225      1.0  0.10994  0.52481  0.76821  1.0000
  H   H332      1.0  0.17195  0.55369  0.79893  1.0000
  H   H333      1.0  0.14988  0.58099  0.81560  1.0000
  H   H334      1.0  0.07635  0.53632  0.77207  1.0000
  H   H335      1.0  0.31473  0.54291  0.93487  1.0000
  S   S79       1.0  0.26917  0.60674  0.96769  1.0000
  Fe  Fe38      1.0  0.22446  0.59522  0.95814  1.0000
  S   S80       1.0  0.20015  0.56855  0.92713  1.0000
  S   S81       1.0  0.37031  0.47942  0.96811  1.0000
  S   S82       1.0  0.38783  0.54621  0.96537  1.0000
  C   C226      1.0  0.42558  0.56226  0.85309  1.0000
  Fe  Fe39      1.0  0.25091  0.55725  0.80191  1.0000
  S   S83       1.0  0.22089  0.51199  0.79648  1.0000
  S   S84       1.0  0.27198  0.58171  0.83499  1.0000
  S   S85       1.0  0.03337  0.56837  0.76166  1.0000
  Fe  Fe40      1.0  0.19974  0.52812  0.76953  1.0000
  S   S86       1.0  0.28049  0.55809  0.77365  1.0000
  S   S87       1.0  0.22739  0.57304  0.77762  1.0000
  S   S88       1.0  0.40560  0.39729  0.81396  1.0000
  S   S89       1.0  0.41357  0.34228  0.77081  1.0000
  H   H336      1.0  0.41116  0.45208  0.82033  1.0000
  H   H337      1.0  0.38172  0.39318  0.90154  1.0000
  C   C227      1.0  0.21924  0.57395  0.90063  1.0000
  C   C228      1.0  0.20733  0.55568  0.88149  1.0000
  C   C229      1.0  0.22298  0.55849  0.86081  1.0000
  C   C230      1.0  0.25060  0.57964  0.85922  1.0000
  C   C231      1.0  0.26215  0.59850  0.87801  1.0000
  C   C232      1.0  0.24656  0.59563  0.89870  1.0000
  H   H338      1.0  0.18614  0.53897  0.88286  1.0000
  H   H339      1.0  0.21386  0.54392  0.84637  1.0000
  H   H340      1.0  0.28339  0.61512  0.87678  1.0000
  H   H341      1.0  0.25578  0.61001  0.91326  1.0000
  C   C233      1.0  0.14861  0.58374  0.96280  1.0000
  H   H342      1.0  0.15128  0.58070  0.91524  1.0000
  C   C234      1.0  0.39888  0.35428  0.91226  1.0000
  H   H343      1.0  0.39887  0.54964  0.90957  1.0000
  C   C235      1.0  0.42895  0.45406  0.81011  1.0000
  Fe  Fe41      1.0  0.24864  0.51420  0.76577  1.0000
  H   H344      1.0  0.40335  0.40737  0.87564  1.0000
  H   H345      1.0  0.16392  0.62849  0.75679  1.0000
  C   C236      1.0  0.44015  0.53198  0.87556  1.0000
  C   C237      1.0  0.45567  0.43325  0.79247  1.0000
  H   H346      1.0  0.47412  0.58483  0.89062  1.0000
  C   C238      1.0  0.15453  0.61040  0.74461  1.0000
  C   C239      1.0  0.41019  0.54850  0.89418  1.0000
  H   H347      1.0  0.20404  0.46410  0.74912  1.0000
  C   C240      1.0  0.40141  0.39595  0.89292  1.0000
  H   H348      1.0  0.26287  0.62782  0.80867  1.0000
  H   H349      1.0  0.99796  0.65395  0.83622  1.0000
  Fe  Fe42      1.0  0.01189  0.59540  0.81825  1.0000
  H   H350      1.0  0.10342  0.59515  0.92611  1.0000
  H   H351      1.0  0.28872  0.44687  0.74841  1.0000
  C   C241      1.0  0.99940  0.65537  0.85549  1.0000
  S   S90       1.0  0.01511  0.55504  0.81744  1.0000
  N   N22       1.0  0.29365  0.54249  0.90159  1.0000
  C   C242      1.0  0.28501  0.52608  0.87943  1.0000
  C   C243      1.0  0.26851  0.54097  0.91345  1.0000
  C   C244      1.0  0.31300  0.57182  0.89557  1.0000
  C   C245      1.0  0.30807  0.53109  0.91789  1.0000
  H   H352      1.0  0.27410  0.53428  0.86673  1.0000
  H   H353      1.0  0.27032  0.50383  0.88324  1.0000
  H   H354      1.0  0.30345  0.52681  0.86996  1.0000
  H   H355      1.0  0.27418  0.55403  0.92974  1.0000
  H   H356      1.0  0.25651  0.54832  0.90134  1.0000
  H   H357      1.0  0.25386  0.51924  0.91894  1.0000
  H   H358      1.0  0.31905  0.58512  0.91171  1.0000
  H   H359      1.0  0.30317  0.58067  0.88250  1.0000
  H   H360      1.0  0.33259  0.57378  0.88729  1.0000
  H   H361      1.0  0.32719  0.53185  0.90964  1.0000
  H   H362      1.0  0.29411  0.50895  0.92284  1.0000
  H   H363      1.0  0.32540  0.39078  0.75253  1.0000
  H   H364      1.0  0.37867  0.36167  0.85570  1.0000
  Fe  Fe43      1.0  0.35237  0.50734  0.98002  1.0000
  H   H365      1.0  0.10010  0.59261  0.75631  1.0000
  H   H366      1.0  0.45770  0.60941  0.94780  1.0000
  Fe  Fe44      1.0  0.99279  0.54766  0.78168  1.0000
  H   H367      1.0  0.35206  0.38158  0.76325  1.0000
  H   H368      1.0  0.26475  0.51538  0.96309  1.0000
  C   C246      1.0  0.42784  0.37373  0.87757  1.0000
  C   C247      1.0  0.42579  0.53358  0.89573  1.0000
  C   C248      1.0  0.44004  0.54625  0.85428  1.0000
  C   C249      1.0  0.48790  0.40209  0.74685  1.0000
  S   S91       1.0  0.44109  0.34794  0.82474  1.0000
  S   S92       1.0  0.00237  0.60494  0.85590  1.0000
  S   S93       1.0  0.22978  0.63856  0.96141  1.0000
  H   H369      1.0  0.11872  0.62981  0.75719  1.0000
  H   H370      1.0  0.39895  0.57524  0.87201  1.0000
  H   H371      1.0  0.41675  0.36665  0.92448  1.0000
  C   C250      1.0  0.37730  0.35153  0.87350  1.0000
  H   H372      1.0  0.35694  0.34755  0.88153  1.0000
  C   C251      1.0  0.44861  0.48052  0.80190  1.0000
  Fe  Fe45      1.0  0.40766  0.51875  0.95685  1.0000
  H   H373      1.0  0.44607  0.49867  0.80614  1.0000
  Fe  Fe46      1.0  0.40913  0.35789  0.80653  1.0000
  H   H374      1.0  0.32000  0.64074  0.76603  1.0000
  S   S94       1.0  0.43778  0.53894  0.77654  1.0000
  C   C252      1.0  0.41028  0.56299  0.87294  1.0000
  C   C253      1.0  0.00418  0.63698  0.89408  1.0000
  H   H375      1.0  0.40175  0.41699  0.76342  1.0000
  H   H376      1.0  0.37907  0.35013  0.92146  1.0000
  S   S95       1.0  0.42787  0.58301  0.82768  1.0000
  H   H377      1.0  0.34155  0.42769  0.78397  1.0000
  H   H378      1.0  0.17821  0.47169  0.76285  1.0000
  C   C254      1.0  0.27523  0.52445  0.97970  1.0000
  H   H379      1.0  0.44154  0.60769  0.91902  1.0000
  C   C255      1.0  0.43223  0.43033  0.80521  1.0000
  Fe  Fe47      1.0  0.44568  0.56507  0.74338  1.0000
  H   H380      1.0  0.44648  0.38707  0.88866  1.0000
  C   C256      1.0  0.28058  0.65821  0.76819  1.0000
  C   C257      1.0  0.11014  0.58411  0.93986  1.0000
  H   H381      1.0  0.09797  0.58199  0.95636  1.0000
  H   H382      1.0  0.42868  0.35374  0.87479  1.0000
  H   H383      1.0  0.37652  0.33087  0.87038  1.0000
  Fe  Fe48      1.0  0.45162  0.57893  0.79616  1.0000
  H   H384      1.0  0.14398  0.56257  0.95664  1.0000
  H   H385      1.0  0.00421  0.66081  0.92477  1.0000
  H   H386      1.0  0.13760  0.58161  0.98000  1.0000
  S   S96       1.0  0.49085  0.57482  0.73962  1.0000
  H   H387      1.0  0.43013  0.38421  0.85980  1.0000
  Fe  Fe49      1.0  0.25474  0.57068  0.74907  1.0000
  S   S97       1.0  0.45479  0.60421  0.76287  1.0000
  N   N23       1.0  0.48472  0.61543  0.91791  1.0000
  H   H388      1.0  0.17924  0.61275  0.92528  1.0000
  H   H389      1.0  0.28956  0.61469  0.78051  1.0000
  H   H390      1.0  0.37472  0.46567  0.74159  1.0000
  N   N24       1.0  0.36683  0.42529  0.75558  1.0000
  C   C258      1.0  0.45671  0.60247  0.92908  1.0000
  C   C259      1.0  0.28175  0.64844  0.81043  1.0000
  C   C260      1.0  0.00250  0.65921  0.90554  1.0000
  H   H391      1.0  0.36842  0.41830  0.79339  1.0000
  C   C261      1.0  0.30776  0.63554  0.78286  1.0000
  H   H392      1.0  0.35365  0.53591  0.74055  1.0000
  Fe  Fe50      1.0  0.27348  0.64933  0.97419  1.0000
  H   H393      1.0  0.17105  0.63929  0.95723  1.0000
  C   C262      1.0  0.39620  0.43079  0.75187  1.0000
  H   H394      1.0  0.09867  0.50898  0.75512  1.0000
  S   S98       1.0  0.43062  0.51946  0.92310  1.0000
  H   H395      1.0  0.17144  0.59484  0.96686  1.0000
  H   H396      1.0  0.15064  0.61307  0.90804  1.0000
  C   C263      1.0  0.36345  0.43153  0.78054  1.0000
  C   C264      1.0  0.35991  0.44318  0.73919  1.0000
  H   H397      1.0  0.44780  0.57937  0.92980  1.0000
  H   H398      1.0  0.37776  0.45368  0.78482  1.0000
  H   H399      1.0  0.41933  0.40965  0.90459  1.0000
  S   S99       1.0  0.30735  0.49769  0.97236  1.0000
  C   C265      1.0  0.10996  0.61173  0.74494  1.0000
  C   C266      1.0  0.18156  0.45505  0.75422  1.0000
  H   H400      1.0  0.00687  0.62134  0.90467  1.0000
  C   C267      1.0  0.15607  0.60159  0.92228  1.0000
  H   H401      1.0  0.39878  0.33375  0.90977  1.0000
  H   H402      1.0  0.45181  0.54548  0.83904  1.0000
  H   H403      1.0  0.45219  0.52041  0.87662  1.0000
  C   C268      1.0  0.14807  0.62735  0.95350  1.0000
  H   H404      1.0  0.10393  0.56275  0.93321  1.0000
  N   N25       1.0  0.40135  0.36889  0.88910  1.0000
  H   H405      1.0  0.41132  0.45279  0.75598  1.0000
  H   H406      1.0  0.26187  0.63775  0.76519  1.0000
  H   H407      1.0  0.12904  0.44881  0.74910  1.0000
  C   C269      1.0  0.34787  0.39564  0.75072  1.0000
  S   S100      1.0  0.26302  0.48107  0.76060  1.0000
  H   H408      1.0  0.45851  0.41508  0.78890  1.0000
  H   H409      1.0  0.14222  0.63965  0.94039  1.0000
  C   C270      1.0  0.47192  0.48352  0.78891  1.0000
  H   H410      1.0  0.13734  0.62629  0.97064  1.0000
  N   N26       1.0  0.14070  0.59920  0.94459  1.0000
  H   H411      1.0  0.29431  0.64648  0.82581  1.0000
  C   C271      1.0  0.00250  0.63480  0.86901  1.0000
  H   H412      1.0  0.33820  0.44028  0.74196  1.0000
  H   H413      1.0  0.14648  0.59118  0.75593  1.0000
  H   H414      1.0  0.12804  0.41545  0.75466  1.0000
  N   N27       1.0  0.29827  0.65658  0.78820  1.0000
  Fe  Fe51      1.0  0.48364  0.55084  0.77448  1.0000
  H   H415      1.0  0.43494  0.39493  0.74128  1.0000
  C   C272      1.0  0.13321  0.43233  0.74100  1.0000
  C   C273      1.0  0.47556  0.45983  0.78449  1.0000
  H   H416      1.0  0.32104  0.63354  0.79761  1.0000
  H   H417      1.0  0.17791  0.43864  0.76804  1.0000
  H   H418      1.0  0.46720  0.61342  0.88251  1.0000
  S   S101      1.0  0.48550  0.34052  0.77337  1.0000
  H   H419      1.0  0.47315  0.38724  0.76015  1.0000
  C   C274      1.0  0.48206  0.60763  0.89248  1.0000
  S   S102      1.0  0.22542  0.52697  0.73853  1.0000
  H   H420      1.0  0.48362  0.65415  0.91025  1.0000
  H   H421      1.0  0.25102  0.54678  0.98505  1.0000
  Fe  Fe52      1.0  0.44306  0.32911  0.78975  1.0000
  H   H422      1.0  0.02046  0.87781  0.23354  1.0000
  H   H423      1.0  0.00230  0.70382  0.06255  1.0000
  H   H424      1.0  0.03052  0.83697  0.00916  1.0000
  C   C275      1.0  0.00260  0.88147  0.01643  1.0000
  N   N28       1.0  0.17658  0.88214  0.17867  1.0000
  S   S103      1.0  0.42461  0.73461  0.01817  1.0000
  C   C276      1.0  0.00994  0.89954  0.19316  1.0000
  H   H425      1.0  0.00175  0.72252  0.10301  1.0000
  S   S104      1.0  0.07599  0.73120  0.14292  1.0000
  Fe  Fe53      1.0  0.14211  0.88558  0.09957  1.0000
  S   S105      1.0  0.09615  0.87311  0.10161  1.0000
  S   S106      1.0  0.15868  0.85420  0.10749  1.0000
  Fe  Fe54      1.0  0.15743  0.94657  0.08496  1.0000
  S   S107      1.0  0.11224  0.93807  0.08610  1.0000
  H   H426      1.0  0.46919  0.68874  0.00218  1.0000
  Fe  Fe55      1.0  0.10950  0.91379  0.11991  1.0000
  S   S108      1.0  0.08881  0.91935  0.15275  1.0000
  Fe  Fe56      1.0  0.10340  0.89822  0.06775  1.0000
  S   S109      1.0  0.07135  0.88043  0.03827  1.0000
  S   S110      1.0  0.15525  0.92490  0.12039  1.0000
  S   S111      1.0  0.14880  0.90820  0.06407  1.0000
  H   H427      1.0  0.02481  0.89691  0.18100  1.0000
  C   C277      1.0  0.06916  0.84861  0.02893  1.0000
  C   C278      1.0  0.08969  0.84053  0.03591  1.0000
  C   C279      1.0  0.08787  0.81518  0.02819  1.0000
  C   C280      1.0  0.06505  0.79740  0.01410  1.0000
  C   C281      1.0  0.04419  0.80517  0.00760  1.0000
  C   C282      1.0  0.04650  0.83094  0.01462  1.0000
  H   H428      1.0  0.10715  0.85391  0.04709  1.0000
  H   H429      1.0  0.10402  0.80926  0.03344  1.0000
  H   H430      1.0  0.02616  0.79142  0.99722  1.0000
  H   H431      1.0  0.99782  0.90792  0.18218  1.0000
  H   H432      1.0  0.02506  0.88586  0.01645  1.0000
  H   H433      1.0  0.17734  0.86709  0.21440  1.0000
  Fe  Fe57      1.0  0.46548  0.74980  0.99844  1.0000
  C   C283      1.0  0.09934  0.76489  0.13234  1.0000
  C   C284      1.0  0.12493  0.77083  0.12168  1.0000
  C   C285      1.0  0.14284  0.79821  0.11383  1.0000
  C   C286      1.0  0.13496  0.81961  0.11596  1.0000
  C   C287      1.0  0.10911  0.81344  0.12623  1.0000
  C   C288      1.0  0.09165  0.78637  0.13471  1.0000
  H   H434      1.0  0.13110  0.75446  0.11980  1.0000
  H   H435      1.0  0.16286  0.80280  0.10601  1.0000
  H   H436      1.0  0.10283  0.82966  0.12826  1.0000
  H   H437      1.0  0.07199  0.78202  0.14310  1.0000
  H   H438      1.0  0.37975  0.67636  0.03991  1.0000
  C   C289      1.0  0.19610  0.89458  0.15852  1.0000
  H   H439      1.0  0.13842  0.84488  0.18596  1.0000
  H   H440      1.0  0.21426  0.91469  0.16343  1.0000
  C   C290      1.0  0.19146  0.87632  0.19883  1.0000
  H   H441      1.0  0.18538  0.89866  0.14283  1.0000
  H   H442      1.0  0.19936  0.86135  0.19366  1.0000
  H   H443      1.0  0.99811  0.74778  0.06751  1.0000
  H   H444      1.0  0.07280  0.77809  0.08624  1.0000
  H   H445      1.0  0.07565  0.74624  0.08475  1.0000
  H   H446      1.0  0.20979  0.89569  0.20498  1.0000
  C   C291      1.0  0.36801  0.71543  0.01203  1.0000
  C   C292      1.0  0.02553  0.71680  0.06245  1.0000
  H   H447      1.0  0.36828  0.72231  0.03010  1.0000
  C   C293      1.0  0.39305  0.71887  0.00163  1.0000
  C   C294      1.0  0.09158  0.85917  0.19585  1.0000
  C   C295      1.0  0.09188  0.87501  0.17549  1.0000
  C   C296      1.0  0.08816  0.89888  0.17783  1.0000
  C   C297      1.0  0.08375  0.90658  0.20053  1.0000
  H   H448      1.0  0.15419  0.90614  0.17170  1.0000
  H   H449      1.0  0.09387  0.84043  0.19394  1.0000
  H   H450      1.0  0.09470  0.86863  0.15797  1.0000
  H   H451      1.0  0.08095  0.92508  0.20242  1.0000
  C   C298      1.0  0.00790  0.86264  0.21953  1.0000
  H   H452      1.0  0.32353  0.70181  0.00682  1.0000
  H   H453      1.0  0.20436  0.88031  0.15219  1.0000
  H   H454      1.0  0.15137  0.89298  0.20169  1.0000
  H   H455      1.0  0.17764  0.98100  0.03024  1.0000
  H   H456      1.0  0.14010  0.85980  0.15666  1.0000
  H   H457      1.0  0.15993  0.84127  0.16343  1.0000
  S   S112      1.0  0.08101  0.67142  0.10266  1.0000
  C   C299      1.0  0.08390  0.89098  0.22091  1.0000
  C   C300      1.0  0.15270  0.85585  0.17092  1.0000
  C   C301      1.0  0.08811  0.86740  0.21863  1.0000
  H   H458      1.0  0.03514  0.70355  0.06936  1.0000
  H   H459      1.0  0.18343  0.92194  0.19198  1.0000
  C   C302      1.0  0.06530  0.75820  0.07644  1.0000
  H   H460      1.0  0.02791  0.89628  0.05922  1.0000
  Fe  Fe58      1.0  0.07809  0.69043  0.13744  1.0000
  S   S113      1.0  0.10584  0.67617  0.15782  1.0000
  S   S114      1.0  0.19238  0.99121  0.08127  1.0000
  C   C303      1.0  0.02147  0.75923  0.06715  1.0000
  H   H461      1.0  0.03285  0.75200  0.11374  1.0000
  H   H462      1.0  0.02278  0.85896  0.20826  1.0000
  H   H463      1.0  0.00455  0.91174  0.05488  1.0000
  N   N29       1.0  0.03435  0.74201  0.07697  1.0000
  C   C304      1.0  0.02506  0.73366  0.10184  1.0000
  C   C305      1.0  0.00538  0.89176  0.05847  1.0000
  C   C306      1.0  0.16600  0.90167  0.18637  1.0000
  H   H464      1.0  0.03305  0.71928  0.10928  1.0000
  H   H465      1.0  0.07306  0.76363  0.05781  1.0000
  H   H466      1.0  0.03214  0.72224  0.04352  1.0000
  H   H467      1.0  0.01291  0.84774  0.04676  1.0000
  S   S115      1.0  0.06235  0.76513  0.00544  1.0000
  H   H468      1.0  0.02273  0.91565  0.20639  1.0000
  H   H469      1.0  0.02824  0.77876  0.07739  1.0000
  H   H470      1.0  0.00370  0.66818  0.03212  1.0000
  C   C307      1.0  0.34268  0.70375  0.99893  1.0000
  H   H471      1.0  0.00172  0.90110  0.01130  1.0000
  H   H472      1.0  0.39753  0.66903  0.01633  1.0000
  C   C308      1.0  0.47016  0.66925  0.00080  1.0000
  Fe  Fe59      1.0  0.01948  0.73707  0.99090  1.0000
  H   H473      1.0  0.02755  0.76533  0.04825  1.0000
  H   H474      1.0  0.99649  0.88412  0.07652  1.0000
  H   H475      1.0  0.07284  0.78755  0.23346  1.0000
  H   H476      1.0  0.03799  0.75940  0.22978  1.0000
  H   H477      1.0  0.99426  0.84276  0.22902  1.0000
  Fe  Fe60      1.0  0.04155  0.81780  0.32123  1.0000
  S   S116      1.0  0.02698  0.82061  0.28373  1.0000
  S   S117      1.0  0.03328  0.77409  0.33303  1.0000
  Fe  Fe61      1.0  0.07206  0.88092  0.32501  1.0000
  S   S118      1.0  0.06105  0.88862  0.28767  1.0000
  H   H478      1.0  0.02647  0.92219  0.34036  1.0000
  C   C309      1.0  0.06787  0.74256  0.25906  1.0000
  Fe  Fe62      1.0  0.07072  0.85391  0.27760  1.0000
  H   H479      1.0  0.08145  0.89763  0.23839  1.0000
  S   S119      1.0  0.02834  0.84900  0.33491  1.0000
  S   S120      1.0  0.08619  0.84941  0.31428  1.0000
  Fe  Fe63      1.0  0.01795  0.68621  0.44909  1.0000
  C   C310      1.0  0.12432  0.97306  0.34992  1.0000
  H   H480      1.0  0.02269  0.70431  0.39499  1.0000
  C   C311      1.0  0.05245  0.77510  0.24261  1.0000
  H   H481      1.0  0.02997  0.79831  0.37858  1.0000
  H   H482      1.0  0.12337  0.93114  0.30500  1.0000
  H   H483      1.0  0.09669  0.79607  0.27280  1.0000
  C   C312      1.0  0.05719  0.95995  0.30804  1.0000
  S   S121      1.0  0.05958  0.68754  0.45843  1.0000
  H   H484      1.0  0.02851  0.72300  0.35344  1.0000
  N   N30       1.0  0.05623  0.76182  0.26484  1.0000
  C   C313      1.0  0.07581  0.78352  0.28111  1.0000
  H   H485      1.0  0.05969  0.94381  0.35399  1.0000
  C   C314      1.0  0.11741  0.94851  0.33741  1.0000
  H   H486      1.0  0.12548  0.67086  0.47716  1.0000
  C   C315      1.0  0.01770  0.96519  0.32271  1.0000
  S   S122      1.0  0.09417  0.91643  0.35034  1.0000
  C   C316      1.0  0.02879  0.74614  0.27663  1.0000
  H   H487      1.0  0.01947  0.76011  0.28133  1.0000
  C   C317      1.0  0.02969  0.76200  0.36311  1.0000
  C   C318      1.0  0.02760  0.73544  0.36797  1.0000
  C   C319      1.0  0.02429  0.72478  0.39153  1.0000
  C   C320      1.0  0.02276  0.74051  0.41048  1.0000
  H   H488      1.0  0.11577  0.97193  0.36751  1.0000
  C   C321      1.0  0.02847  0.77787  0.38208  1.0000
  H   H489      1.0  0.00302  0.94526  0.31417  1.0000
  H   H490      1.0  0.03093  0.73620  0.29370  1.0000
  N   N31       1.0  0.04464  0.96530  0.32941  1.0000
  C   C322      1.0  0.02490  0.76710  0.40565  1.0000
  C   C323      1.0  0.12854  0.95003  0.31471  1.0000
  C   C324      1.0  0.06411  0.99271  0.33928  1.0000
  H   H491      1.0  0.00691  0.96779  0.33859  1.0000
  S   S123      1.0  0.09032  0.84853  0.24394  1.0000
  S   S124      1.0  0.01796  0.72751  0.44032  1.0000
  C   C325      1.0  0.14692  0.97606  0.30476  1.0000
  H   H492      1.0  0.06390  0.74041  0.47536  1.0000
  H   H493      1.0  0.15588  0.97716  0.28736  1.0000
  Fe  Fe64      1.0  0.01829  0.85481  0.29666  1.0000
  H   H494      1.0  0.05365  0.72590  0.24678  1.0000
  H   H495      1.0  0.07743  0.95971  0.31254  1.0000
  H   H496      1.0  0.04500  0.77341  0.48187  1.0000
  H   H497      1.0  0.08860  0.75376  0.25016  1.0000
  H   H498      1.0  0.01342  0.72951  0.26499  1.0000
  H   H499      1.0  0.02084  0.98239  0.30988  1.0000
  H   H500      1.0  0.04362  0.78972  0.24635  1.0000
  H   H501      1.0  0.06758  0.79828  0.28584  1.0000
  H   H502      1.0  0.07893  0.77435  0.29825  1.0000
  H   H503      1.0  0.07097  0.73220  0.27549  1.0000
  C   C326      1.0  0.03964  0.94332  0.34762  1.0000
  H   H504      1.0  0.02368  0.77939  0.42017  1.0000
  H   H505      1.0  0.02881  0.94575  0.36351  1.0000
  H   H506      1.0  0.04304  0.93935  0.30017  1.0000
  H   H507      1.0  0.06153  0.97627  0.29401  1.0000
  H   H508      1.0  0.08490  0.99389  0.34395  1.0000
  S   S125      1.0  0.99715  0.66372  0.48314  1.0000
  Fe  Fe65      1.0  0.18239  0.69689  0.61737  1.0000
  S   S126      1.0  0.20313  0.73278  0.64283  1.0000
  S   S127      1.0  0.17276  0.70269  0.57822  1.0000
  S   S128      1.0  0.20643  0.68774  0.68154  1.0000
  Fe  Fe66      1.0  0.17527  0.70275  0.67060  1.0000
  S   S129      1.0  0.15964  0.71522  0.70294  1.0000
  Fe  Fe67      1.0  0.23316  0.71540  0.65240  1.0000
  S   S130      1.0  0.27928  0.74556  0.65903  1.0000
  C   C327      1.0  0.33819  0.76704  0.71215  1.0000
  C   C328      1.0  0.32384  0.76664  0.69065  1.0000
  C   C329      1.0  0.29664  0.74524  0.68620  1.0000
  C   C330      1.0  0.28381  0.72437  0.70353  1.0000
  S   S131      1.0  0.15189  0.66826  0.64472  1.0000
  H   H509      1.0  0.33385  0.78299  0.67740  1.0000
  H   H510      1.0  0.26307  0.70760  0.70028  1.0000
  C   C331      1.0  0.13919  0.69319  0.56506  1.0000
  C   C332      1.0  0.13705  0.69633  0.54016  1.0000
  C   C333      1.0  0.11086  0.68955  0.52904  1.0000
  H   H511      1.0  0.15586  0.70437  0.52951  1.0000
  C   C334      1.0  0.12515  0.69129  0.71064  1.0000
  C   C335      1.0  0.11768  0.68588  0.73476  1.0000
  H   H512      1.0  0.25777  0.82588  0.71966  1.0000
  H   H513      1.0  0.41233  0.73752  0.64268  1.0000
  H   H514      1.0  0.05586  0.76248  0.54658  1.0000
  C   C336      1.0  0.36347  0.73454  0.65739  1.0000
  N   N32       1.0  0.24227  0.78588  0.70316  1.0000
  H   H515      1.0  0.10958  0.69255  0.50999  1.0000
  H   H516      1.0  0.39411  0.77841  0.68553  1.0000
  S   S132      1.0  0.21519  0.68205  0.62454  1.0000
  H   H517      1.0  0.41342  0.78046  0.65900  1.0000
  H   H518      1.0  0.27500  0.80551  0.72940  1.0000
  H   H519      1.0  0.35902  0.78374  0.71550  1.0000
  H   H520      1.0  0.35033  0.74282  0.66601  1.0000
  H   H521      1.0  0.09473  0.76114  0.49271  1.0000
  H   H522      1.0  0.20512  0.77085  0.68094  1.0000
  H   H523      1.0  0.02685  0.70913  0.51800  1.0000
  C   C337      1.0  0.48505  0.77455  0.70060  1.0000
  C   C338      1.0  0.08869  0.67657  0.56764  1.0000
  H   H524      1.0  0.47593  0.80632  0.71489  1.0000
  C   C339      1.0  0.40471  0.72722  0.66035  1.0000
  C   C340      1.0  0.29784  0.72517  0.72523  1.0000
  S   S133      1.0  0.45605  0.74681  0.71384  1.0000
  C   C341      1.0  0.06832  0.75694  0.53400  1.0000
  C   C342      1.0  0.05456  0.77700  0.50020  1.0000
  C   C343      1.0  0.02683  0.72857  0.51087  1.0000
  H   H525      1.0  0.36475  0.70184  0.69366  1.0000
  H   H526      1.0  0.42478  0.77287  0.68731  1.0000
  C   C344      1.0  0.11482  0.68313  0.57873  1.0000
  C   C345      1.0  0.21505  0.78500  0.69625  1.0000
  H   H527      1.0  0.07003  0.66911  0.57844  1.0000
  N   N33       1.0  0.05564  0.75174  0.50976  1.0000
  H   H528      1.0  0.25763  0.75749  0.71616  1.0000
  H   H529      1.0  0.36625  0.73312  0.70559  1.0000
  C   C346      1.0  0.48990  0.80201  0.70403  1.0000
  C   C347      1.0  0.32514  0.74633  0.72959  1.0000
  N   N34       1.0  0.38811  0.73882  0.67244  1.0000
  H   H530      1.0  0.01322  0.73348  0.52264  1.0000
  C   C348      1.0  0.23785  0.75751  0.70967  1.0000
  H   H531      1.0  0.11063  0.68180  0.67424  1.0000
  C   C349      1.0  0.37846  0.72457  0.69580  1.0000
  H   H532      1.0  0.42360  0.73026  0.67112  1.0000
  H   H533      1.0  0.36990  0.74523  0.63969  1.0000
  C   C350      1.0  0.40583  0.76896  0.67622  1.0000
  C   C351      1.0  0.10507  0.67752  0.69289  1.0000
  H   H534      1.0  0.19972  0.77690  0.71115  1.0000
  H   H535      1.0  0.22173  0.74787  0.72382  1.0000
  H   H536      1.0  0.25314  0.78330  0.66679  1.0000
  H   H537      1.0  0.26619  0.81815  0.67762  1.0000
  H   H538      1.0  0.07376  0.72505  0.50041  1.0000
  H   H539      1.0  0.06937  0.73806  0.54148  1.0000
  H   H540      1.0  0.23043  0.74369  0.69398  1.0000
  H   H541      1.0  0.09013  0.77424  0.53388  1.0000
  H   H542      1.0  0.34966  0.71203  0.65412  1.0000
  C   C352      1.0  0.08654  0.67962  0.54278  1.0000
  C   C353      1.0  0.25435  0.80431  0.72387  1.0000
  H   H543      1.0  0.39652  0.72711  0.70749  1.0000
  H   H544      1.0  0.39214  0.70446  0.65739  1.0000
  H   H545      1.0  0.11616  0.68072  0.59788  1.0000
  H   H546      1.0  0.07594  0.79491  0.49891  1.0000
  H   H547      1.0  0.21749  0.80596  0.69093  1.0000
  H   H548      1.0  0.01669  0.72399  0.49283  1.0000
  H   H549      1.0  0.04170  0.78327  0.51166  1.0000
  C   C354      1.0  0.26183  0.79656  0.68284  1.0000
  C   C355      1.0  0.07278  0.74425  0.49387  1.0000
  H   H550      1.0  0.28227  0.79658  0.68717  1.0000
  S   S134      1.0  0.05326  0.67209  0.53000  1.0000
  Fe  Fe68      1.0  0.03824  0.66316  0.49134  1.0000
  S   S135      1.0  0.34158  0.74656  0.75737  1.0000
  H   H551      1.0  0.10802  0.77370  0.90795  1.0000
  C   C356      1.0  0.10761  0.78936  0.92038  1.0000
  C   C357      1.0  0.08013  0.80057  0.94785  1.0000
  H   H552      1.0  0.09574  0.80472  0.96265  1.0000
  N   N35       1.0  0.07973  0.77926  0.93142  1.0000
  C   C358      1.0  0.05817  0.77378  0.91253  1.0000
  H   H553      1.0  0.05689  0.75736  0.90009  1.0000
  H   H554      1.0  0.08882  0.75646  0.95943  1.0000
  H   H555      1.0  0.12430  0.79360  0.93420  1.0000
  C   C359      1.0  0.07305  0.75323  0.94497  1.0000
  H   H556      1.0  0.05241  0.74545  0.95377  1.0000
  H   H557      1.0  0.03684  0.76614  0.92019  1.0000
  H   H558      1.0  0.07198  0.73640  0.93319  1.0000
  C   C360      1.0  0.36722  0.69834  0.96516  1.0000
  H   H559      1.0  0.11336  0.80901  0.91000  1.0000
  H   H560      1.0  0.06251  0.79286  0.90178  1.0000
  H   H561      1.0  0.05941  0.79369  0.95649  1.0000
  H   H562      1.0  0.08533  0.82065  0.93839  1.0000
  C   C361      1.0  0.32299  0.68404  0.79126  1.0000
  H   H563      1.0  0.33587  0.69081  0.77477  1.0000
  H   H564      1.0  0.31664  0.70054  0.79512  1.0000
  H   H565      1.0  0.33688  0.68366  0.80619  1.0000
  S   S136      1.0  0.31182  0.68414  0.95769  1.0000
  H   H566      1.0  0.36691  0.69171  0.94700  1.0000
  N   N36       1.0  0.48322  0.70870  0.76956  1.0000
  C   C362      1.0  0.34237  0.69559  0.97534  1.0000
  S   S137      1.0  0.00945  0.69626  0.97380  1.0000
  H   H567      1.0  0.99416  0.69277  0.85638  1.0000
  H   H568      1.0  0.36803  0.76438  0.92878  1.0000
  S   S138      1.0  0.99396  0.70636  0.90589  1.0000
  H   H569      1.0  0.08449  0.66277  0.75976  1.0000
  H   H570      1.0  0.38371  0.75757  0.96859  1.0000
  H   H571      1.0  0.47195  0.70615  0.80658  1.0000
  S   S139      1.0  0.00050  0.75176  0.96141  1.0000
  H   H572      1.0  0.27441  0.66394  0.81520  1.0000
  H   H573      1.0  0.29240  0.66418  0.75111  1.0000
  H   H574      1.0  0.27298  0.67386  0.77160  1.0000
  C   C363      1.0  0.39248  0.70977  0.97834  1.0000
  H   H575      1.0  0.47792  0.81568  0.87426  1.0000
  H   H576      1.0  0.13314  0.69652  0.74856  1.0000
  C   C364      1.0  0.48679  0.72123  0.79341  1.0000
  C   C365      1.0  0.99831  0.67917  0.89209  1.0000
  C   C366      1.0  0.99720  0.67735  0.86700  1.0000
  C   C367      1.0  0.09019  0.66670  0.74112  1.0000
  H   H577      1.0  0.48713  0.67474  0.75351  1.0000
  H   H578      1.0  0.44353  0.81485  0.91958  1.0000
  Fe  Fe69      1.0  0.43994  0.76329  0.74290  1.0000
  C   C368      1.0  0.45409  0.69954  0.76100  1.0000
  H   H579      1.0  0.47425  0.66799  0.78356  1.0000
  C   C369      1.0  0.40370  0.77706  0.96629  1.0000
  H   H580      1.0  0.38285  0.80101  0.93460  1.0000
  H   H581      1.0  0.39253  0.78916  0.90815  1.0000
  C   C370      1.0  0.38761  0.78454  0.92748  1.0000
  H   H582      1.0  0.39756  0.74026  0.93205  1.0000
  C   C371      1.0  0.46832  0.75163  0.89317  1.0000
  Fe  Fe70      1.0  0.38899  0.76608  0.76278  1.0000
  S   S140      1.0  0.46928  0.73269  0.96328  1.0000
  C   C372      1.0  0.45859  0.77853  0.85329  1.0000
  C   C373      1.0  0.41641  0.76087  0.93078  1.0000
  S   S141      1.0  0.46749  0.78322  0.77441  1.0000
  S   S142      1.0  0.47665  0.85928  0.77596  1.0000
  C   C374      1.0  0.45492  0.73647  0.87264  1.0000
  H   H583      1.0  0.42207  0.76485  0.91155  1.0000
  S   S143      1.0  0.40392  0.73343  0.76466  1.0000
  S   S144      1.0  0.41234  0.78701  0.79653  1.0000
  C   C375      1.0  0.47689  0.78027  0.89374  1.0000
  C   C376      1.0  0.45015  0.74991  0.85263  1.0000
  H   H584      1.0  0.45491  0.78903  0.83794  1.0000
  H   H585      1.0  0.44838  0.71431  0.87219  1.0000
  H   H586      1.0  0.45078  0.69038  0.74286  1.0000
  H   H587      1.0  0.41145  0.71169  0.97036  1.0000
  H   H588      1.0  0.42033  0.77444  0.97672  1.0000
  H   H589      1.0  0.40080  0.79406  0.97470  1.0000
  Fe  Fe71      1.0  0.42985  0.75633  0.79620  1.0000
  Fe  Fe72      1.0  0.44868  0.81276  0.77223  1.0000
  H   H590      1.0  0.44909  0.71738  0.75974  1.0000
  H   H591      1.0  0.43863  0.68371  0.77329  1.0000
  H   H592      1.0  0.45457  0.80982  0.94889  1.0000
  S   S145      1.0  0.43371  0.73068  0.82698  1.0000
  H   H593      1.0  0.47221  0.74117  0.90842  1.0000
  H   H594      1.0  0.43335  0.82757  0.94527  1.0000
  C   C377      1.0  0.43670  0.81008  0.93852  1.0000
  C   C378      1.0  0.47174  0.79361  0.87386  1.0000
  H   H595      1.0  0.43406  0.75921  0.94032  1.0000
  N   N37       1.0  0.41111  0.78315  0.94078  1.0000
  H   H596      1.0  0.48257  0.73961  0.79286  1.0000
  H   H597      1.0  0.28750  0.70918  0.73864  1.0000
  H   H598      1.0  0.24020  0.79655  0.73956  1.0000
  C   C379      1.0  0.48901  0.68444  0.77127  1.0000
  S   S146      1.0  0.42351  0.79461  0.73843  1.0000
  S   S147      1.0  0.48962  0.79455  0.98691  1.0000
  H   H599      1.0  0.95383  0.04037  0.09202  1.0000
  H   H600      1.0  0.72480  0.02799  0.22135  1.0000
  S   S148      1.0  0.87617  0.01278  0.01675  1.0000
  S   S149      1.0  0.94951  0.05913  0.99022  1.0000
  H   H601      1.0  0.81993  0.06148  0.99589  1.0000
  H   H602      1.0  0.95536  0.08782  0.07400  1.0000
  Fe  Fe73      1.0  0.84771  0.03223  0.00988  1.0000
  S   S150      1.0  0.83244  0.04495  0.04223  1.0000
  C   C380      1.0  0.96588  0.06959  0.01856  1.0000
  C   C381      1.0  0.95207  0.07438  0.03753  1.0000
  H   H603      1.0  0.93074  0.07135  0.03508  1.0000
  C   C382      1.0  0.94555  0.01855  0.09883  1.0000
  H   H604      1.0  0.80710  0.02810  0.08834  1.0000
  C   C383      1.0  0.79819  0.02140  0.05065  1.0000
  C   C384      1.0  0.76383  0.99850  0.08185  1.0000
  C   C385      1.0  0.79126  0.01706  0.07491  1.0000
  C   C386      1.0  0.96611  0.08380  0.05954  1.0000
  H   H605      1.0  0.94916  0.01964  0.11851  1.0000
  H   H606      1.0  0.92246  0.00803  0.09545  1.0000
  H   H607      1.0  0.78278  0.01042  0.01463  1.0000
  H   H608      1.0  0.81707  0.09261  0.00150  1.0000
  C   C387      1.0  0.99007  0.01894  0.09156  1.0000
  C   C388      1.0  0.80520  0.07084  0.99514  1.0000
  C   C389      1.0  0.70384  0.01082  0.22245  1.0000
  H   H609      1.0  0.96158  0.02363  0.05299  1.0000
  N   N38       1.0  0.95941  0.00380  0.08723  1.0000
  C   C390      1.0  0.95362  0.00247  0.06122  1.0000
  H   H610      1.0  0.78836  0.05921  0.00832  1.0000
  C   C391      1.0  0.77766  0.00720  0.03334  1.0000
  Fe  Fe74      1.0  0.67839  0.04629  0.29344  1.0000
  S   S151      1.0  0.63398  0.03057  0.30615  1.0000
  H   H611      1.0  0.82181  0.25454  0.30290  1.0000
  Fe  Fe75      1.0  0.70292  0.07327  0.34183  1.0000
  S   S152      1.0  0.66080  0.05812  0.35894  1.0000
  S   S153      1.0  0.74256  0.09734  0.36338  1.0000
  Fe  Fe76      1.0  0.64992  0.01839  0.33962  1.0000
  H   H612      1.0  0.81553  0.27080  0.36607  1.0000
  Fe  Fe77      1.0  0.64841  0.07192  0.32458  1.0000
  S   S154      1.0  0.62695  0.10007  0.32552  1.0000
  S   S155      1.0  0.69337  0.03203  0.32617  1.0000
  S   S156      1.0  0.69143  0.08908  0.30821  1.0000
  Fe  Fe78      1.0  0.58011  0.20396  0.46916  1.0000
  Fe  Fe79      1.0  0.58573  0.22139  0.41673  1.0000
  S   S157      1.0  0.60417  0.25616  0.38953  1.0000
  H   H613      1.0  0.80356  0.08785  0.47439  1.0000
  S   S158      1.0  0.60934  0.20483  0.44030  1.0000
  Fe  Fe80      1.0  0.78885  0.23649  0.41270  1.0000
  S   S159      1.0  0.83378  0.24470  0.41468  1.0000
  S   S160      1.0  0.76495  0.22131  0.37845  1.0000
  Fe  Fe81      1.0  0.78759  0.25104  0.46440  1.0000
  S   S161      1.0  0.83265  0.26049  0.47043  1.0000
  Fe  Fe82      1.0  0.84041  0.28295  0.43462  1.0000
  H   H614      1.0  0.84640  0.31673  0.38319  1.0000
  Fe  Fe83      1.0  0.82112  0.22122  0.44968  1.0000
  S   S162      1.0  0.83437  0.18791  0.46008  1.0000
  S   S163      1.0  0.79597  0.27617  0.43021  1.0000
  S   S164      1.0  0.77555  0.21059  0.44617  1.0000
  H   H615      1.0  0.79347  0.06060  0.43431  1.0000
  C   C392      1.0  0.80943  0.15224  0.45952  1.0000
  C   C393      1.0  0.81713  0.13180  0.46772  1.0000
  C   C394      1.0  0.79745  0.10333  0.46786  1.0000
  C   C395      1.0  0.76990  0.09523  0.45983  1.0000
  C   C396      1.0  0.80766  0.06147  0.41969  1.0000
  C   C397      1.0  0.78203  0.14387  0.45108  1.0000
  C   C398      1.0  0.54389  0.20902  0.31846  1.0000
  H   H616      1.0  0.56512  0.30312  0.33573  1.0000
  H   H617      1.0  0.82564  0.29493  0.34127  1.0000
  C   C399      1.0  0.66089  0.31903  0.38509  1.0000
  S   S165      1.0  0.87700  0.32617  0.42855  1.0000
  H   H618      1.0  0.81206  0.07540  0.35998  1.0000
  H   H619      1.0  0.54738  0.22594  0.33114  1.0000
  C   C400      1.0  0.57679  0.26124  0.37622  1.0000
  C   C401      1.0  0.58264  0.28304  0.35972  1.0000
  Fe  Fe84      1.0  0.52909  0.18153  0.43601  1.0000
  C   C402      1.0  0.53263  0.26704  0.35304  1.0000
  C   C403      1.0  0.52687  0.24518  0.36939  1.0000
  C   C404      1.0  0.54887  0.24271  0.38135  1.0000
  S   S166      1.0  0.98122  0.05036  0.29533  1.0000
  H   H620      1.0  0.50609  0.21221  0.46605  1.0000
  H   H621      1.0  0.88115  0.27104  0.34619  1.0000
  H   H622      1.0  0.54405  0.22614  0.39433  1.0000
  C   C405      1.0  0.61383  0.10648  0.35236  1.0000
  C   C406      1.0  0.60986  0.13045  0.35404  1.0000
  C   C407      1.0  0.60064  0.13674  0.37549  1.0000
  C   C408      1.0  0.59481  0.11881  0.39533  1.0000
  C   C409      1.0  0.59814  0.09455  0.39344  1.0000
  C   C410      1.0  0.60768  0.08844  0.37214  1.0000
  H   H623      1.0  0.61459  0.14451  0.33883  1.0000
  H   H624      1.0  0.59849  0.15563  0.37684  1.0000
  H   H625      1.0  0.59342  0.08040  0.40860  1.0000
  H   H626      1.0  0.61018  0.06970  0.37099  1.0000
  H   H627      1.0  0.65804  0.30557  0.36943  1.0000
  C   C411      1.0  0.75080  0.13264  0.36602  1.0000
  C   C412      1.0  0.76994  0.14880  0.38362  1.0000
  C   C413      1.0  0.77482  0.17631  0.38720  1.0000
  C   C414      1.0  0.76100  0.18790  0.37285  1.0000
  C   C415      1.0  0.74299  0.17226  0.35453  1.0000
  C   C416      1.0  0.73756  0.14455  0.35138  1.0000
  H   H628      1.0  0.78013  0.13979  0.39519  1.0000
  H   H629      1.0  0.78890  0.18825  0.40137  1.0000
  H   H630      1.0  0.73233  0.18116  0.34332  1.0000
  H   H631      1.0  0.72285  0.13241  0.33777  1.0000
  H   H632      1.0  0.81599  0.04796  0.37574  1.0000
  C   C417      1.0  0.81777  0.06924  0.37759  1.0000
  H   H633      1.0  0.86357  0.27689  0.37079  1.0000
  H   H634      1.0  0.76663  0.02894  0.38916  1.0000
  Fe  Fe85      1.0  0.51715  0.31467  0.32930  1.0000
  N   N39       1.0  0.68361  0.14176  0.41332  1.0000
  C   C418      1.0  0.67464  0.13825  0.38795  1.0000
  C   C419      1.0  0.65865  0.12808  0.42866  1.0000
  C   C420      1.0  0.69865  0.17179  0.41875  1.0000
  C   C421      1.0  0.70247  0.12890  0.41784  1.0000
  H   H635      1.0  0.66450  0.11594  0.38281  1.0000
  H   H636      1.0  0.69268  0.14932  0.37585  1.0000
  H   H637      1.0  0.65943  0.14661  0.38410  1.0000
  H   H638      1.0  0.64643  0.10553  0.42455  1.0000
  H   H639      1.0  0.66459  0.12983  0.44793  1.0000
  H   H640      1.0  0.64419  0.13762  0.42599  1.0000
  H   H641      1.0  0.68505  0.18216  0.41533  1.0000
  H   H642      1.0  0.71764  0.18271  0.40748  1.0000
  H   H643      1.0  0.70578  0.17531  0.43775  1.0000
  H   H644      1.0  0.70972  0.13117  0.43680  1.0000
  H   H645      1.0  0.72146  0.13880  0.40657  1.0000
  H   H646      1.0  0.69195  0.10628  0.41363  1.0000
  H   H647      1.0  0.56091  0.21794  0.30501  1.0000
  H   H648      1.0  0.57433  0.20942  0.35733  1.0000
  S   S167      1.0  0.74371  0.06020  0.46024  1.0000
  S   S168      1.0  0.56004  0.22485  0.44632  1.0000
  S   S169      1.0  0.58507  0.12658  0.42327  1.0000
  H   H649      1.0  0.79715  0.26041  0.33816  1.0000
  H   H650      1.0  0.82946  0.07632  0.42514  1.0000
  S   S170      1.0  0.69636  0.04077  0.25833  1.0000
  Fe  Fe86      1.0  0.57515  0.16261  0.43038  1.0000
  H   H651      1.0  0.76299  0.05674  0.37386  1.0000
  C   C422      1.0  0.81835  0.27269  0.34634  1.0000
  S   S171      1.0  0.54723  0.16044  0.46097  1.0000
  S   S172      1.0  0.55369  0.17927  0.40475  1.0000
  H   H652      1.0  0.66974  0.31138  0.40000  1.0000
  C   C423      1.0  0.76238  0.11558  0.45138  1.0000
  H   H653      1.0  0.83835  0.13809  0.47417  1.0000
  H   H654      1.0  0.52355  0.20359  0.30906  1.0000
  H   H655      1.0  0.75545  0.05077  0.40507  1.0000
  C   C424      1.0  0.76987  0.05069  0.39097  1.0000
  C   C425      1.0  0.56055  0.28622  0.34844  1.0000
  H   H656      1.0  0.80683  0.04050  0.41858  1.0000
  C   C426      1.0  0.57080  0.19317  0.34393  1.0000
  H   H657      1.0  0.79759  0.10596  0.38138  1.0000
  H   H658      1.0  0.50543  0.23009  0.37292  1.0000
  H   H659      1.0  0.51977  0.15473  0.35824  1.0000
  N   N40       1.0  0.79949  0.06998  0.39674  1.0000
  H   H660      1.0  0.78803  0.09945  0.41214  1.0000
  H   H661      1.0  0.67575  0.00274  0.38239  1.0000
  H   H662      1.0  0.60415  0.29741  0.35556  1.0000
  H   H663      1.0  0.88113  0.99914  0.37857  1.0000
  H   H664      1.0  0.84026  0.08371  0.38132  1.0000
  H   H665      1.0  0.82381  0.22902  0.36467  1.0000
  H   H666      1.0  0.80630  0.21998  0.33637  1.0000
  H   H667      1.0  0.85705  0.25879  0.30628  1.0000
  H   H668      1.0  0.58892  0.20202  0.33154  1.0000
  C   C427      1.0  0.86572  0.27857  0.35099  1.0000
  H   H669      1.0  0.82432  0.11366  0.40407  1.0000
  Fe  Fe87      1.0  0.74845  0.02088  0.46595  1.0000
  H   H670      1.0  0.57148  0.17527  0.35367  1.0000
  S   S173      1.0  0.89981  0.99989  0.28628  1.0000
  H   H671      1.0  0.74125  0.10936  0.44482  1.0000
  H   H672      1.0  0.52247  0.18879  0.36175  1.0000
  N   N41       1.0  0.83834  0.26254  0.33878  1.0000
  C   C428      1.0  0.82711  0.23264  0.34510  1.0000
  H   H673      1.0  0.84155  0.22413  0.33971  1.0000
  C   C429      1.0  0.84212  0.26629  0.31263  1.0000
  H   H674      1.0  0.85059  0.28865  0.30725  1.0000
  H   H675      1.0  0.77595  0.15913  0.44418  1.0000
  Fe  Fe88      1.0  0.94243  0.00981  0.30176  1.0000
  H   H676      1.0  0.87508  0.30115  0.34619  1.0000
  C   C430      1.0  0.80261  0.09854  0.39867  1.0000
  H   H677      1.0  0.50743  0.29392  0.41429  1.0000
  H   H678      1.0  0.53991  0.14428  0.32254  1.0000
  N   N42       1.0  0.54378  0.18458  0.33104  1.0000
  H   H679      1.0  0.63958  0.31540  0.39064  1.0000
  H   H680      1.0  0.50267  0.29419  0.38258  1.0000
  H   H681      1.0  0.55736  0.17084  0.30032  1.0000
  H   H682      1.0  0.98636  0.01576  0.33348  1.0000
  C   C431      1.0  0.54004  0.16298  0.31354  1.0000
  C   C432      1.0  0.52042  0.17311  0.34826  1.0000
  H   H683      1.0  0.87153  0.00378  0.42111  1.0000
  C   C433      1.0  0.68493  0.01169  0.23914  1.0000
  S   S174      1.0  0.50478  0.26985  0.33829  1.0000
  H   H684      1.0  0.51987  0.15598  0.30344  1.0000
  S   S175      1.0  0.75147  0.99653  0.43509  1.0000
  H   H685      1.0  0.49969  0.16641  0.33918  1.0000
  C   C434      1.0  0.49358  0.29553  0.39990  1.0000
  H   H686      1.0  0.49466  0.31663  0.40071  1.0000
  H   H687      1.0  0.72583  0.14620  0.70424  1.0000
  H   H688      1.0  0.64946  0.14539  0.55007  1.0000
  C   C435      1.0  0.79717  0.29431  0.63798  1.0000
  Fe  Fe89      1.0  0.55403  0.28196  0.60967  1.0000
  S   S176      1.0  0.53183  0.25667  0.64192  1.0000
  S   S177      1.0  0.53976  0.27112  0.57136  1.0000
  Fe  Fe90      1.0  0.53513  0.29659  0.65658  1.0000
  C   C436      1.0  0.69094  0.06378  0.71172  1.0000
  Fe  Fe91      1.0  0.57499  0.27093  0.65755  1.0000
  S   S178      1.0  0.58772  0.24376  0.68024  1.0000
  C   C437      1.0  0.82541  0.32182  0.57330  1.0000
  S   S179      1.0  0.59707  0.29245  0.62398  1.0000
  Fe  Fe92      1.0  0.72515  0.20432  0.66410  1.0000
  S   S180      1.0  0.71461  0.21131  0.62650  1.0000
  Fe  Fe93      1.0  0.69819  0.14120  0.66002  1.0000
  S   S181      1.0  0.68492  0.14301  0.62177  1.0000
  S   S182      1.0  0.69351  0.09979  0.67535  1.0000
  Fe  Fe94      1.0  0.72767  0.17887  0.61697  1.0000
  S   S183      1.0  0.75414  0.18086  0.58538  1.0000
  Fe  Fe95      1.0  0.67276  0.17526  0.63430  1.0000
  S   S184      1.0  0.63640  0.17989  0.61766  1.0000
  S   S185      1.0  0.74223  0.17505  0.65415  1.0000
  S   S186      1.0  0.68212  0.17047  0.67306  1.0000
  H   H689      1.0  0.80385  0.31792  0.57828  1.0000
  H   H690      1.0  0.76555  0.29865  0.69852  1.0000
  C   C438      1.0  0.75432  0.20029  0.55969  1.0000
  C   C439      1.0  0.77007  0.20024  0.53998  1.0000
  C   C440      1.0  0.77157  0.21624  0.51946  1.0000
  C   C441      1.0  0.75729  0.23241  0.51853  1.0000
  C   C442      1.0  0.74134  0.23238  0.53816  1.0000
  C   C443      1.0  0.73981  0.21630  0.55872  1.0000
  H   H691      1.0  0.78138  0.18793  0.54065  1.0000
  H   H692      1.0  0.78397  0.21618  0.50444  1.0000
  H   H693      1.0  0.73049  0.24509  0.53754  1.0000
  H   H694      1.0  0.72774  0.21654  0.57389  1.0000
  C   C444      1.0  0.68575  0.08628  0.70498  1.0000
  N   N43       1.0  0.69190  0.28759  0.66104  1.0000
  C   C445      1.0  0.69902  0.26603  0.67112  1.0000
  C   C446      1.0  0.53731  0.26815  0.72218  1.0000
  H   H695      1.0  0.71003  0.27229  0.68870  1.0000
  C   C447      1.0  0.55480  0.25449  0.55415  1.0000
  C   C448      1.0  0.57474  0.24701  0.56389  1.0000
  C   C449      1.0  0.58741  0.23510  0.54932  1.0000
  C   C450      1.0  0.57991  0.23020  0.52505  1.0000
  C   C451      1.0  0.55955  0.23718  0.51550  1.0000
  C   C452      1.0  0.54715  0.24940  0.52997  1.0000
  H   H696      1.0  0.58044  0.25041  0.58261  1.0000
  H   H697      1.0  0.60288  0.22948  0.55694  1.0000
  H   H698      1.0  0.69769  0.03646  0.53228  1.0000
  H   H699      1.0  0.53167  0.25502  0.52230  1.0000
  C   C453      1.0  0.60035  0.22520  0.66289  1.0000
  C   C454      1.0  0.59544  0.22290  0.63820  1.0000
  C   C455      1.0  0.60624  0.20859  0.62446  1.0000
  C   C456      1.0  0.62238  0.19696  0.63531  1.0000
  C   C457      1.0  0.62737  0.19937  0.65997  1.0000
  C   C458      1.0  0.61613  0.21323  0.67378  1.0000
  H   H700      1.0  0.58290  0.23170  0.62972  1.0000
  H   H701      1.0  0.60212  0.20660  0.60541  1.0000
  H   H702      1.0  0.63945  0.19012  0.66849  1.0000
  H   H703      1.0  0.61981  0.21479  0.69289  1.0000
  H   H704      1.0  0.78750  0.29382  0.53837  1.0000
  H   H705      1.0  0.77567  0.24973  0.64351  1.0000
  H   H706      1.0  0.68087  0.17807  0.55065  1.0000
  N   N44       1.0  0.64277  0.18140  0.54368  1.0000
  C   C459      1.0  0.65821  0.16756  0.55537  1.0000
  C   C460      1.0  0.65466  0.21054  0.55171  1.0000
  C   C461      1.0  0.61276  0.16652  0.55019  1.0000
  C   C462      1.0  0.64544  0.18108  0.51746  1.0000
  C   C463      1.0  0.75469  0.19333  0.72759  1.0000
  S   S187      1.0  0.49488  0.29211  0.67321  1.0000
  H   H707      1.0  0.73464  0.19157  0.71973  1.0000
  H   H708      1.0  0.64367  0.22162  0.54289  1.0000
  H   H709      1.0  0.80996  0.28317  0.52293  1.0000
  H   H710      1.0  0.67736  0.22233  0.54740  1.0000
  H   H711      1.0  0.60054  0.17655  0.54176  1.0000
  H   H712      1.0  0.82109  0.27180  0.58736  1.0000
  H   H713      1.0  0.60295  0.14448  0.54433  1.0000
  N   N45       1.0  0.82485  0.29961  0.55790  1.0000
  H   H714      1.0  0.68299  0.29985  0.69487  1.0000
  H   H715      1.0  0.66783  0.19230  0.51192  1.0000
  N   N46       1.0  0.74250  0.06025  0.53646  1.0000
  C   C464      1.0  0.74130  0.05877  0.56285  1.0000
  C   C465      1.0  0.76809  0.05896  0.52859  1.0000
  C   C466      1.0  0.74320  0.08668  0.52787  1.0000
  C   C467      1.0  0.71746  0.03648  0.52645  1.0000
  H   H716      1.0  0.67235  0.29430  0.62934  1.0000
  H   H717      1.0  0.80906  0.25507  0.55908  1.0000
  H   H718      1.0  0.76815  0.03915  0.53462  1.0000
  H   H719      1.0  0.67072  0.11467  0.71694  1.0000
  H   H720      1.0  0.71663  0.01618  0.53216  1.0000
  H   H721      1.0  0.71308  0.26209  0.65905  1.0000
  C   C468      1.0  0.67268  0.29162  0.67732  1.0000
  H   H722      1.0  0.78746  0.07653  0.53580  1.0000
  H   H723      1.0  0.53229  0.28171  0.70983  1.0000
  H   H724      1.0  0.65340  0.27177  0.68080  1.0000
  N   N47       1.0  0.51318  0.24015  0.72424  1.0000
  H   H725      1.0  0.72225  0.05971  0.56945  1.0000
  C   C469      1.0  0.81022  0.27235  0.57034  1.0000
  S   S188      1.0  0.57708  0.30918  0.67443  1.0000
  H   H726      1.0  0.83727  0.32341  0.59026  1.0000
  H   H727      1.0  0.63650  0.15941  0.51073  1.0000
  H   H728      1.0  0.75994  0.07633  0.57103  1.0000
  C   C470      1.0  0.85392  0.30518  0.55259  1.0000
  H   H729      1.0  0.74069  0.03897  0.56981  1.0000
  C   C471      1.0  0.77420  0.29735  0.68156  1.0000
  S   S189      1.0  0.59675  0.21599  0.50703  1.0000
  H   H730      1.0  0.52375  0.22604  0.69208  1.0000
  H   H731      1.0  0.65253  0.21149  0.57139  1.0000
  H   H732      1.0  0.67995  0.24580  0.67386  1.0000
  H   H733      1.0  0.74216  0.12668  0.71759  1.0000
  H   H734      1.0  0.55614  0.26711  0.71510  1.0000
  H   H735      1.0  0.86590  0.30578  0.56925  1.0000
  H   H736      1.0  0.66565  0.30659  0.66960  1.0000
  H   H737      1.0  0.60408  0.31037  0.54232  1.0000
  H   H738      1.0  0.69174  0.27490  0.62487  1.0000
  H   H739      1.0  0.63403  0.19137  0.50807  1.0000
  H   H740      1.0  0.80628  0.29299  0.62134  1.0000
  H   H741      1.0  0.85420  0.28874  0.54102  1.0000
  H   H742      1.0  0.61002  0.16636  0.56989  1.0000
  C   C472      1.0  0.77981  0.26978  0.65055  1.0000
  H   H743      1.0  0.86552  0.32552  0.54307  1.0000
  H   H744      1.0  0.76199  0.10509  0.53488  1.0000
  H   H745      1.0  0.69892  0.05474  0.69868  1.0000
  H   H746      1.0  0.78826  0.26752  0.57482  1.0000
  S   S190      1.0  0.76032  0.25384  0.49350  1.0000
  H   H747      1.0  0.76240  0.15706  0.69961  1.0000
  S   S191      1.0  0.77789  0.01260  0.48993  1.0000
  H   H748      1.0  0.76961  0.06013  0.50876  1.0000
  S   S192      1.0  0.74669  0.24080  0.68846  1.0000
  H   H749      1.0  0.61505  0.30304  0.57085  1.0000
  C   C473      1.0  0.67530  0.09770  0.72201  1.0000
  H   H750      1.0  0.74399  0.08831  0.50797  1.0000
  H   H751      1.0  0.71751  0.03721  0.50655  1.0000
  H   H752      1.0  0.53916  0.22036  0.73303  1.0000
  H   H753      1.0  0.72427  0.08847  0.53354  1.0000
  C   C474      1.0  0.76855  0.27129  0.67250  1.0000
  H   H754      1.0  0.65700  0.16780  0.57519  1.0000
  H   H755      1.0  0.55345  0.23332  0.49691  1.0000
  C   C475      1.0  0.74543  0.14817  0.71309  1.0000
  H   H756      1.0  0.65821  0.25864  0.63918  1.0000
  C   C476      1.0  0.50568  0.22756  0.70031  1.0000
  C   C477      1.0  0.80988  0.29906  0.53528  1.0000
  H   H757      1.0  0.49935  0.24024  0.68795  1.0000
  H   H758      1.0  0.81976  0.31948  0.52565  1.0000
  C   C478      1.0  0.67796  0.27850  0.63752  1.0000
  C   C479      1.0  0.80270  0.32042  0.64693  1.0000
  C   C480      1.0  0.49287  0.30693  0.70054  1.0000
  H   H759      1.0  0.73303  0.31185  0.64613  1.0000
  H   H760      1.0  0.49622  0.28039  0.54371  1.0000
  C   C481      1.0  0.71789  0.31411  0.65817  1.0000
  H   H761      1.0  0.77115  0.20388  0.71384  1.0000
  C   C482      1.0  0.62230  0.31718  0.55496  1.0000
  C   C483      1.0  0.79085  0.32181  0.66861  1.0000
  H   H762      1.0  0.63891  0.31368  0.54622  1.0000
  S   S193      1.0  0.55375  0.32083  0.62281  1.0000
  C   C484      1.0  0.68610  0.05296  0.73525  1.0000
  N   N48       1.0  0.75220  0.16569  0.73451  1.0000
  H   H763      1.0  0.79656  0.17903  0.73217  1.0000
  C   C485      1.0  0.51693  0.32497  0.71319  1.0000
  H   H764      1.0  0.72891  0.32163  0.67562  1.0000
  Fe  Fe96      1.0  0.67458  0.01303  0.79312  1.0000
  H   H765      1.0  0.78331  0.10311  0.97703  1.0000
  C   C486      1.0  0.52093  0.22250  0.74019  1.0000
  C   C487      1.0  0.74814  0.99890  0.88250  1.0000
  H   H766      1.0  0.76007  0.20740  0.74315  1.0000
  H   H767      1.0  0.83333  0.07911  0.95487  1.0000
  S   S194      1.0  0.87833  0.00868  0.95813  1.0000
  H   H768      1.0  0.73408  0.16461  0.76877  1.0000
  C   C488      1.0  0.67588  0.06447  0.75234  1.0000
  H   H769      1.0  0.79440  0.03170  0.96140  1.0000
  S   S195      1.0  0.71699  0.01482  0.80030  1.0000
  Fe  Fe97      1.0  0.84900  0.02834  0.95579  1.0000
  H   H770      1.0  0.76449  0.08096  0.95254  1.0000
  S   S196      1.0  0.83445  0.04110  0.92090  1.0000
  H   H771      1.0  0.77775  0.14831  0.75027  1.0000
  H   H772      1.0  0.70907  0.14986  0.74486  1.0000
  H   H773      1.0  0.80930  0.08442  0.93537  1.0000
  C   C489      1.0  0.81685  0.08632  0.95426  1.0000
  C   C490      1.0  0.77933  0.04051  0.96279  1.0000
  C   C491      1.0  0.80119  0.02398  0.90625  1.0000
  C   C492      1.0  0.79614  0.03605  0.88534  1.0000
  C   C493      1.0  0.76981  0.02361  0.87348  1.0000
  S   S197      1.0  0.67043  0.05200  0.78236  1.0000
  H   H774      1.0  0.76952  0.03875  0.94476  1.0000
  H   H775      1.0  0.81267  0.05530  0.87835  1.0000
  H   H776      1.0  0.76616  0.03337  0.85762  1.0000
  H   H777      1.0  0.66223  0.09566  0.75863  1.0000
  H   H778      1.0  0.52689  0.23152  0.75836  1.0000
  C   C494      1.0  0.67043  0.08684  0.74558  1.0000
  H   H779      1.0  0.76258  0.02698  0.97541  1.0000
  H   H780      1.0  0.78044  0.00407  0.80670  1.0000
  C   C495      1.0  0.77331  0.08120  0.97078  1.0000
  H   H781      1.0  0.49404  0.25272  0.75190  1.0000
  C   C496      1.0  0.72954  0.15225  0.75217  1.0000
  H   H782      1.0  0.72655  0.13099  0.75733  1.0000
  H   H783      1.0  0.78477  0.18195  0.76135  1.0000
  S   S198      1.0  0.81965  0.00021  0.98384  1.0000
  N   N49       1.0  0.79367  0.06973  0.97075  1.0000
  S   S199      1.0  0.87524  0.06215  0.98191  1.0000
  H   H784      1.0  0.50321  0.20115  0.74216  1.0000
  H   H785      1.0  0.69040  0.03576  0.74017  1.0000
  H   H786      1.0  0.75539  0.06883  0.98283  1.0000
  H   H787      1.0  0.82730  0.10877  0.95890  1.0000
  C   C497      1.0  0.77904  0.16891  0.74506  1.0000
  C   C498      1.0  0.77961  0.99916  0.91513  1.0000
  Fe  Fe98      1.0  0.90186  0.03991  0.98683  1.0000
  H   H788      1.0  0.54321  0.27872  0.73975  1.0000
  C   C499      1.0  0.96549  0.62958  0.03318  1.0000
  C   C500      1.0  0.95143  0.60348  0.04432  1.0000
  H   H789      1.0  0.93065  0.58889  0.03820  1.0000
  S   S200      1.0  0.94854  0.63756  0.00917  1.0000
  H   H790      1.0  0.95288  0.57580  0.07193  1.0000
  H   H791      1.0  0.90287  0.53860  0.21820  1.0000
  C   C501      1.0  0.96400  0.59609  0.06345  1.0000
  H   H792      1.0  0.90986  0.49616  0.22042  1.0000
  H   H793      1.0  0.94030  0.55958  0.21985  1.0000
  H   H794      1.0  0.94732  0.51715  0.22290  1.0000
  C   C502      1.0  0.99072  0.61475  0.07181  1.0000
  C   C503      1.0  0.92747  0.50717  0.23325  1.0000
  C   C504      1.0  0.92098  0.54861  0.23079  1.0000
  C   C505      1.0  0.49391  0.64297  0.98815  1.0000
  H   H795      1.0  0.96723  0.55433  0.25361  1.0000
  Fe  Fe99      1.0  0.93346  0.44289  0.32707  1.0000
  S   S201      1.0  0.92624  0.46723  0.29684  1.0000
  S   S202      1.0  0.90300  0.39655  0.33092  1.0000
  H   H796      1.0  0.89830  0.49801  0.27398  1.0000
  Fe  Fe100     1.0  0.92983  0.49776  0.32453  1.0000
  S   S203      1.0  0.89984  0.51595  0.32658  1.0000
  S   S204      1.0  0.93328  0.47192  0.35484  1.0000
  S   S205      1.0  0.97611  0.52462  0.32063  1.0000
  S   S206      1.0  0.50172  0.37691  0.38482  1.0000
  H   H797      1.0  0.90184  0.53065  0.37879  1.0000
  Fe  Fe101     1.0  0.51313  0.35798  0.29630  1.0000
  S   S207      1.0  0.53865  0.39272  0.32175  1.0000
  H   H798      1.0  0.71742  0.34663  0.38772  1.0000
  Fe  Fe102     1.0  0.56696  0.37242  0.32674  1.0000
  S   S208      1.0  0.61461  0.39765  0.32909  1.0000
  Fe  Fe103     1.0  0.51261  0.36322  0.35056  1.0000
  H   H799      1.0  0.86675  0.44902  0.42486  1.0000
  C   C506      1.0  0.66644  0.35758  0.35931  1.0000
  Fe  Fe104     1.0  0.77843  0.43792  0.40211  1.0000
  S   S209      1.0  0.76257  0.46985  0.39998  1.0000
  S   S210      1.0  0.78997  0.42000  0.37108  1.0000
  Fe  Fe105     1.0  0.77678  0.43411  0.45637  1.0000
  S   S211      1.0  0.76029  0.46550  0.45891  1.0000
  Fe  Fe106     1.0  0.73198  0.44282  0.42774  1.0000
  S   S212      1.0  0.68478  0.42814  0.42671  1.0000
  Fe  Fe107     1.0  0.79249  0.48948  0.43090  1.0000
  S   S213      1.0  0.82103  0.53598  0.43353  1.0000
  S   S214      1.0  0.74619  0.40950  0.42778  1.0000
  S   S215      1.0  0.81059  0.45947  0.43046  1.0000
  C   C507      1.0  0.85732  0.54886  0.43983  1.0000
  C   C508      1.0  0.89676  0.54123  0.45318  1.0000
  C   C509      1.0  0.86890  0.53077  0.44501  1.0000
  C   C510      1.0  0.87175  0.35189  0.36025  1.0000
  H   H800      1.0  0.85624  0.50865  0.44345  1.0000
  C   C511      1.0  0.63386  0.40483  0.35637  1.0000
  C   C512      1.0  0.66299  0.42219  0.35604  1.0000
  C   C513      1.0  0.67888  0.42937  0.37742  1.0000
  C   C514      1.0  0.66564  0.41969  0.39940  1.0000
  C   C515      1.0  0.63651  0.40239  0.39974  1.0000
  C   C516      1.0  0.62075  0.39466  0.37833  1.0000
  H   H801      1.0  0.67333  0.43024  0.33915  1.0000
  H   H802      1.0  0.70130  0.44274  0.37690  1.0000
  H   H803      1.0  0.62614  0.39460  0.41666  1.0000
  H   H804      1.0  0.59843  0.38098  0.37890  1.0000
  C   C517      1.0  0.89622  0.37745  0.35828  1.0000
  C   C518      1.0  0.91447  0.38700  0.37798  1.0000
  C   C519      1.0  0.90853  0.37084  0.39921  1.0000
  H   H805      1.0  0.94401  0.53154  0.36135  1.0000
  H   H806      1.0  0.93343  0.40659  0.37670  1.0000
  H   H807      1.0  0.92301  0.37824  0.41422  1.0000
  H   H808      1.0  0.95763  0.52954  0.39042  1.0000
  C   C520      1.0  0.86820  0.48940  0.33745  1.0000
  C   C521      1.0  0.85032  0.49601  0.35087  1.0000
  C   C522      1.0  0.82607  0.47468  0.36102  1.0000
  C   C523      1.0  0.81911  0.44674  0.35700  1.0000
  C   C524      1.0  0.83661  0.44017  0.34304  1.0000
  C   C525      1.0  0.86139  0.46147  0.33365  1.0000
  H   H809      1.0  0.85548  0.51757  0.35389  1.0000
  H   H810      1.0  0.81273  0.47994  0.37187  1.0000
  H   H811      1.0  0.83139  0.41864  0.33985  1.0000
  H   H812      1.0  0.87507  0.45615  0.32333  1.0000
  N   N50       1.0  0.85041  0.40693  0.41257  1.0000
  C   C526      1.0  0.86155  0.43718  0.40793  1.0000
  C   C527      1.0  0.82432  0.39668  0.42658  1.0000
  C   C528      1.0  0.87154  0.40165  0.42611  1.0000
  C   C529      1.0  0.84425  0.39222  0.38956  1.0000
  C   C530      1.0  0.70731  0.35296  0.37286  1.0000
  Fe  Fe108     1.0  0.97322  0.49251  0.29426  1.0000
  H   H813      1.0  0.84597  0.44185  0.39799  1.0000
  H   H814      1.0  0.82800  0.40753  0.44398  1.0000
  H   H815      1.0  0.80783  0.40010  0.41671  1.0000
  H   H816      1.0  0.90518  0.52695  0.45800  1.0000
  H   H817      1.0  0.86416  0.37893  0.42943  1.0000
  H   H818      1.0  0.87631  0.41195  0.44379  1.0000
  H   H819      1.0  0.89163  0.40961  0.41617  1.0000
  H   H820      1.0  0.90509  0.55558  0.40093  1.0000
  H   H821      1.0  0.86318  0.40029  0.37806  1.0000
  H   H822      1.0  0.81550  0.37395  0.43054  1.0000
  H   H823      1.0  0.93111  0.56936  0.35142  1.0000
  C   C531      1.0  0.94385  0.58086  0.36718  1.0000
  S   S216      1.0  0.94786  0.58143  0.46724  1.0000
  H   H824      1.0  0.85736  0.34467  0.34520  1.0000
  H   H825      1.0  0.82761  0.39487  0.37927  1.0000
  H   H826      1.0  0.58586  0.42278  0.39128  1.0000
  N   N51       1.0  0.94422  0.56144  0.38606  1.0000
  H   H827      1.0  0.96546  0.59488  0.36085  1.0000
  H   H828      1.0  0.97835  0.55730  0.37012  1.0000
  Fe  Fe109     1.0  0.98477  0.62429  0.46291  1.0000
  H   H829      1.0  0.70647  0.34064  0.35690  1.0000
  H   H830      1.0  0.94430  0.55674  0.27555  1.0000
  H   H831      1.0  0.67980  0.37983  0.35434  1.0000
  H   H832      1.0  0.91473  0.52844  0.40821  1.0000
  C   C532      1.0  0.88409  0.34527  0.40116  1.0000
  C   C533      1.0  0.86556  0.33599  0.38164  1.0000
  H   H833      1.0  0.89344  0.52860  0.27223  1.0000
  H   H834      1.0  0.96203  0.56351  0.42121  1.0000
  N   N52       1.0  0.92324  0.52789  0.24723  1.0000
  H   H835      1.0  0.91580  0.61056  0.45052  1.0000
  H   H836      1.0  0.95079  0.52694  0.27515  1.0000
  S   S217      1.0  0.98820  0.50305  0.25558  1.0000
  H   H837      1.0  0.83687  0.36947  0.39230  1.0000
  N   N53       1.0  0.59512  0.45701  0.36662  1.0000
  C   C534      1.0  0.59035  0.47419  0.38444  1.0000
  C   C535      1.0  0.62542  0.46475  0.36577  1.0000
  C   C536      1.0  0.58549  0.46167  0.34278  1.0000
  C   C537      1.0  0.57913  0.42730  0.37348  1.0000
  H   H838      1.0  0.59760  0.47119  0.40256  1.0000
  H   H839      1.0  0.56760  0.46855  0.38566  1.0000
  H   H840      1.0  0.60182  0.49676  0.37976  1.0000
  H   H841      1.0  0.63309  0.45957  0.38289  1.0000
  H   H842      1.0  0.62987  0.45346  0.35136  1.0000
  H   H843      1.0  0.63832  0.48739  0.36207  1.0000
  H   H844      1.0  0.58914  0.44913  0.32892  1.0000
  H   H845      1.0  0.59684  0.48391  0.33706  1.0000
  H   H846      1.0  0.56256  0.45548  0.34257  1.0000
  H   H847      1.0  0.58200  0.41371  0.36033  1.0000
  H   H848      1.0  0.55619  0.42077  0.37431  1.0000
  C   C538      1.0  0.89720  0.51365  0.26127  1.0000
  C   C539      1.0  0.91377  0.56998  0.45529  1.0000
  H   H849      1.0  0.98337  0.59136  0.40128  1.0000
  H   H850      1.0  0.93464  0.59420  0.37378  1.0000
  C   C540      1.0  0.96129  0.57748  0.40656  1.0000
  C   C541      1.0  0.91518  0.54322  0.39386  1.0000
  C   C542      1.0  0.94743  0.54219  0.26361  1.0000
  C   C543      1.0  0.87454  0.57773  0.44142  1.0000
  C   C544      1.0  0.95660  0.54421  0.37659  1.0000
  H   H851      1.0  0.95256  0.59074  0.41421  1.0000
  C   C545      1.0  0.90283  0.58833  0.44889  1.0000
  H   H852      1.0  0.88089  0.44544  0.39691  1.0000
  S   S218      1.0  0.54257  0.34540  0.35709  1.0000
  H   H853      1.0  0.86580  0.59193  0.43737  1.0000
  H   H854      1.0  0.72154  0.37530  0.36861  1.0000
  Fe  Fe110     1.0  0.97960  0.49566  0.34842  1.0000
  S   S219      1.0  0.54393  0.34003  0.29884  1.0000
  S   S220      1.0  0.98046  0.46499  0.32200  1.0000
  H   H855      1.0  0.66385  0.34500  0.34311  1.0000
  H   H856      1.0  0.69500  0.38799  0.39714  1.0000
  H   H857      1.0  0.92912  0.49110  0.24509  1.0000
  S   S221      1.0  0.50109  0.37028  0.26010  1.0000
  N   N54       1.0  0.67898  0.34875  0.37944  1.0000
  S   S222      1.0  0.79041  0.41325  0.48554  1.0000
  C   C546      1.0  0.68119  0.36547  0.40065  1.0000
  H   H858      1.0  0.64529  0.35530  0.36387  1.0000
  H   H859      1.0  0.69010  0.35909  0.41635  1.0000
  H   H860      1.0  0.66030  0.36325  0.40594  1.0000
  H   H861      1.0  0.87846  0.50252  0.24955  1.0000
  H   H862      1.0  0.82335  0.50241  0.47575  1.0000
  H   H863      1.0  0.91808  0.56472  0.24078  1.0000
  Fe  Fe111     1.0  0.84028  0.44473  0.66627  1.0000
  S   S223      1.0  0.84356  0.43243  0.62854  1.0000
  S   S224      1.0  0.87224  0.48453  0.68434  1.0000
  Fe  Fe112     1.0  0.77875  0.40056  0.66988  1.0000
  S   S225      1.0  0.77711  0.38518  0.63293  1.0000
  S   S226      1.0  0.73994  0.37995  0.69226  1.0000
  Fe  Fe113     1.0  0.81924  0.38822  0.64240  1.0000
  S   S227      1.0  0.82448  0.35101  0.63089  1.0000
  Fe  Fe114     1.0  0.80093  0.43015  0.62235  1.0000
  S   S228      1.0  0.78632  0.44849  0.59176  1.0000
  S   S229      1.0  0.81945  0.40065  0.68062  1.0000
  S   S230      1.0  0.79907  0.44544  0.65888  1.0000
  H   H864      1.0  0.95986  0.51829  0.69976  1.0000
  C   C547      1.0  0.90206  0.46773  0.71653  1.0000
  H   H865      1.0  0.82207  0.47691  0.70625  1.0000
  H   H866      1.0  0.95670  0.54575  0.66569  1.0000
  C   C548      1.0  0.90794  0.51463  0.72031  1.0000
  N   N55       1.0  0.99096  0.55992  0.69106  1.0000
  H   H867      1.0  0.52690  0.64366  0.70614  1.0000
  C   C549      1.0  0.78509  0.43573  0.56292  1.0000
  C   C550      1.0  0.77041  0.44211  0.54479  1.0000
  C   C551      1.0  0.77111  0.43443  0.52110  1.0000
  C   C552      1.0  0.78671  0.42050  0.51542  1.0000
  C   C553      1.0  0.80069  0.41335  0.53367  1.0000
  C   C554      1.0  0.79987  0.42091  0.55742  1.0000
  H   H868      1.0  0.75873  0.45333  0.54908  1.0000
  C   C555      1.0  0.65985  0.35804  0.67109  1.0000
  H   H869      1.0  0.81269  0.40248  0.52937  1.0000
  H   H870      1.0  0.81125  0.41594  0.57135  1.0000
  C   C556      1.0  0.97887  0.57390  0.70606  1.0000
  C   C557      1.0  0.92159  0.47271  0.73538  1.0000
  C   C558      1.0  0.68347  0.36085  0.68449  1.0000
  C   C559      1.0  0.71057  0.37791  0.67609  1.0000
  C   C560      1.0  0.71401  0.39266  0.65452  1.0000
  C   C561      1.0  0.69042  0.39048  0.64149  1.0000
  H   H871      1.0  0.87507  0.54606  0.50207  1.0000
  H   H872      1.0  0.89257  0.44776  0.70779  1.0000
  H   H873      1.0  0.73485  0.40608  0.64797  1.0000
  H   H874      1.0  0.69327  0.40230  0.62502  1.0000
  C   C562      1.0  0.84175  0.50762  0.53451  1.0000
  H   H875      1.0  0.82654  0.48599  0.53982  1.0000
  N   N56       1.0  0.83307  0.51636  0.51192  1.0000
  H   H876      1.0  0.66417  0.37633  0.58500  1.0000
  H   H877      1.0  0.65028  0.38706  0.54487  1.0000
  C   C563      1.0  0.60962  0.35008  0.57289  1.0000
  H   H878      1.0  0.78838  0.42780  0.71073  1.0000
  H   H879      1.0  0.98580  0.59589  0.70017  1.0000
  H   H880      1.0  0.98875  0.54763  0.65447  1.0000
  C   C564      1.0  0.66330  0.37302  0.64965  1.0000
  C   C565      1.0  0.89543  0.48885  0.70872  1.0000
  H   H881      1.0  0.98550  0.57446  0.72513  1.0000
  H   H882      1.0  0.81596  0.47522  0.49737  1.0000
  C   C566      1.0  0.81971  0.48026  0.72546  1.0000
  S   S231      1.0  0.63402  0.37002  0.63273  1.0000
  H   H883      1.0  0.80611  0.53002  0.52935  1.0000
  C   C567      1.0  0.98005  0.55802  0.66633  1.0000
  H   H884      1.0  0.65985  0.36268  0.53149  1.0000
  H   H885      1.0  0.83564  0.34261  0.56429  1.0000
  N   N57       1.0  0.63266  0.34660  0.56179  1.0000
  C   C568      1.0  0.83095  0.49706  0.49277  1.0000
  H   H886      1.0  0.60186  0.33671  0.58914  1.0000
  H   H887      1.0  0.79830  0.52226  0.49815  1.0000
  H   H888      1.0  0.85159  0.49751  0.48941  1.0000
  H   H889      1.0  0.85673  0.56002  0.51957  1.0000
  C   C569      1.0  0.85408  0.54494  0.50531  1.0000
  H   H890      1.0  0.71336  0.33096  0.65068  1.0000
  H   H891      1.0  0.78902  0.49451  0.51975  1.0000
  H   H892      1.0  0.63900  0.34476  0.67763  1.0000
  H   H893      1.0  0.80372  0.48801  0.72638  1.0000
  H   H894      1.0  0.64964  0.34107  0.59551  1.0000
  H   H895      1.0  0.98951  0.53206  0.71979  1.0000
  H   H896      1.0  0.83850  0.44247  0.72034  1.0000
  H   H897      1.0  0.67421  0.35240  0.57129  1.0000
  C   C570      1.0  0.80542  0.51579  0.51496  1.0000
  H   H898      1.0  0.84308  0.52138  0.54953  1.0000
  C   C571      1.0  0.65624  0.35439  0.57907  1.0000
  C   C572      1.0  0.49362  0.42251  0.70728  1.0000
  H   H899      1.0  0.84027  0.49711  0.73163  1.0000
  H   H900      1.0  0.75988  0.43959  0.50721  1.0000
  H   H901      1.0  0.79492  0.34175  0.67569  1.0000
  H   H902      1.0  0.68072  0.34960  0.70126  1.0000
  H   H903      1.0  0.95555  0.56314  0.70538  1.0000
  H   H904      1.0  0.50313  0.44397  0.71461  1.0000
  H   H905      1.0  0.98557  0.57906  0.65860  1.0000
  H   H906      1.0  0.51107  0.41736  0.70348  1.0000
  C   C573      1.0  0.98300  0.53159  0.70068  1.0000
  H   H907      1.0  0.86265  0.50806  0.53285  1.0000
  H   H908      1.0  0.90266  0.53097  0.71457  1.0000
  H   H909      1.0  0.61669  0.37194  0.57864  1.0000
  C   C574      1.0  0.64239  0.36472  0.54029  1.0000
  H   H910      1.0  0.62512  0.35937  0.52686  1.0000
  H   H911      1.0  0.59134  0.34425  0.56049  1.0000
  H   H912      1.0  0.76778  0.43774  0.72935  1.0000
  C   C575      1.0  0.51437  0.33514  0.73549  1.0000
  H   H913      1.0  0.53751  0.33109  0.70583  1.0000
  C   C576      1.0  0.78535  0.43206  0.72952  1.0000
  H   H914      1.0  0.84774  0.55233  0.48863  1.0000
  Fe  Fe115     1.0  0.59549  0.32964  0.63937  1.0000
  H   H915      1.0  0.95426  0.60328  0.96884  1.0000
  S   S232      1.0  0.53324  0.65792  0.75703  1.0000
  Fe  Fe116     1.0  0.49992  0.61246  0.76172  1.0000
  H   H916      1.0  0.77831  0.41206  0.73966  1.0000
  H   H917      1.0  0.49935  0.65286  0.93849  1.0000
  N   N58       1.0  0.81145  0.45434  0.73969  1.0000
  H   H918      1.0  0.91120  0.62141  0.91120  1.0000
  S   S233      1.0  0.49738  0.58945  0.79669  1.0000
  H   H919      1.0  0.51192  0.64244  0.98023  1.0000
  H   H920      1.0  0.78958  0.46540  0.76590  1.0000
  H   H921      1.0  0.88749  0.60259  0.94952  1.0000
  H   H922      1.0  0.94157  0.64855  0.92517  1.0000
  H   H923      1.0  0.90629  0.59596  0.97386  1.0000
  S   S234      1.0  0.96067  0.50478  0.76889  1.0000
  H   H924      1.0  0.82841  0.42605  0.74916  1.0000
  H   H925      1.0  0.93227  0.57668  0.91937  1.0000
  C   C577      1.0  0.91767  0.57863  0.93229  1.0000
  C   C578      1.0  0.92748  0.51961  0.73912  1.0000
  C   C579      1.0  0.95611  0.61615  0.95250  1.0000
  H   H926      1.0  0.91507  0.56404  0.94752  1.0000
  C   C580      1.0  0.80671  0.45920  0.76471  1.0000
  H   H927      1.0  0.50262  0.61786  0.88324  1.0000
  H   H928      1.0  0.97139  0.61419  0.94046  1.0000
  N   N59       1.0  0.92856  0.60759  0.94057  1.0000
  C   C581      1.0  0.93178  0.62626  0.91985  1.0000
  H   H929      1.0  0.93707  0.53959  0.74783  1.0000
  S   S235      1.0  0.49693  0.51652  0.77826  1.0000
  H   H930      1.0  0.51828  0.65657  0.91150  1.0000
  C   C582      1.0  0.90867  0.60923  0.95768  1.0000
  H   H931      1.0  0.94538  0.62436  0.90594  1.0000
  H   H932      1.0  0.92699  0.45643  0.74107  1.0000
  C   C583      1.0  0.93475  0.49881  0.74648  1.0000
  C   C584      1.0  0.50305  0.60539  0.93044  1.0000
  H   H933      1.0  0.89690  0.57145  0.92317  1.0000
  H   H934      1.0  0.50465  0.39558  0.74423  1.0000
  H   H935      1.0  0.91616  0.63084  0.96415  1.0000
  C   C585      1.0  0.83407  0.44582  0.73901  1.0000
  H   H936      1.0  0.96533  0.63818  0.95837  1.0000
  H   H937      1.0  0.49384  0.46218  0.77485  1.0000
  H   H938      1.0  0.82602  0.47608  0.77279  1.0000
  C   C586      1.0  0.49705  0.64608  0.91960  1.0000
  H   H939      1.0  0.52450  0.61491  0.92275  1.0000
  H   H940      1.0  0.53306  0.34901  0.74525  1.0000
  H   H941      1.0  0.80068  0.44008  0.77595  1.0000
  S   S236      1.0  0.98635  0.58588  0.78378  1.0000
  H   H942      1.0  0.85409  0.46203  0.74673  1.0000
  H   H943      1.0  0.49785  0.42305  0.75507  1.0000
  H   H944      1.0  0.50508  0.61029  0.94978  1.0000
  H   H945      1.0  0.49431  0.58230  0.92913  1.0000
  C   C587      1.0  0.99092  0.84467  0.04592  1.0000
  Fe  Fe117     1.0  0.66572  0.88083  0.12457  1.0000
  S   S237      1.0  0.68592  0.88960  0.16118  1.0000
  S   S238      1.0  0.62768  0.83951  0.11667  1.0000
  Fe  Fe118     1.0  0.70263  0.93976  0.10719  1.0000
  S   S239      1.0  0.72473  0.95400  0.14258  1.0000
  Fe  Fe119     1.0  0.72684  0.91317  0.14187  1.0000
  S   S240      1.0  0.76890  0.91536  0.15288  1.0000
  Fe  Fe120     1.0  0.68207  0.92946  0.15918  1.0000
  H   H946      1.0  0.95114  0.97523  0.11705  1.0000
  S   S241      1.0  0.70703  0.90046  0.10555  1.0000
  S   S242      1.0  0.65994  0.91932  0.12341  1.0000
  H   H947      1.0  0.61270  0.73899  0.00618  1.0000
  H   H948      1.0  0.82240  0.98222  0.06080  1.0000
  C   C588      1.0  0.69592  0.98795  0.20711  1.0000
  H   H949      1.0  0.83471  0.98519  0.20152  1.0000
  H   H950      1.0  0.92562  0.96267  0.09309  1.0000
  Fe  Fe121     1.0  0.86509  0.85609  0.10343  1.0000
  S   S243      1.0  0.89567  0.90087  0.10930  1.0000
  S   S244      1.0  0.81841  0.84331  0.10187  1.0000
  Fe  Fe122     1.0  0.91146  0.83838  0.09563  1.0000
  S   S245      1.0  0.94527  0.88214  0.10120  1.0000
  S   S246      1.0  0.92705  0.80606  0.08954  1.0000
  Fe  Fe123     1.0  0.91955  0.88373  0.13173  1.0000
  S   S247      1.0  0.94325  0.90377  0.16564  1.0000
  Fe  Fe124     1.0  0.91823  0.89492  0.07844  1.0000
  S   S248      1.0  0.93651  0.92820  0.05012  1.0000
  S   S249      1.0  0.88740  0.83891  0.12826  1.0000
  S   S250      1.0  0.88617  0.85124  0.07052  1.0000
  C   C589      1.0  0.93329  0.76942  0.01746  1.0000
  C   C590      1.0  0.94577  0.76494  0.03823  1.0000
  C   C591      1.0  0.94299  0.77567  0.06022  1.0000
  C   C592      1.0  0.92795  0.79121  0.06172  1.0000
  C   C593      1.0  0.91533  0.79558  0.04101  1.0000
  C   C594      1.0  0.91804  0.78476  0.01901  1.0000
  H   H951      1.0  0.95747  0.75316  0.03738  1.0000
  H   H952      1.0  0.95279  0.77214  0.07614  1.0000
  H   H953      1.0  0.90342  0.80722  0.04192  1.0000
  H   H954      1.0  0.83449  0.95397  0.09092  1.0000
  C   C595      1.0  0.90875  0.93072  0.03482  1.0000
  C   C596      1.0  0.88089  0.91167  0.03974  1.0000
  C   C597      1.0  0.85872  0.91345  0.02738  1.0000
  C   C598      1.0  0.86426  0.93501  0.01078  1.0000
  C   C599      1.0  0.82269  0.93556  0.07945  1.0000
  C   C600      1.0  0.91432  0.95209  0.01795  1.0000
  H   H955      1.0  0.87627  0.89535  0.05292  1.0000
  C   C601      1.0  0.78008  0.94020  0.08326  1.0000
  H   H956      1.0  0.78447  0.90394  0.23102  1.0000
  H   H957      1.0  0.76454  0.93737  0.22641  1.0000
  C   C602      1.0  0.78227  0.89510  0.13856  1.0000
  C   C603      1.0  0.76593  0.87434  0.12239  1.0000
  C   C604      1.0  0.77726  0.85861  0.11130  1.0000
  C   C605      1.0  0.80502  0.86359  0.11615  1.0000
  C   C606      1.0  0.82140  0.88446  0.13223  1.0000
  C   C607      1.0  0.81002  0.90008  0.14345  1.0000
  H   H958      1.0  0.74445  0.87013  0.11866  1.0000
  H   H959      1.0  0.76444  0.84237  0.09899  1.0000
  H   H960      1.0  0.84266  0.88823  0.13633  1.0000
  H   H961      1.0  0.82281  0.91600  0.15599  1.0000
  N   N60       1.0  0.80724  0.94657  0.21898  1.0000
  H   H962      1.0  0.62883  0.94959  0.22580  1.0000
  H   H963      1.0  0.94812  0.85130  0.02471  1.0000
  C   C608      1.0  0.64990  0.96657  0.22492  1.0000
  C   C609      1.0  0.61007  0.83659  0.08899  1.0000
  C   C610      1.0  0.58494  0.81249  0.08408  1.0000
  C   C611      1.0  0.57051  0.80988  0.06217  1.0000
  C   C612      1.0  0.58127  0.83135  0.04502  1.0000
  C   C613      1.0  0.60622  0.85547  0.05010  1.0000
  C   C614      1.0  0.62054  0.85812  0.07197  1.0000
  H   H964      1.0  0.57657  0.79586  0.09730  1.0000
  H   H965      1.0  0.61462  0.87224  0.03699  1.0000
  H   H966      1.0  0.63982  0.87683  0.07555  1.0000
  C   C615      1.0  0.49283  0.66838  0.98956  1.0000
  N   N61       1.0  0.58365  0.87376  0.15490  1.0000
  H   H967      1.0  0.54906  0.83442  0.16430  1.0000
  H   H968      1.0  0.59536  0.90913  0.17768  1.0000
  C   C616      1.0  0.58081  0.86771  0.12905  1.0000
  S   S251      1.0  0.65793  0.93599  0.18980  1.0000
  C   C617      1.0  0.93909  0.92795  0.20698  1.0000
  C   C618      1.0  0.92541  0.91452  0.18590  1.0000
  C   C619      1.0  0.89779  0.90976  0.18136  1.0000
  C   C620      1.0  0.88390  0.91831  0.19787  1.0000
  C   C621      1.0  0.89745  0.93144  0.21908  1.0000
  H   H969      1.0  0.88703  0.89928  0.16524  1.0000
  H   H970      1.0  0.86249  0.91443  0.19425  1.0000
  H   H971      1.0  0.77094  0.92183  0.09556  1.0000
  H   H972      1.0  0.93578  0.96683  0.01393  1.0000
  C   C622      1.0  0.81133  0.96271  0.05042  1.0000
  H   H973      1.0  0.90814  0.78819  0.00310  1.0000
  C   C623      1.0  0.78155  0.94951  0.21354  1.0000
  H   H974      1.0  0.73405  0.97883  0.02680  1.0000
  H   H975      1.0  0.81458  0.91669  0.09123  1.0000
  S   S252      1.0  0.98154  0.72023  0.01419  1.0000
  C   C624      1.0  0.66889  0.96565  0.20829  1.0000
  H   H976      1.0  0.59901  0.84390  0.16323  1.0000
  C   C625      1.0  0.60748  0.76563  0.04453  1.0000
  H   H977      1.0  0.55177  0.74681  0.04939  1.0000
  H   H978      1.0  0.94930  0.85629  0.05627  1.0000
  H   H979      1.0  0.83787  0.93391  0.06702  1.0000
  H   H980      1.0  0.55100  0.79149  0.05863  1.0000
  H   H981      1.0  0.98857  0.84841  0.17449  1.0000
  H   H982      1.0  0.79304  0.90824  0.19982  1.0000
  C   C626      1.0  0.75007  0.98935  0.04024  1.0000
  Fe  Fe125     1.0  0.52790  0.79168  0.00092  1.0000
  H   H983      1.0  0.56512  0.87315  0.12021  1.0000
  C   C627      1.0  0.74313  0.98498  0.06448  1.0000
  Fe  Fe126     1.0  0.96923  0.68092  0.99387  1.0000
  H   H984      1.0  0.60109  0.87965  0.11966  1.0000
  S   S253      1.0  0.70829  0.96315  0.07248  1.0000
  H   H985      1.0  0.79085  0.95902  0.09451  1.0000
  H   H986      1.0  0.59599  0.71425  0.02998  1.0000
  S   S254      1.0  0.56458  0.82917  0.01699  1.0000
  H   H987      1.0  0.95791  0.88433  0.21046  1.0000
  H   H988      1.0  0.62791  0.77749  0.03531  1.0000
  H   H989      1.0  0.89649  0.97121  0.99337  1.0000
  N   N62       1.0  0.79959  0.93778  0.06621  1.0000
  H   H990      1.0  0.98157  0.83630  0.06370  1.0000
  C   C628      1.0  0.60483  0.86632  0.16569  1.0000
  C   C629      1.0  0.58123  0.76574  0.00901  1.0000
  H   H991      1.0  0.76644  0.91336  0.04162  1.0000
  H   H992      1.0  0.76231  0.94176  0.07382  1.0000
  H   H993      1.0  0.55774  0.86123  0.18608  1.0000
  H   H994      1.0  0.57427  0.84528  0.12580  1.0000
  C   C630      1.0  0.55632  0.85715  0.16655  1.0000
  H   H995      1.0  0.95998  0.83196  0.19509  1.0000
  C   C631      1.0  0.59287  0.72801  0.01641  1.0000
  H   H996      1.0  0.56043  0.71870  0.05497  1.0000
  C   C632      1.0  0.59258  0.90375  0.15838  1.0000
  H   H997      1.0  0.82171  0.95511  0.18275  1.0000
  S   S255      1.0  0.93655  0.75662  0.98928  1.0000
  H   H998      1.0  0.60786  0.87092  0.18512  1.0000
  H   H999      1.0  0.53981  0.86218  0.15882  1.0000
  H   H1000     1.0  0.62565  0.87837  0.15731  1.0000
  H   H1001     1.0  0.71070  0.98766  0.19435  1.0000
  C   C633      1.0  0.97463  0.85225  0.18677  1.0000
  N   N63       1.0  0.58503  0.74796  0.02770  1.0000
  H   H1002     1.0  0.57454  0.78058  0.01678  1.0000
  H   H1003     1.0  0.61318  0.91694  0.14987  1.0000
  H   H1004     1.0  0.57714  0.91019  0.15054  1.0000
  H   H1005     1.0  0.77318  0.94183  0.19539  1.0000
  H   H1006     1.0  0.77569  0.89334  0.06294  1.0000
  H   H1007     1.0  0.56493  0.75296  0.99571  1.0000
  H   H1008     1.0  0.96053  0.93192  0.21050  1.0000
  H   H1009     1.0  0.61070  0.75302  0.05915  1.0000
  H   H1010     1.0  0.82668  0.96191  0.03776  1.0000
  C   C634      1.0  0.82904  0.96264  0.20122  1.0000
  C   C635      1.0  0.94840  0.97522  0.09728  1.0000
  H   H1011     1.0  0.83729  0.89825  0.03094  1.0000
  C   C636      1.0  0.78429  0.91263  0.05162  1.0000
  C   C637      1.0  0.96014  0.86586  0.03925  1.0000
  H   H1012     1.0  0.54104  0.71892  0.02845  1.0000
  N   N64       1.0  0.98975  0.87096  0.04001  1.0000
  H   H1013     1.0  0.79457  0.96446  0.03953  1.0000
  C   C638      1.0  0.92511  0.93626  0.22359  1.0000
  H   H1014     1.0  0.96362  0.99130  0.05190  1.0000
  H   H1015     1.0  0.95839  0.88550  0.03620  1.0000
  C   C639      1.0  0.55841  0.73242  0.04073  1.0000
  H   H1016     1.0  0.97933  0.82837  0.03245  1.0000
  H   H1017     1.0  0.79831  0.91057  0.03818  1.0000
  H   H1018     1.0  0.78569  0.97167  0.21411  1.0000
  H   H1019     1.0  0.60242  0.78125  0.05302  1.0000
  H   H1020     1.0  0.60102  0.77838  0.99915  1.0000
  H   H1021     1.0  0.98318  0.89331  0.23456  1.0000
  H   H1022     1.0  0.57619  0.71431  0.00367  1.0000
  C   C640      1.0  0.89208  0.95453  0.00625  1.0000
  H   H1023     1.0  0.95752  0.85787  0.23060  1.0000
  C   C641      1.0  0.80082  0.91688  0.21792  1.0000
  H   H1024     1.0  0.95937  0.96394  0.08974  1.0000
  H   H1025     1.0  0.81987  0.91403  0.22191  1.0000
  C   C642      1.0  0.97159  0.87737  0.22082  1.0000
  H   H1026     1.0  0.84862  0.96061  0.20473  1.0000
  H   H1027     1.0  0.96168  0.85951  0.17558  1.0000
  Fe  Fe127     1.0  0.85076  0.98331  0.98815  1.0000
  N   N65       1.0  0.99103  0.87295  0.20507  1.0000
  S   S256      1.0  0.50317  0.74845  0.01583  1.0000
  H   H1028     1.0  0.93067  0.99117  0.05723  1.0000
  S   S257      1.0  0.83633  0.93820  0.99661  1.0000
  H   H1029     1.0  0.99161  0.86596  0.00221  1.0000
  H   H1030     1.0  0.75848  0.99536  0.10058  1.0000
  Fe  Fe128     1.0  0.92295  0.95241  0.32273  1.0000
  C   C643      1.0  0.62657  0.93473  0.38281  1.0000
  H   H1031     1.0  0.63499  0.95227  0.27997  1.0000
  C   C644      1.0  0.83774  0.98204  0.36756  1.0000
  C   C645      1.0  0.94779  0.90618  0.32756  1.0000
  C   C646      1.0  0.96892  0.87784  0.29903  1.0000
  Fe  Fe129     1.0  0.89917  0.95990  0.27501  1.0000
  S   S258      1.0  0.87928  0.94181  0.23933  1.0000
  C   C647      1.0  0.88428  0.94431  0.38001  1.0000
  H   H1032     1.0  0.87657  0.95306  0.36509  1.0000
  S   S259      1.0  0.87896  0.93728  0.30891  1.0000
  H   H1033     1.0  0.90372  0.94379  0.37389  1.0000
  H   H1034     1.0  0.65357  0.91863  0.27591  1.0000
  H   H1035     1.0  0.89292  0.90350  0.40043  1.0000
  C   C648      1.0  0.63996  0.96295  0.37625  1.0000
  Fe  Fe130     1.0  0.71613  0.95980  0.45226  1.0000
  H   H1036     1.0  0.64167  0.90613  0.30566  1.0000
  S   S260      1.0  0.67799  0.92803  0.43335  1.0000
  H   H1037     1.0  0.79313  0.96668  0.36228  1.0000
  C   C649      1.0  0.64260  0.95581  0.29880  1.0000
  Fe  Fe131     1.0  0.77878  0.98584  0.45969  1.0000
  H   H1038     1.0  0.64281  0.99040  0.25237  1.0000
  C   C650      1.0  0.95235  0.88932  0.28881  1.0000
  C   C651      1.0  0.94195  0.90360  0.30301  1.0000
  H   H1039     1.0  0.82282  0.97967  0.24457  1.0000
  H   H1040     1.0  0.82850  0.92650  0.38113  1.0000
  H   H1041     1.0  0.71030  0.96813  0.29152  1.0000
  H   H1042     1.0  0.67768  0.91687  0.29791  1.0000
  H   H1043     1.0  0.89033  0.95911  0.39511  1.0000
  C   C652      1.0  0.63851  0.92431  0.40027  1.0000
  C   C653      1.0  0.66376  0.94209  0.41156  1.0000
  S   S261      1.0  0.62490  0.97452  0.35324  1.0000
  Fe  Fe132     1.0  0.88283  0.97819  0.32148  1.0000
  H   H1044     1.0  0.62807  0.90242  0.40511  1.0000
  N   N66       1.0  0.66713  0.95041  0.30255  1.0000
  H   H1045     1.0  0.67469  0.89107  0.47303  1.0000
  H   H1046     1.0  0.84577  0.90538  0.35149  1.0000
  H   H1047     1.0  0.60695  0.92083  0.37424  1.0000
  H   H1048     1.0  0.83920  0.87618  0.37093  1.0000
  H   H1049     1.0  0.87369  0.89673  0.35887  1.0000
  C   C654      1.0  0.67715  0.97047  0.40522  1.0000
  C   C655      1.0  0.97459  0.88022  0.32362  1.0000
  S   S262      1.0  0.93626  0.92540  0.34527  1.0000
  H   H1050     1.0  0.62475  0.94214  0.31045  1.0000
  S   S263      1.0  0.98249  0.86089  0.28069  1.0000
  S   S264      1.0  0.92569  0.99179  0.33798  1.0000
  S   S265      1.0  0.82085  0.99123  0.44639  1.0000
  C   C656      1.0  0.96386  0.89419  0.33789  1.0000
  S   S266      1.0  0.74330  0.94659  0.47480  1.0000
  H   H1051     1.0  0.83692  0.95547  0.24801  1.0000
  H   H1052     1.0  0.92911  0.91230  0.29495  1.0000
  H   H1053     1.0  0.94756  0.88726  0.26987  1.0000
  H   H1054     1.0  0.68008  0.97467  0.33454  1.0000
  C   C657      1.0  0.65969  0.92170  0.29519  1.0000
  C   C658      1.0  0.67523  0.95357  0.32813  1.0000
  C   C659      1.0  0.80491  0.97804  0.39904  1.0000
  H   H1055     1.0  0.64777  0.97769  0.30316  1.0000
  H   H1056     1.0  0.68610  0.96739  0.26860  1.0000
  H   H1057     1.0  0.96829  0.89598  0.35690  1.0000
  S   S267      1.0  0.94308  0.97150  0.28781  1.0000
  N   N67       1.0  0.86262  0.91630  0.38706  1.0000
  C   C660      1.0  0.69090  0.97040  0.28806  1.0000
  C   C661      1.0  0.85494  0.89778  0.36621  1.0000
  C   C662      1.0  0.83753  0.91823  0.39548  1.0000
  S   S268      1.0  0.84302  0.97617  0.33745  1.0000
  C   C663      1.0  0.66536  0.98088  0.38737  1.0000
  H   H1058     1.0  0.65789  0.93844  0.33948  1.0000
  H   H1059     1.0  0.69403  0.95028  0.33171  1.0000
  H   H1060     1.0  0.78365  0.97207  0.40462  1.0000
  H   H1061     1.0  0.84270  0.93258  0.41089  1.0000
  H   H1062     1.0  0.85816  0.88391  0.41224  1.0000
  H   H1063     1.0  0.82074  0.89753  0.40122  1.0000
  C   C664      1.0  0.81034  0.97496  0.37505  1.0000
  C   C665      1.0  0.87392  0.90509  0.40641  1.0000
  H   H1064     1.0  0.88015  0.91875  0.42233  1.0000
  C   C666      1.0  0.62075  0.87858  0.48068  1.0000
  H   H1065     1.0  0.62843  0.88829  0.46276  1.0000
  H   H1066     1.0  0.80172  0.94547  0.25706  1.0000
  H   H1067     1.0  0.69590  0.99237  0.29187  1.0000
  S   S269      1.0  0.71035  0.98480  0.48082  1.0000
  H   H1068     1.0  0.69649  0.98441  0.41402  1.0000
  C   C667      1.0  0.82689  0.98816  0.41583  1.0000
  H   H1069     1.0  0.61105  0.85559  0.47860  1.0000
  C   C668      1.0  0.85983  0.99282  0.38422  1.0000
  H   H1070     1.0  0.98697  0.87103  0.33169  1.0000
  H   H1071     1.0  0.93572  0.94639  0.23984  1.0000
  C   C669      1.0  0.65778  0.98955  0.24013  1.0000
  H   H1072     1.0  0.66335  0.92947  0.48315  1.0000
  C   C670      1.0  0.81756  0.95727  0.24320  1.0000
  C   C671      1.0  0.85436  0.99563  0.40828  1.0000
  H   H1073     1.0  0.60393  0.88408  0.48586  1.0000
  S   S270      1.0  0.72577  0.96506  0.54171  1.0000
  Fe  Fe133     1.0  0.64514  0.83264  0.68252  1.0000
  S   S271      1.0  0.63954  0.86186  0.65628  1.0000
  S   S272      1.0  0.66982  0.84221  0.71704  1.0000
  Fe  Fe134     1.0  0.60084  0.77990  0.65911  1.0000
  S   S273      1.0  0.59171  0.80452  0.63014  1.0000
  S   S274      1.0  0.57789  0.73232  0.66225  1.0000
  Fe  Fe135     1.0  0.63863  0.83222  0.62815  1.0000
  S   S275      1.0  0.66179  0.84486  0.59236  1.0000
  Fe  Fe136     1.0  0.59357  0.83244  0.65996  1.0000
  S   S276      1.0  0.56141  0.84691  0.66748  1.0000
  S   S277      1.0  0.64768  0.80475  0.65447  1.0000
  S   S278      1.0  0.59929  0.80610  0.68873  1.0000
  C   C672      1.0  0.56210  0.71226  0.68845  1.0000
  C   C673      1.0  0.56588  0.72441  0.71096  1.0000
  H   H1074     1.0  0.61598  0.87093  0.70010  1.0000
  C   C674      1.0  0.54761  0.68304  0.68693  1.0000
  H   H1075     1.0  0.57659  0.74681  0.71250  1.0000
  H   H1076     1.0  0.64017  0.90713  0.70347  1.0000
  H   H1077     1.0  0.67727  0.77010  0.67419  1.0000
  H   H1078     1.0  0.68385  0.73432  0.71456  1.0000
  C   C675      1.0  0.61757  0.89166  0.70433  1.0000
  H   H1079     1.0  0.67423  0.92715  0.51332  1.0000
  H   H1080     1.0  0.56334  0.87453  0.71457  1.0000
  C   C676      1.0  0.63305  0.87489  0.52196  1.0000
  C   C677      1.0  0.69122  0.89881  0.70967  1.0000
  H   H1081     1.0  0.51640  0.84533  0.69571  1.0000
  H   H1082     1.0  0.63656  0.69948  0.70261  1.0000
  C   C678      1.0  0.70869  0.93162  0.55591  1.0000
  C   C679      1.0  0.71026  0.90837  0.54695  1.0000
  C   C680      1.0  0.69615  0.88214  0.55853  1.0000
  C   C681      1.0  0.68036  0.87878  0.57929  1.0000
  C   C682      1.0  0.67905  0.90212  0.58840  1.0000
  C   C683      1.0  0.69319  0.92835  0.57682  1.0000
  H   H1083     1.0  0.72277  0.91069  0.53133  1.0000
  H   H1084     1.0  0.69758  0.86433  0.55145  1.0000
  H   H1085     1.0  0.66706  0.89995  0.60435  1.0000
  H   H1086     1.0  0.69202  0.94620  0.58411  1.0000
  H   H1087     1.0  0.70993  0.94342  0.70451  1.0000
  H   H1088     1.0  0.66885  0.73385  0.67213  1.0000
  C   C684      1.0  0.51292  0.82416  0.69322  1.0000
  C   C685      1.0  0.53164  0.81896  0.67960  1.0000
  C   C686      1.0  0.52690  0.79149  0.67634  1.0000
  C   C687      1.0  0.57592  0.86994  0.72845  1.0000
  C   C688      1.0  0.65594  0.91886  0.50073  1.0000
  H   H1089     1.0  0.68372  0.88810  0.50355  1.0000
  H   H1090     1.0  0.54115  0.78730  0.66567  1.0000
  H   H1091     1.0  0.63144  0.76032  0.72640  1.0000
  C   C689      1.0  0.50344  0.76928  0.68662  1.0000
  Fe  Fe137     1.0  0.73968  0.97412  0.50277  1.0000
  C   C690      1.0  0.63977  0.76359  0.70793  1.0000
  C   C691      1.0  0.66047  0.74844  0.67719  1.0000
  C   C692      1.0  0.66590  0.88104  0.49058  1.0000
  H   H1092     1.0  0.68835  0.89447  0.69076  1.0000
  H   H1093     1.0  0.61120  0.71010  0.69197  1.0000
  N   N68       1.0  0.60569  0.89117  0.72804  1.0000
  C   C693      1.0  0.62849  0.71492  0.70525  1.0000
  C   C694      1.0  0.67466  0.74858  0.71848  1.0000
  H   H1094     1.0  0.65630  0.78560  0.70638  1.0000
  H   H1095     1.0  0.64025  0.92513  0.50743  1.0000
  H   H1096     1.0  0.61579  0.87921  0.52815  1.0000
  H   H1097     1.0  0.64286  0.74516  0.66453  1.0000
  C   C695      1.0  0.60764  0.91884  0.73280  1.0000
  H   H1098     1.0  0.54459  0.67336  0.66966  1.0000
  H   H1099     1.0  0.60617  0.89700  0.68988  1.0000
  C   C696      1.0  0.54250  0.67822  0.73018  1.0000
  N   N69       1.0  0.65084  0.74385  0.70223  1.0000
  H   H1100     1.0  0.62487  0.85188  0.52134  1.0000
  H   H1101     1.0  0.61896  0.71118  0.72332  1.0000
  C   C697      1.0  0.70352  0.92650  0.71745  1.0000
  H   H1102     1.0  0.62245  0.76131  0.69550  1.0000
  H   H1103     1.0  0.59477  0.92416  0.71978  1.0000
  C   C698      1.0  0.55657  0.70746  0.73169  1.0000
  H   H1104     1.0  0.62970  0.93548  0.73144  1.0000
  C   C699      1.0  0.68385  0.87695  0.72630  1.0000
  H   H1105     1.0  0.49983  0.74808  0.68394  1.0000
  H   H1106     1.0  0.64977  0.88271  0.53600  1.0000
  H   H1107     1.0  0.65759  0.85816  0.48863  1.0000
  H   H1108     1.0  0.69172  0.77037  0.71679  1.0000
  H   H1109     1.0  0.57362  0.84881  0.72467  1.0000
  H   H1110     1.0  0.50066  0.72071  0.73434  1.0000
  N   N70       1.0  0.64389  0.88831  0.49852  1.0000
  C   C700      1.0  0.53757  0.66611  0.70761  1.0000
  H   H1111     1.0  0.56200  0.84262  0.85187  1.0000
  C   C701      1.0  0.50293  0.72951  0.75257  1.0000
  C   C702      1.0  0.57017  0.89465  0.79688  1.0000
  H   H1112     1.0  0.53071  0.82562  0.86940  1.0000
  S   S279      1.0  0.49378  0.80003  0.91905  1.0000
  H   H1113     1.0  0.58784  0.85900  0.89098  1.0000
  C   C703      1.0  0.53051  0.90138  0.78238  1.0000
  C   C704      1.0  0.62175  0.88431  0.74652  1.0000
  C   C705      1.0  0.74433  0.93981  0.83216  1.0000
  Fe  Fe138     1.0  0.96158  0.73259  0.98375  1.0000
  H   H1114     1.0  0.64389  0.90083  0.74755  1.0000
  H   H1115     1.0  0.81086  0.99282  0.83364  1.0000
  C   C706      1.0  0.54474  0.84550  0.86012  1.0000
  H   H1116     1.0  0.58489  0.91292  0.87612  1.0000
  H   H1117     1.0  0.49908  0.74810  0.75075  1.0000
  C   C707      1.0  0.51278  0.87250  0.78356  1.0000
  C   C708      1.0  0.55255  0.86584  0.79786  1.0000
  C   C709      1.0  0.52404  0.85483  0.79130  1.0000
  H   H1118     1.0  0.56094  0.85192  0.80388  1.0000
  H   H1119     1.0  0.51071  0.83271  0.79264  1.0000
  H   H1120     1.0  0.73666  0.96772  0.91054  1.0000
  N   N71       1.0  0.76938  0.96346  0.82200  1.0000
  H   H1121     1.0  0.79821  0.95851  0.84668  1.0000
  Fe  Fe139     1.0  0.69684  0.98663  0.83197  1.0000
  H   H1122     1.0  0.50849  0.72823  0.80054  1.0000
  S   S280      1.0  0.94606  0.69161  0.96473  1.0000
  S   S281      1.0  0.51969  0.69895  0.97713  1.0000
  N   N72       1.0  0.55589  0.86910  0.87681  1.0000
  H   H1123     1.0  0.52516  0.73679  0.75835  1.0000
  Fe  Fe140     1.0  0.49639  0.77742  0.95283  1.0000
  H   H1124     1.0  0.74925  0.92296  0.83889  1.0000
  H   H1125     1.0  0.73581  0.94649  0.84741  1.0000
  H   H1126     1.0  0.61255  0.88232  0.76453  1.0000
  C   C710      1.0  0.69962  0.91044  0.75857  1.0000
  C   C711      1.0  0.57018  0.86272  0.89714  1.0000
  H   H1127     1.0  0.70284  0.91480  0.77743  1.0000
  H   H1128     1.0  0.59416  0.89201  0.85725  1.0000
  C   C712      1.0  0.77924  0.95394  0.80125  1.0000
  C   C713      1.0  0.68815  0.88282  0.75075  1.0000
  H   H1129     1.0  0.78473  0.98147  0.85645  1.0000
  H   H1130     1.0  0.55538  0.84369  0.90716  1.0000
  C   C714      1.0  0.57610  0.89456  0.86420  1.0000
  C   C715      1.0  0.53248  0.87359  0.88578  1.0000
  S   S282      1.0  0.71436  0.98219  0.86865  1.0000
  H   H1131     1.0  0.76280  0.94593  0.78687  1.0000
  S   S283      1.0  0.68222  0.94763  0.81066  1.0000
  H   H1132     1.0  0.52104  0.87814  0.87084  1.0000
  Fe  Fe141     1.0  0.69915  0.97554  0.77894  1.0000
  H   H1133     1.0  0.52198  0.91525  0.77649  1.0000
  H   H1134     1.0  0.62219  0.86433  0.74268  1.0000
  H   H1135     1.0  0.78317  0.98949  0.93110  1.0000
  H   H1136     1.0  0.56061  0.71706  0.74904  1.0000
  Fe  Fe142     1.0  0.50865  0.73441  0.97972  1.0000
  C   C716      1.0  0.76199  0.98560  0.81406  1.0000
  C   C717      1.0  0.55915  0.91245  0.78897  1.0000
  S   S284      1.0  0.53636  0.77759  0.96583  1.0000
  H   H1137     1.0  0.68248  0.86595  0.76366  1.0000
  S   S285      1.0  0.65830  0.97555  0.76947  1.0000
  Fe  Fe143     1.0  0.64217  0.95036  0.80326  1.0000
  H   H1138     1.0  0.54018  0.89141  0.89828  1.0000
  S   S286      1.0  0.60531  0.90698  0.80691  1.0000
  H   H1139     1.0  0.57249  0.93473  0.78826  1.0000
  S   S287      1.0  0.72407  0.96706  0.75140  1.0000
  H   H1140     1.0  0.57899  0.88014  0.91006  1.0000
  C   C718      1.0  0.75324  0.98682  0.90339  1.0000
  C   C719      1.0  0.79181  0.97453  0.84046  1.0000
  S   S288      1.0  0.65532  0.98771  0.82679  1.0000
  H   H1141     1.0  0.56608  0.89980  0.84856  1.0000
  H   H1142     1.0  0.51702  0.85487  0.89562  1.0000
  H   H1143     1.0  0.51068  0.69051  0.77810  1.0000
  H   H1144     1.0  0.75363  0.99277  0.82901  1.0000
  H   H1145     1.0  0.72719  0.93061  0.81859  1.0000
  H   H1146     1.0  0.53236  0.84885  0.84531  1.0000
  Fe  Fe144     1.0  0.98745  0.70949  0.94569  1.0000
  H   H1147     1.0  0.78466  0.93692  0.80639  1.0000
  H   H1148     1.0  0.60017  0.91965  0.75106  1.0000
  H   H1149     1.0  0.79819  0.97128  0.79321  1.0000
  C   C720      1.0  0.70766  0.93235  0.74190  1.0000
  H   H1150     1.0  0.56620  0.86906  0.74605  1.0000
  H   H1151     1.0  0.74560  0.97808  0.79975  1.0000
  H   H1152     1.0  0.66792  0.74509  0.73748  1.0000
