data_image0
_chemical_formula_structural       FeS2FeS2FeSFeS3FeS2FeS2FeSFeS3FeS2FeS2FeSFeS3FeS2FeS2FeSFeS3FeS2FeS2FeSFeS3FeS2FeS2FeSFeS3FeS2FeS2FeSFeS3FeS2FeS2FeSFeS3FeS2FeS2FeSFeS3FeS2FeS2FeSFeS3FeS2FeS2FeSFeS3FeS2FeS2FeSFeS3FeS2FeS2FeSFeS3FeS2FeS2FeSFeS3FeS2FeS2FeSFeS3FeS2FeS2FeSFeS3FeS2FeS2FeSFeS3FeS2FeS2FeSFeS3FeS2FeS2FeSFeS3FeS2FeS2FeSFeS3FeS2FeS2FeSFeS3FeS2FeS2FeSFeS3FeS2FeS2FeSFeS3FeS2FeS2FeSFeS3C6H4C6H4C6H4C6H4C6H4C6H4C6H4C6H4C6H4C6H4C6H4C6H4C6H4C6H4C6H4C6H4C6H4C6H4C6H4C6H4C6H4C6H4C6H4C6H4C6H4C6H4C6H4C6H4C6H4C6H4C6H4C6H4C6H4C6H4C6H4C6H4C6H4C6H4C6H4C6H4C6H4C6H4C6H4C6H4C6H4C6H4C6H4C6H4NC4H12NC4H12NC4H12NC4H12NC4H12NC4H12NC4H12NC4H12NC4H12NC4H12NC4H12NC4H12NC4H12NC4H12NC4H12NC4H12NC4H12NC4H12NC4H12NC4H12NC4H12NC4H12NC4H12NC4H12NC4H12NC4H12NC4H12NC4H12NC4H12NC4H12NC4H12NC4H12NC4H12NC4H12NC4H12NC4H12NC4H12NC4H12NC4H12NC4H12NC4H12NC4H12NC4H12NC4H12NC4H12NC4H12NC4H12NC4H12
_chemical_formula_sum              "Fe96 S192 C480 H768 N48"
_cell_length_a       29.63185771155568
_cell_length_b       46.42274229258137
_cell_length_c       57.813616810638685
_cell_angle_alpha    90.48710130412591
_cell_angle_beta     103.1003302119335
_cell_angle_gamma    90.1165889518072

_space_group_name_H-M_alt    "P 1"
_space_group_IT_number       1

loop_
  _space_group_symop_operation_xyz
  'x, y, z'

loop_
  _atom_site_type_symbol
  _atom_site_label
  _atom_site_symmetry_multiplicity
  _atom_site_fract_x
  _atom_site_fract_y
  _atom_site_fract_z
  _atom_site_occupancy
  Fe  Fe1       1.0  0.2679863939386748  0.8974450092161894  0.7692592046080452  1.0000
  S   S1        1.0  0.21219066404766776  0.9043012429861443  0.7364217341964507  1.0000
  S   S2        1.0  0.2555547109470238  0.893422556563947  0.8060217737681894  1.0000
  Fe  Fe2       1.0  0.34538508487935093  0.8957357749063651  0.7424733288395472  1.0000
  S   S3        1.0  0.2962611507251002  0.9024167407458717  0.7072898215926953  1.0000
  S   S4        1.0  0.4228045689913434  0.8972463311366387  0.7460433321540099  1.0000
  Fe  Fe3       1.0  0.26283490008280175  0.9353859234716394  0.7265668533327827  1.0000
  S   S5        1.0  0.24245496756765333  0.9779897822584583  0.708843577742144  1.0000
  Fe  Fe4       1.0  0.2503630270374889  0.8708414462116273  0.7201693371864066  1.0000
  S   S6        1.0  0.2142889986040524  0.8334134066730569  0.6987349558578211  1.0000
  S   S7        1.0  0.31559785372105575  0.9311765782258544  0.7608395837639496  1.0000
  S   S8        1.0  0.3023986133251087  0.8613033771131915  0.7540355884461136  1.0000
  Fe  Fe5       1.0  0.9208826249801967  0.9330115499250357  0.3624715760245623  1.0000
  S   S9        1.0  0.9625576156209639  0.9567678204310092  0.3941907160428641  1.0000
  S   S10       1.0  0.9572589608809113  0.9060373795190806  0.33988937067965314  1.0000
  Fe  Fe6       1.0  0.829224714612393  0.9583985561340462  0.3679880932062064  1.0000
  S   S11       1.0  0.863663024517072  0.9848806640011933  0.39964291877193586  1.0000
  S   S12       1.0  0.7520539186198313  0.964574978650246  0.3557467013969523  1.0000
  Fe  Fe7       1.0  0.9179168635245162  0.9941993144862932  0.3793690345023993  1.0000
  S   S13       1.0  0.9461992248356886  0.03742452641248928  0.37253854610605824  1.0000
  Fe  Fe8       1.0  0.9043989049347511  0.944880586208542  0.4113705003883914  1.0000
  S   S14       1.0  0.9087999139402972  0.9304608924081237  0.44886598601378724  1.0000
  S   S15       1.0  0.8797737497872228  0.9712529618612724  0.34647805992487385  1.0000
  S   S16       1.0  0.8664284539898304  0.9175060583369427  0.380969049693034  1.0000
  Fe  Fe9       1.0  0.7044213717363158  0.8212470260740435  0.8028754292022224  1.0000
  S   S17       1.0  0.7446201282966731  0.7804039578163144  0.8112571396309383  1.0000
  S   S18       1.0  0.737102751055938  0.863380236462891  0.7969113854635894  1.0000
  Fe  Fe10      1.0  0.614181098193887  0.7942261281094682  0.8079852051375753  1.0000
  S   S19       1.0  0.6476640302688786  0.751330800125786  0.8177379185211713  1.0000
  S   S20       1.0  0.5365961651133394  0.7955825216257141  0.8039063246202228  1.0000
  Fe  Fe11      1.0  0.7062620768324893  0.7763737418813074  0.8403653580963909  1.0000
  S   S21       1.0  0.7516824556853362  0.7619723466085553  0.875094526182655  1.0000
  Fe  Fe12      1.0  0.6826488286157268  0.7591679947296568  0.787818906905419  1.0000
  S   S22       1.0  0.6812179020460641  0.7209696404933646  0.7633316410094839  1.0000
  S   S23       1.0  0.6697002837278466  0.8187851719548479  0.8335910435563884  1.0000
  S   S24       1.0  0.6455378940050912  0.8005770349879185  0.7765964687376917  1.0000
  Fe  Fe13      1.0  0.7303679246270479  0.7011554077693799  0.6401588773472273  1.0000
  S   S25       1.0  0.746472685663579  0.7113194365055587  0.6050885121710372  1.0000
  S   S26       1.0  0.7383276150856047  0.7391951917964898  0.6654277057258989  1.0000
  Fe  Fe14      1.0  0.7112689843004719  0.638263217448081  0.6264133495480875  1.0000
  S   S27       1.0  0.7266224944448189  0.6433673774033494  0.5903825035648529  1.0000
  S   S28       1.0  0.6853545844570718  0.5959224833371275  0.6373005824830545  1.0000
  Fe  Fe15      1.0  0.786873093260223  0.6703091661277294  0.6095349148885914  1.0000
  S   S29       1.0  0.8601347254512032  0.6678622720954972  0.6041248547676984  1.0000
  Fe  Fe16      1.0  0.6848959923440879  0.6838861169538573  0.5891225154507715  1.0000
  S   S30       1.0  0.6365919902214944  0.6994494197339952  0.5556485859901721  1.0000
  S   S31       1.0  0.7751957411983305  0.6617653968244603  0.6459618931843786  1.0000
  S   S32       1.0  0.6650238968646841  0.6771173828307847  0.6238764123540442  1.0000
  Fe  Fe17      1.0  0.5741560161338787  0.8390711107034083  0.3387482328570369  1.0000
  S   S33       1.0  0.5587735132004775  0.7970794792522335  0.31872679692667594  1.0000
  S   S34       1.0  0.648665608260852  0.8464330144681181  0.35779856012706235  1.0000
  Fe  Fe18      1.0  0.4729187495759528  0.8582418342227415  0.3253349679697919  1.0000
  S   S35       1.0  0.45062790652516616  0.817844175439002  0.3045631538283726  1.0000
  S   S36       1.0  0.4217898065914953  0.8932104617665004  0.32901029589473646  1.0000
  Fe  Fe19      1.0  0.4969709669439671  0.7954372380697048  0.33521259830644584  1.0000
  S   S37       1.0  0.4699709364004784  0.7552936655933653  0.34948680977508273  1.0000
  Fe  Fe20      1.0  0.5142917841990596  0.8238589384959302  0.2903815661845545  1.0000
  S   S38       1.0  0.5064427333713479  0.8250482921936998  0.2506948201564253  1.0000
  S   S39       1.0  0.5151770731696745  0.835631106018017  0.35713556803009244  1.0000
  S   S40       1.0  0.5340339694540112  0.8660971404403217  0.30927288754919297  1.0000
  Fe  Fe21      1.0  0.38968032508864997  0.6965914539884467  0.5121554635054412  1.0000
  S   S41       1.0  0.43421023780726564  0.6895325614778635  0.48629427055609  1.0000
  S   S42       1.0  0.4220401086516873  0.6932313504161892  0.5510427775717077  1.0000
  Fe  Fe22      1.0  0.30353335322018454  0.7038365095123299  0.4734275847929459  1.0000
  S   S43       1.0  0.3409329055320246  0.6971103282722861  0.4439093386466907  1.0000
  S   S44       1.0  0.2282831208163726  0.7162486214745976  0.4652255794672142  1.0000
  Fe  Fe23      1.0  0.37670298111744027  0.6613103427067191  0.4668568588678711  1.0000
  S   S45       1.0  0.4043175879474479  0.6200250762791668  0.45502331366204396  1.0000
  Fe  Fe24      1.0  0.3953586154215866  0.7258189645695224  0.46586298839259277  1.0000
  S   S46       1.0  0.4364933298923732  0.7612594364333501  0.4537153349171261  1.0000
  S   S47       1.0  0.33460393805058974  0.6654275414842415  0.49449268472403207  1.0000
  S   S48       1.0  0.35539269793204326  0.7355543528239988  0.4936398304660704  1.0000
  Fe  Fe25      1.0  0.9964306097943992  0.7852190185789872  0.5542697646630445  1.0000
  S   S49       1.0  0.01665591590507698  0.8294935277561452  0.5451098090579524  1.0000
  S   S50       1.0  0.9233650392677302  0.7798986781319283  0.558623562535545  1.0000
  Fe  Fe26      1.0  0.08757557584751119  0.7595972384895273  0.5496946570415184  1.0000
  S   S51       1.0  0.11558284349584476  0.8015853249935522  0.5401914009162161  1.0000
  S   S52       1.0  0.12972534463016197  0.7190807725011282  0.5512906004073813  1.0000
  Fe  Fe27      1.0  0.08540857676971779  0.8201059043071657  0.5692691394689452  1.0000
  S   S53       1.0  0.12168983317460402  0.8577074106015474  0.5906931363584629  1.0000
  Fe  Fe28      1.0  0.044739785302015944  0.8074904782740239  0.5168693700027676  1.0000
  S   S54       1.0  0.038550043265991096  0.8231937068953745  0.4796081717258038  1.0000
  S   S55       1.0  0.06292486657958099  0.7773473436123003  0.5810505597151688  1.0000
  S   S56       1.0  0.01905204296253582  0.763848477938506  0.5238935582108091  1.0000
  Fe  Fe29      1.0  0.4554555567544303  0.7107905749714165  0.15628778493351056  1.0000
  S   S57       1.0  0.38099345100738014  0.7036215774278158  0.15688886907272323  1.0000
  S   S58       1.0  0.5114076572183329  0.7118592032956282  0.18982770331550192  1.0000
  Fe  Fe30      1.0  0.4361667535797221  0.7148906553397307  0.10290618737267661  1.0000
  S   S59       1.0  0.3597962349008108  0.7084434674702024  0.09867677032325392  1.0000
  S   S60       1.0  0.4637709692347562  0.7245324200308827  0.07069658605684445  1.0000
  Fe  Fe31      1.0  0.3667475547150111  0.7386433086013358  0.12969422070808292  1.0000
  S   S61       1.0  0.31541690257847377  0.773013078564856  0.13384079357260387  1.0000
  Fe  Fe32      1.0  0.3800915216210625  0.6740906277243307  0.12594273524679656  1.0000
  S   S62       1.0  0.33920595246805846  0.6328929152596267  0.11914737152274692  1.0000
  S   S63       1.0  0.44158588474187793  0.7483253441329183  0.13156563659832335  1.0000
  S   S64       1.0  0.4561987662773461  0.6777676572264141  0.12765177865151753  1.0000
  Fe  Fe33      1.0  0.697289714126684  0.7197796930689254  0.9915048580075398  1.0000
  S   S65       1.0  0.7406710096011598  0.6853162001788978  0.9803098110430786  1.0000
  S   S66       1.0  0.6759589118973705  0.7589473164696076  0.968848661074006  1.0000
  Fe  Fe34      1.0  0.6900213861282903  0.6881651627103149  0.036216195528738115  1.0000
  S   S67       1.0  0.7331656831606277  0.6511891752232117  0.02850574951748497  1.0000
  S   S68       1.0  0.6672775350153076  0.6845304258973219  0.07069699555282338  1.0000
  Fe  Fe35      1.0  0.7783604394307012  0.6850129652701701  0.018441004817054463  1.0000
  S   S69       1.0  0.8555063462157461  0.679478515590522  0.026400609659778418  1.0000
  Fe  Fe36      1.0  0.6913519560479358  0.6545534026637887  0.9912166225555893  1.0000
  S   S70       1.0  0.6682308452593492  0.6169556023344381  0.9665427529295108  1.0000
  S   S71       1.0  0.7390691736839089  0.722256362415027  0.029084012003482096  1.0000
  S   S72       1.0  0.6441915660393258  0.688932705483494  0.9994509548218541  1.0000
  Fe  Fe37      1.0  0.03255200489645538  0.9254594782925232  0.8887890371543709  1.0000
  S   S73       1.0  0.9573562894139896  0.9160831645575206  0.8732666718015623  1.0000
  S   S74       1.0  0.06899879414040822  0.9152881404228594  0.9263755846100824  1.0000
  Fe  Fe38      1.0  0.04901402877232397  0.9519070030581961  0.8434216645069237  1.0000
  S   S75       1.0  0.9754295007649223  0.9445708249798556  0.8241096085501822  1.0000
  S   S76       1.0  0.09390974656596059  0.9743153939737845  0.822168443025817  1.0000
  Fe  Fe39      1.0  0.9569454809081029  0.9600577982419572  0.8575317605736061  1.0000
  S   S77       1.0  0.8963629642368787  0.9900869339680595  0.8519460849245013  1.0000
  Fe  Fe40      1.0  0.982353519303544  0.9014459022667496  0.8413418643169304  1.0000
  S   S78       1.0  0.9559175675362088  0.861226818099877  0.8208598838526717  1.0000
  S   S79       1.0  0.030233094327980478  0.9710988790498145  0.8757061539253899  1.0000
  S   S80       1.0  0.057865369983943094  0.9070578586404113  0.857979667858658  1.0000
  Fe  Fe41      1.0  0.18747847525914346  0.9355306180693272  0.24811660816303507  1.0000
  S   S81       1.0  0.11624680797566696  0.9265967650128035  0.25378177472050234  1.0000
  S   S82       1.0  0.23580293150001577  0.8976924896448361  0.24964012991562806  1.0000
  Fe  Fe42      1.0  0.16335247469814412  0.9971274172183742  0.23266291930160787  1.0000
  S   S83       1.0  0.08991023336823889  0.9925148090342089  0.23602718133819844  1.0000
  S   S84       1.0  0.18597113055053116  0.0407036829226779  0.22254693398959946  1.0000
  Fe  Fe43      1.0  0.1213772426777675  0.9707108138731848  0.2702626364959545  1.0000
  S   S85       1.0  0.0945274237352165  0.986923094330227  0.3013355492152688  1.0000
  Fe  Fe44      1.0  0.09156511431579806  0.9491420178746948  0.2191622995115071  1.0000
  S   S86       1.0  0.030966550232941925  0.9283265098688631  0.19385213748512986  1.0000
  S   S87       1.0  0.1952864127036021  0.9777290398467592  0.2680112291772956  1.0000
  S   S88       1.0  0.1623491428884247  0.9555350760510836  0.2123089609478866  1.0000
  Fe  Fe45      1.0  0.992104469178429  0.8097080108356731  0.07169202761860172  1.0000
  S   S89       1.0  0.9746833319245704  0.8550570036754237  0.059714339681432804  1.0000
  S   S90       1.0  0.9427904140676263  0.785633180953435  0.08889372813057483  1.0000
  Fe  Fe46      1.0  0.08181480963516963  0.8090608909742495  0.05497077932406925  1.0000
  S   S91       1.0  0.07198560489349748  0.8540531340524263  0.04134821148133062  1.0000
  S   S92       1.0  0.1417893565423374  0.7834551077262424  0.04778460130298235  1.0000
  Fe  Fe47      1.0  0.05014225296562991  0.8635852119216452  0.07532178365908665  1.0000
  S   S93       1.0  0.08178187862528818  0.9029512406492056  0.09552378898612694  1.0000
  Fe  Fe48      1.0  0.9978982314376699  0.8415703483264163  0.0269075645236303  1.0000
  S   S94       1.0  0.95653253730305  0.8479397287050213  0.9894564137171915  1.0000
  S   S95       1.0  0.06568992863410617  0.8193379219377874  0.09024107768761332  1.0000
  S   S96       1.0  0.009368174597718104  0.795518568713936  0.0376127187826889  1.0000
  Fe  Fe49      1.0  0.8844510833666749  0.1829032626229286  0.40581097075666744  1.0000
  S   S97       1.0  0.8288268560096004  0.1852884929468804  0.372559269209646  1.0000
  S   S98       1.0  0.8878683318926537  0.14341913018216515  0.42831347000434006  1.0000
  Fe  Fe50      1.0  0.924779750254716  0.2413328775901152  0.3979241014441401  1.0000
  S   S99       1.0  0.8729744236669138  0.24851850287974728  0.36353139270484963  1.0000
  S   S100      1.0  0.9797869025668258  0.27433493875123083  0.41241437370060324  1.0000
  Fe  Fe51      1.0  0.8211856679734132  0.23138577973861196  0.3831171338617087  1.0000
  S   S101      1.0  0.7534017261267638  0.25097775885870044  0.38672892668007314  1.0000
  Fe  Fe52      1.0  0.8857146743652599  0.2018236555693324  0.35630909377552766  1.0000
  S   S102      1.0  0.9000735907922432  0.17959863966494372  0.32404787649387  1.0000
  S   S103      1.0  0.8724832802609898  0.22750218627975838  0.4181288354915479  1.0000
  S   S104      1.0  0.9421947178583908  0.19641600484145377  0.38903932699753635  1.0000
  Fe  Fe53      1.0  0.288303168977594  0.19669367087425027  0.7593842658429822  1.0000
  S   S105      1.0  0.30665841012685574  0.16206387476549605  0.7357833123060926  1.0000
  S   S106      1.0  0.3340407154241607  0.23327657756321685  0.7767722951513001  1.0000
  Fe  Fe54      1.0  0.18870471113250484  0.17521375849875634  0.7534178995634762  1.0000
  S   S107      1.0  0.19883031379917357  0.13880124208846906  0.7295106114912792  1.0000
  S   S108      1.0  0.11723701893000373  0.18410897831062237  0.7591043252068057  1.0000
  Fe  Fe55      1.0  0.2672148277558616  0.13297731093996734  0.7551951767839584  1.0000
  S   S109      1.0  0.29248462811446996  0.09050355827173527  0.7717485398188427  1.0000
  Fe  Fe56      1.0  0.23666964774642488  0.1713311917513381  0.712276231906902  1.0000
  S   S110      1.0  0.22041379112048187  0.17354915027218296  0.6722410891090769  1.0000
  S   S111      1.0  0.25412443041441757  0.16706080730264328  0.7806859835844182  1.0000
  S   S112      1.0  0.22130641447919533  0.20820279799213937  0.7343739359627038  1.0000
  Fe  Fe57      1.0  0.5824314114082567  0.26700326375683964  0.802865367383189  1.0000
  S   S113      1.0  0.5413258906816047  0.30686314504539813  0.7915839345742948  1.0000
  S   S114      1.0  0.5515367326730937  0.2223519682693104  0.7981647502084057  1.0000
  Fe  Fe58      1.0  0.6725081155451509  0.30053474706662636  0.8194867436341359  1.0000
  S   S115      1.0  0.6390339870739958  0.3433644468036393  0.8092053910410304  1.0000
  S   S116      1.0  0.7457492469842799  0.2977679308116979  0.8411475106178393  1.0000
  Fe  Fe59      1.0  0.5824906030599155  0.32631568781736736  0.8254947549960743  1.0000
  S   S117      1.0  0.5490994948238676  0.3492807284091351  0.8516088045006975  1.0000
  Fe  Fe60      1.0  0.6011898752237027  0.3200030604682485  0.7761786998440264  1.0000
  S   S118      1.0  0.5847632892082266  0.33343084521431127  0.7377990194899633  1.0000
  S   S119      1.0  0.6186340756896861  0.2851242618910363  0.8381282439139678  1.0000
  S   S120      1.0  0.6397033475376148  0.27852478766307104  0.7850713371821246  1.0000
  Fe  Fe61      1.0  0.7637372231687505  0.44252824561173904  0.6274898645605577  1.0000
  S   S121      1.0  0.7636275396109369  0.40190618058981376  0.6061278933041995  1.0000
  S   S122      1.0  0.790723677024366  0.4841384646228135  0.6158105615294718  1.0000
  Fe  Fe62      1.0  0.7360182578989162  0.4114498165746995  0.6684823693602024  1.0000
  S   S123      1.0  0.7344067584849882  0.3681626389167681  0.650913862595341  1.0000
  S   S124      1.0  0.7195102288316462  0.42128246248995355  0.7039457613902144  1.0000
  Fe  Fe63      1.0  0.7996142434296111  0.3821892829093058  0.6406721758914997  1.0000
  S   S125      1.0  0.8646572403962303  0.355647232243828  0.646493105288163  1.0000
  Fe  Fe64      1.0  0.6985538973911234  0.3915022033517741  0.6180611325947262  1.0000
  S   S126      1.0  0.6340763193647047  0.37142838204763695  0.595923058672118  1.0000
  S   S127      1.0  0.8047044728031049  0.42364148948164354  0.6612243713526353  1.0000
  S   S128      1.0  0.6951231314830515  0.4339379487453348  0.6364017892377369  1.0000
  Fe  Fe65      1.0  0.462613744153638  0.29836974925873916  0.3223723579243026  1.0000
  S   S129      1.0  0.4209343760285234  0.33900224593315026  0.3168606404977893  1.0000
  S   S130      1.0  0.4386620087639843  0.254443740444931  0.3302662785133183  1.0000
  Fe  Fe66      1.0  0.546186183590105  0.3254147194037743  0.30930332216991885  1.0000
  S   S131      1.0  0.5118973115271904  0.3686570546648754  0.30200863700853725  1.0000
  S   S132      1.0  0.6160570287349244  0.3134964911956608  0.30259442912345746  1.0000
  Fe  Fe67      1.0  0.48721038668035693  0.3605709222501358  0.335449082528354  1.0000
  S   S133      1.0  0.49075027970395846  0.3965455244838219  0.36220138863644574  1.0000
  Fe  Fe68      1.0  0.44840007022995476  0.34375154877941366  0.2840311955031737  1.0000
  S   S134      1.0  0.3968136041308798  0.35591198144102676  0.2505364072272963  1.0000
  S   S135      1.0  0.5264884977899784  0.3192863263543173  0.3441841772896661  1.0000
  S   S136      1.0  0.48470490682745904  0.30133562937570246  0.28798946647019236  1.0000
  Fe  Fe69      1.0  0.3550399818274233  0.46710055735514394  0.4898352835764126  1.0000
  S   S137      1.0  0.3998991020660556  0.4544356144135639  0.5249015218220533  1.0000
  S   S138      1.0  0.3127159911650388  0.5076856596865591  0.48525606190157566  1.0000
  Fe  Fe70      1.0  0.3736468863485556  0.41200038978320114  0.4650387616726726  1.0000
  S   S139      1.0  0.4200058904916427  0.3943893294997649  0.49781137445244417  1.0000
  S   S140      1.0  0.3556244132874514  0.3848287273326018  0.4318701312293493  1.0000
  Fe  Fe71      1.0  0.3667818934419627  0.41089336753322553  0.5167296349494379  1.0000
  S   S141      1.0  0.3469379100553968  0.38351138516404426  0.5448856226431223  1.0000
  Fe  Fe72      1.0  0.44902447885098207  0.4391929587907795  0.5031358748061727  1.0000
  S   S142      1.0  0.525135562696143  0.4493206084236075  0.5129972937475451  1.0000
  S   S143      1.0  0.3175939153817786  0.4246782795647982  0.4832787875992943  1.0000
  S   S144      1.0  0.407011219989039  0.45563505941902666  0.4685475361824431  1.0000
  Fe  Fe73      1.0  0.08356356927938613  0.2816632526780682  0.5433826170491013  1.0000
  S   S145      1.0  0.04700753813154823  0.3226114764187368  0.5310444216346188  1.0000
  S   S146      1.0  0.08640046535923496  0.24591291402489146  0.5171825748703724  1.0000
  Fe  Fe74      1.0  0.10611665075696268  0.3010406277367359  0.594894144035353  1.0000
  S   S147      1.0  0.07036503894846757  0.34374362770017514  0.5864961714972965  1.0000
  S   S148      1.0  0.14096445318392967  0.29426066761181374  0.6333732402959772  1.0000
  Fe  Fe75      1.0  0.014911796493579654  0.31793722076537084  0.562248646851405  1.0000
  S   S149      1.0  0.9378844002086547  0.3250613885019514  0.5548032871041577  1.0000
  Fe  Fe76      1.0  0.10593353974220182  0.344358727497585  0.556204260435024  1.0000
  S   S150      1.0  0.1332682962218296  0.3846564890655218  0.5428283097838082  1.0000
  S   S151      1.0  0.04722027643368576  0.2750739549095538  0.5730949009825342  1.0000
  S   S152      1.0  0.14588016678913393  0.303568459024133  0.5661305747792941  1.0000
  Fe  Fe77      1.0  0.3775322790666301  0.44962780476388137  0.11049110268858822  1.0000
  S   S153      1.0  0.43619377109248353  0.4221244695782855  0.10450999012881372  1.0000
  S   S154      1.0  0.3038386555747019  0.44482669041004025  0.09016395543748724  1.0000
  Fe  Fe78      1.0  0.4398058796865317  0.4886050239674102  0.1463851209181827  1.0000
  S   S155      1.0  0.5036490624772842  0.4645550756499185  0.14360463155998096  1.0000
  S   S156      1.0  0.44918291529894394  0.5267306969648899  0.1711983138578309  1.0000
  Fe  Fe79      1.0  0.47379570794584813  0.4641487344791279  0.10446269255986503  1.0000
  S   S157      1.0  0.5140281457209126  0.4811678059943711  0.07889202615132923  1.0000
  Fe  Fe80      1.0  0.4603279663906153  0.42499612436757095  0.14424910686263187  1.0000
  S   S158      1.0  0.49298380760731453  0.38834734223720485  0.16715539551861605  1.0000
  S   S159      1.0  0.4130805444876872  0.4914623478658434  0.10709833677075854  1.0000
  S   S160      1.0  0.39854941624095785  0.44922892562927036  0.15028852387877709  1.0000
  Fe  Fe81      1.0  0.7184401128003666  0.4612674735863651  0.0036132178592518382  1.0000
  S   S161      1.0  0.6518411051815775  0.4519046396437647  0.9771967210027633  1.0000
  S   S162      1.0  0.7347484516754977  0.5036635090509125  0.022640204262639463  1.0000
  Fe  Fe82      1.0  0.751025190499318  0.39860706877517726  0.00508194521245664  1.0000
  S   S163      1.0  0.6877224597797255  0.384445760923589  0.9782666534646658  1.0000
  S   S164      1.0  0.7963179870215347  0.36298731236287063  0.02385237429469944  1.0000
  Fe  Fe83      1.0  0.6974191442847737  0.4251118536805781  0.95925248822583  1.0000
  S   S165      1.0  0.6968123653572872  0.427054475018049  0.9202893405151098  1.0000
  Fe  Fe84      1.0  0.6487807678219306  0.41229335750992735  0.998926813888478  1.0000
  S   S166      1.0  0.5902729662312117  0.3933031424167652  0.012942238442249288  1.0000
  S   S167      1.0  0.7647243808263057  0.43710275435995194  0.9844319329014589  1.0000
  S   S168      1.0  0.7114915969158915  0.4241047338768709  0.026785214624249765  1.0000
  Fe  Fe85      1.0  0.9464487365564705  0.1376314676031702  0.8952239470879911  1.0000
  S   S169      1.0  0.018673651064900876  0.15519578763803146  0.9036193239786846  1.0000
  S   S170      1.0  0.93115579147263  0.10109733222403462  0.9173281006464994  1.0000
  Fe  Fe86      1.0  0.9152266053118608  0.17635804450810658  0.8531837140315988  1.0000
  S   S171      1.0  0.9850101969180375  0.19712148564529064  0.8573041399677289  1.0000
  S   S172      1.0  0.855375370902523  0.18666905984824098  0.8228930654281608  1.0000
  Fe  Fe87      1.0  0.01337314973163295  0.15261184571254052  0.8644656375823677  1.0000
  S   S173      1.0  0.07693162858919965  0.1352289244599082  0.8540463257519578  1.0000
  Fe  Fe88      1.0  0.9850842949932541  0.19823907873852092  0.8961180479701185  1.0000
  S   S174      1.0  0.015686821727569633  0.23813631552648054  0.9159701481543864  1.0000
  S   S175      1.0  0.9435834274009801  0.1313999912663463  0.8564824179147271  1.0000
  S   S176      1.0  0.9125875487100955  0.18111235383669572  0.8915739143051049  1.0000
  Fe  Fe89      1.0  0.055420076453397416  0.33334739914572614  0.05420996473417028  1.0000
  S   S177      1.0  0.023413423456821292  0.29316375866829775  0.0647041009138194  1.0000
  S   S178      1.0  0.013627611667363482  0.3703574424588004  0.0352536812264157  1.0000
  Fe  Fe90      1.0  0.15330605605140735  0.3108702391551677  0.07226137192772102  1.0000
  S   S179      1.0  0.12875353569549677  0.26879835554479836  0.08390914240491883  1.0000
  S   S180      1.0  0.2306573102445823  0.31654299243387357  0.08011694853014702  1.0000
  Fe  Fe91      1.0  0.07616980058992939  0.26994317861114503  0.04923112054538881  1.0000
  S   S181      1.0  0.05369395633420826  0.22955839761526275  0.027628789020605504  1.0000
  Fe  Fe92      1.0  0.07898279754041337  0.2959943788932586  0.09820516463823542  1.0000
  S   S182      1.0  0.06167660917758533  0.29142318365027664  0.13393602399869825  1.0000
  S   S183      1.0  0.10481796777095198  0.3099549268905576  0.03632035290171087  1.0000
  S   S184      1.0  0.10700485876444144  0.338219023685338  0.08903252337985904  1.0000
  Fe  Fe93      1.0  0.16537859725786608  0.22004812084172184  0.2488570600216547  1.0000
  S   S185      1.0  0.20688147941468896  0.1978851659751385  0.28111083186951785  1.0000
  S   S186      1.0  0.1952828462656484  0.22402028489062853  0.21643781982696977  1.0000
  Fe  Fe94      1.0  0.08631984031883122  0.23386494365353308  0.2723048222555577  1.0000
  S   S187      1.0  0.1203692732260786  0.21276844658096844  0.30635827656624476  1.0000
  S   S188      1.0  0.019116838718609808  0.25643448474539027  0.2708971862075991  1.0000
  Fe  Fe95      1.0  0.18475529904902005  0.23460815471281507  0.30144502151949726  1.0000
  S   S189      1.0  0.22725816179744496  0.26069962195578805  0.33145471680127864  1.0000
  Fe  Fe96      1.0  0.13875267739660183  0.17801951262813945  0.2830323974075142  1.0000
  S   S190      1.0  0.12954231424097618  0.13198896859253256  0.29263052891445474  1.0000
  S   S191      1.0  0.14941903144070745  0.25867686909148246  0.2690068744887067  1.0000
  S   S192      1.0  0.0985808848758023  0.19713048960390173  0.24910156878484072  1.0000
  C   C1        1.0  0.09911907657118157  0.2721405855970147  0.15636463032636427  1.0000
  C   C2        1.0  0.08728656463985507  0.2688720564916859  0.17831974103626635  1.0000
  C   C3        1.0  0.11675028326771919  0.2541226822686413  0.19681051059075108  1.0000
  C   C4        1.0  0.15849400226347465  0.24283526773176634  0.19349894021171093  1.0000
  C   C5        1.0  0.17067198797646924  0.24622718686998687  0.17161021593503134  1.0000
  C   C6        1.0  0.14080601010970706  0.26066902734830766  0.15297610163821973  1.0000
  H   H1        1.0  0.05508224648604432  0.2777431835659725  0.1810313001155013  1.0000
  H   H2        1.0  0.10700867725078522  0.25157788927231034  0.21362262689585215  1.0000
  H   H3        1.0  0.2028795871233717  0.23736246504739864  0.16895223933309295  1.0000
  H   H4        1.0  0.14999675493853862  0.2629647662589951  0.136046187213615  1.0000
  C   C7        1.0  0.029933197566351488  0.23437340660672312  0.9469400112373503  1.0000
  C   C8        1.0  0.017703028259310766  0.20954160650652418  0.9576354599310111  1.0000
  C   C9        1.0  0.027280329538316675  0.20766899624956414  0.982508517798402  1.0000
  C   C10       1.0  0.04888697932540187  0.23063714261647117  0.9967312017913507  1.0000
  C   C11       1.0  0.06264951677449693  0.2549668930361761  0.9859418905836598  1.0000
  C   C12       1.0  0.052851243386057734  0.256934640702444  0.9611105288952412  1.0000
  H   H5        1.0  6.169075913461423e-05  0.1919841665616279  0.9468031486020864  1.0000
  H   H6        1.0  0.0167070693341476  0.18871359052439513  0.9907335038141919  1.0000
  H   H7        1.0  0.0802017232008787  0.27249145504006733  0.9966794923033381  1.0000
  H   H8        1.0  0.06273130075587274  0.2760805828136867  0.9528925879043383  1.0000
  C   C13       1.0  0.8566594058141581  0.3668682505122674  0.027926462757518866  1.0000
  C   C14       1.0  0.8759964428220333  0.3867790949059247  0.014890677202636482  1.0000
  C   C15       1.0  0.9243483060682471  0.3881490203789214  0.01760472614656794  1.0000
  C   C16       1.0  0.9534752507930399  0.36979442852203875  0.03345708953748283  1.0000
  C   C17       1.0  0.9340515908267436  0.35044817909095627  0.04689097474124315  1.0000
  C   C18       1.0  0.8857892123044422  0.34876909962818936  0.04394974840502086  1.0000
  H   H9        1.0  0.8537657527269044  0.4008477968407598  0.002504879077284583  1.0000
  H   H10       1.0  0.9392103799126047  0.4032899979405662  0.007257334300509788  1.0000
  H   H11       1.0  0.956179267366889  0.3369372470477371  0.05972138111627778  1.0000
  H   H12       1.0  0.8710588054369356  0.3335524667922841  0.054282386156074613  1.0000
  C   C19       1.0  0.25046284999552726  0.3522379983372469  0.08245487205402713  1.0000
  C   C20       1.0  0.29710726585350256  0.3579272321158636  0.09288540930676487  1.0000
  C   C21       1.0  0.3134662283822642  0.3863858530163079  0.09577081705264828  1.0000
  C   C22       1.0  0.28340185688162606  0.4091933435065583  0.08775958076856234  1.0000
  C   C23       1.0  0.2367756840697691  0.40350332957855056  0.07725040110708134  1.0000
  C   C24       1.0  0.22018370799128728  0.3750374072629321  0.07476138111994007  1.0000
  H   H13       1.0  0.32052023189094064  0.340294295595788  0.09897341871463992  1.0000
  H   H14       1.0  0.3493512228286376  0.3905931311852217  0.10411326916281546  1.0000
  H   H15       1.0  0.2134186084038201  0.4211222879052028  0.07103619304724566  1.0000
  H   H16       1.0  0.18412033060733546  0.37073566027585  0.06666881144027004  1.0000
  C   C25       1.0  0.536708062257035  0.4561623162098827  0.06160583238552819  1.0000
  C   C26       1.0  0.5642222115165173  0.46609600041279114  0.04655914187469623  1.0000
  C   C27       1.0  0.5812943711295723  0.44679010643218237  0.031841622321159946  1.0000
  C   C28       1.0  0.5700261402951051  0.41754451173525314  0.03172806164595299  1.0000
  C   C29       1.0  0.5426702467307691  0.4075152662375588  0.04686795919937792  1.0000
  C   C30       1.0  0.5264990866022705  0.42676828697595903  0.062024845580138876  1.0000
  H   H17       1.0  0.5724627877504602  0.48879720324956205  0.046251642104898405  1.0000
  H   H18       1.0  0.6026319636176976  0.45467759932520757  0.02032291604279424  1.0000
  H   H19       1.0  0.5343066500570866  0.38483171512790976  0.04699041606655685  1.0000
  H   H20       1.0  0.5060989405056019  0.41891636472230276  0.07395122180803604  1.0000
  C   C31       1.0  0.28864954241062646  0.38649449209185366  0.5465706534951321  1.0000
  C   C32       1.0  0.27089416006391687  0.36794013322939384  0.561365769560777  1.0000
  C   C33       1.0  0.22329101548271366  0.3677867518906325  0.5609019036407579  1.0000
  C   C34       1.0  0.19351071046134244  0.3865127408170712  0.5458985726961091  1.0000
  C   C35       1.0  0.21164970000288139  0.40602634725852316  0.5320139734762017  1.0000
  C   C36       1.0  0.2590983421393964  0.4059696149975912  0.5323032102386185  1.0000
  H   H21       1.0  0.29376252694136534  0.35312495818811024  0.5727138496090083  1.0000
  H   H22       1.0  0.2096835267454771  0.3531745574114139  0.5721089863721497  1.0000
  H   H23       1.0  0.18879074979448163  0.4208042946604367  0.5206111482274612  1.0000
  H   H24       1.0  0.27266652634496474  0.42097307693485075  0.5214366900199674  1.0000
  C   C37       1.0  0.3814233835804856  0.25501948700395033  0.3336395698923799  1.0000
  C   C38       1.0  0.353140118530199  0.23075133676049192  0.32715139641380336  1.0000
  C   C39       1.0  0.305814458489691  0.23209924929807904  0.3270465688634236  1.0000
  C   C40       1.0  0.2870330518596933  0.25752414916968164  0.3339157819617212  1.0000
  C   C41       1.0  0.3159117183045699  0.28121278806274075  0.3417481609660246  1.0000
  C   C42       1.0  0.3630148347174777  0.28007140993404567  0.34138018542429666  1.0000
  H   H25       1.0  0.36743564821709934  0.21122044019743302  0.3214373279809554  1.0000
  H   H26       1.0  0.28385988313519683  0.213509034629449  0.3215801239434768  1.0000
  H   H27       1.0  0.3015822911241694  0.3007797356025236  0.3474033375153511  1.0000
  H   H28       1.0  0.3850038672814273  0.29859847471940576  0.3470549404131879  1.0000
  C   C43       1.0  0.42315675028479216  0.363627669354561  0.2269928803620161  1.0000
  C   C44       1.0  0.3971729470237653  0.37652336776483625  0.20642727863842406  1.0000
  C   C45       1.0  0.4181954814018136  0.3837779276754949  0.18779281465389294  1.0000
  C   C46       1.0  0.46519815687708893  0.3780227414998374  0.18963096767521612  1.0000
  C   C47       1.0  0.4908746765591905  0.36456329729185244  0.2099926510890286  1.0000
  C   C48       1.0  0.4699891794001834  0.357530074379107  0.22872641154190246  1.0000
  H   H29       1.0  0.3608962543298213  0.3811488546557562  0.20500354600272583  1.0000
  H   H30       1.0  0.39791410704475705  0.3934523892522892  0.17189228556079275  1.0000
  H   H31       1.0  0.5272031822303742  0.35993465511119244  0.21144721296617125  1.0000
  H   H32       1.0  0.49023650456399837  0.3474675849656186  0.24451787884491114  1.0000
  C   C49       1.0  0.45120566633018916  0.39363704295671476  0.38051118362356157  1.0000
  C   C50       1.0  0.44781895999914717  0.4162007359077727  0.39626541933295956  1.0000
  C   C51       1.0  0.41827807340232936  0.41375097647512243  0.41199773700411807  1.0000
  C   C52       1.0  0.39155902476955096  0.38884888094708486  0.4117875101324913  1.0000
  C   C53       1.0  0.3940722032498297  0.3665788404191991  0.39563136190414466  1.0000
  C   C54       1.0  0.4241747802814949  0.3688436517477953  0.3801519129793013  1.0000
  H   H33       1.0  0.4684135308596558  0.43550522270234004  0.3963831706989582  1.0000
  H   H34       1.0  0.416138416831942  0.4311643291545568  0.42414922220612955  1.0000
  H   H35       1.0  0.37337695206546656  0.34727840378661173  0.3953688517794426  1.0000
  H   H36       1.0  0.42682997658382943  0.35125628643974455  0.3681701108128933  1.0000
  C   C55       1.0  0.5550558407843103  0.4284064619830508  0.5366731751938025  1.0000
  C   C56       1.0  0.6012267549590914  0.43495671847314515  0.5475157881254975  1.0000
  C   C57       1.0  0.6257812385887604  0.4177174614702474  0.5659701384708284  1.0000
  C   C58       1.0  0.6045064750493517  0.3934400043419785  0.5730337606785234  1.0000
  C   C59       1.0  0.5585225750766108  0.38680999494818535  0.562073913011665  1.0000
  C   C60       1.0  0.5335753109707371  0.40457599331488714  0.5442576548008473  1.0000
  H   H37       1.0  0.6179329105655225  0.45344475716395655  0.5417402183843817  1.0000
  H   H38       1.0  0.661303119024888  0.4229618597852579  0.5744497140351599  1.0000
  H   H39       1.0  0.5419294746251596  0.36810162677079283  0.5675833032984522  1.0000
  H   H40       1.0  0.49785781138658736  0.399593937089575  0.5363003105694155  1.0000
  C   C61       1.0  0.8838296531136066  0.345600026479069  0.6209758045802771  1.0000
  C   C62       1.0  0.930095230536629  0.3374075979382174  0.6231973058883808  1.0000
  C   C63       1.0  0.9468482583709888  0.33076725866316153  0.6029417987457186  1.0000
  C   C64       1.0  0.91721316257355  0.33211261611697507  0.580409709923283  1.0000
  C   C65       1.0  0.8707645389525921  0.3398876623111668  0.5781934227600063  1.0000
  C   C66       1.0  0.8541045539021764  0.3466750808331703  0.5984513856221724  1.0000
  H   H41       1.0  0.9531844581837094  0.33652877249571467  0.6406048707875769  1.0000
  H   H42       1.0  0.9827034260418442  0.32467794303512804  0.6047825576652144  1.0000
  H   H43       1.0  0.8476771924389297  0.3407416199712875  0.560791762150741  1.0000
  H   H44       1.0  0.8181533280877391  0.35235428641169964  0.5966548981300646  1.0000
  C   C67       1.0  0.7783437841532984  0.26844700370991625  0.8347607171397278  1.0000
  C   C68       1.0  0.8180325472230981  0.26021367716508503  0.8515480207041244  1.0000
  C   C69       1.0  0.8426939710153591  0.23554942446623522  0.8476851843555211  1.0000
  C   C70       1.0  0.8278757083830918  0.21914058405936543  0.8269460983764962  1.0000
  C   C71       1.0  0.7892101152664299  0.22798112320851902  0.8097517438231944  1.0000
  C   C72       1.0  0.7642803975539532  0.25252331473844025  0.8137090083595123  1.0000
  H   H45       1.0  0.8294411402249707  0.2726562069160908  0.8677206382008931  1.0000
  H   H46       1.0  0.8730114849886351  0.22917215562491136  0.8608154453130715  1.0000
  H   H47       1.0  0.7782596942263591  0.21563259467660004  0.7934757335037985  1.0000
  H   H48       1.0  0.734429762628468  0.2591570845154692  0.8004215388252781  1.0000
  C   C73       1.0  0.586926221312993  0.37323273049811534  0.870230404845779  1.0000
  C   C74       1.0  0.619810033287651  0.3888344445024456  0.8615205156424134  1.0000
  C   C75       1.0  0.6517833762295863  0.40657933910435134  0.876842411169454  1.0000
  C   C76       1.0  0.6519024496770984  0.4081676365896844  0.9010616956928661  1.0000
  C   C77       1.0  0.6184599917977267  0.3930287635998078  0.9097492526858778  1.0000
  C   C78       1.0  0.5856218813356868  0.37583088441108325  0.8942570778908926  1.0000
  H   H49       1.0  0.6203883865117823  0.3873933905741995  0.8429294135540921  1.0000
  H   H50       1.0  0.677224578022994  0.41855609987864695  0.8700022196393904  1.0000
  H   H51       1.0  0.618099392004836  0.39437445245370234  0.928392899141732  1.0000
  H   H52       1.0  0.5600146026955275  0.3639022593430553  0.9010077134317811  1.0000
  C   C79       1.0  0.6260832317196324  0.3562249842160641  0.7298107462672636  1.0000
  C   C80       1.0  0.636726494269457  0.3525423593911744  0.7075849864583145  1.0000
  C   C81       1.0  0.6667689198159937  0.3718156552530316  0.6999472353824282  1.0000
  C   C82       1.0  0.685544004005604  0.39527092738979314  0.7142713218627229  1.0000
  C   C83       1.0  0.6753856640908276  0.39876392037502056  0.7366684597567753  1.0000
  C   C84       1.0  0.6460446452513456  0.37910783359240385  0.7445401769904917  1.0000
  H   H53       1.0  0.622028714971023  0.3345365306229522  0.6963819262883792  1.0000
  H   H54       1.0  0.6748067157123381  0.3687084407915833  0.6828486822488463  1.0000
  H   H55       1.0  0.689958416465165  0.41677177114227654  0.7479149279223907  1.0000
  H   H56       1.0  0.6378464528598338  0.38212447074841294  0.7617076104320507  1.0000
  C   C85       1.0  0.3940766161999335  0.22747419648278683  0.7856418544925338  1.0000
  C   C86       1.0  0.41473965087772335  0.20264405948129938  0.7788908215046915  1.0000
  C   C87       1.0  0.4633478695804326  0.20043629166944077  0.7838032829890226  1.0000
  C   C88       1.0  0.49119501146952704  0.2231088980932218  0.7953244067422277  1.0000
  C   C89       1.0  0.47041490812813197  0.24723385388407706  0.8030465799475389  1.0000
  C   C90       1.0  0.4220313227390305  0.24937110984354316  0.7982549141356764  1.0000
  H   H57       1.0  0.3933837671611854  0.18554909816280696  0.7693168848709572  1.0000
  H   H58       1.0  0.4792709718866104  0.18163822891291245  0.7778997306911722  1.0000
  H   H59       1.0  0.4915795842649053  0.26439901142304073  0.8126208936991993  1.0000
  H   H60       1.0  0.40620087109493414  0.2683960061842157  0.8038823102056859  1.0000
  C   C91       1.0  0.20333287257621693  0.2076267031020244  0.6602037670558258  1.0000
  C   C92       1.0  0.2137204507662722  0.23253951154769792  0.674145409335155  1.0000
  C   C93       1.0  0.19577841856139924  0.25919339518281753  0.6652978640730316  1.0000
  C   C94       1.0  0.1678578469277889  0.26122326284073355  0.6423201142760614  1.0000
  C   C95       1.0  0.1588917129444789  0.23654245706675187  0.6279297270234708  1.0000
  C   C96       1.0  0.17661763107089715  0.20975037278658393  0.6369021876111504  1.0000
  H   H61       1.0  0.23558200751528244  0.23131430627862068  0.6917697366491976  1.0000
  H   H62       1.0  0.20303936154364852  0.2782808368250783  0.6764116961637378  1.0000
  H   H63       1.0  0.1372309131988159  0.2379511876393248  0.6101904881717908  1.0000
  H   H64       1.0  0.16862829452689085  0.1905441225427504  0.6259887173930377  1.0000
  C   C97       1.0  0.10604477006454531  0.17027120441833227  0.7854199138310717  1.0000
  C   C98       1.0  0.13977409179780237  0.15462401832091854  0.8011203233826271  1.0000
  C   C99       1.0  0.13035789214012847  0.14379755930091956  0.8221100358294642  1.0000
  C   C100      1.0  0.08717501459487594  0.14852043726087566  0.8274294682559377  1.0000
  C   C101      1.0  0.05327625956002669  0.16404336858796786  0.8117277406110881  1.0000
  C   C102      1.0  0.06274349520445309  0.17490654726123187  0.7907259802472193  1.0000
  H   H65       1.0  0.17319845757765592  0.1509907350689939  0.7971662512141114  1.0000
  H   H66       1.0  0.15681468605469787  0.1320695018111032  0.8343926737348205  1.0000
  H   H67       1.0  0.019775403465562832  0.16770679324034687  0.8157119433695244  1.0000
  H   H68       1.0  0.03649695859399938  0.18698255116505963  0.7786046570638807  1.0000
  C   C103      1.0  0.7198319113307462  0.2712813416228215  0.36356860873229646  1.0000
  C   C104      1.0  0.6830205408252568  0.2875384979282698  0.3682134605106906  1.0000
  C   C105      1.0  0.6519402273740827  0.30129623943128914  0.34971216720485904  1.0000
  C   C106      1.0  0.6574197778915566  0.2989053110457267  0.3264018916245289  1.0000
  C   C107      1.0  0.6952343034841082  0.2834821564252299  0.321836533324639  1.0000
  C   C108      1.0  0.7264621547632156  0.2696674463091437  0.340393590858515  1.0000
  H   H69       1.0  0.6780350144799201  0.2890673195005584  0.38615304569821995  1.0000
  H   H70       1.0  0.623882458003792  0.3138221499558622  0.3535489469285753  1.0000
  H   H71       1.0  0.6998859723210756  0.2817573088394968  0.3038430664984023  1.0000
  H   H72       1.0  0.7548623067687632  0.2572025731567927  0.33667862173701624  1.0000
  C   C109      1.0  0.011482993251728635  0.2660155908783058  0.4410091807693698  1.0000
  C   C110      1.0  0.03393444490333497  0.2880861033345741  0.4559418726307369  1.0000
  C   C111      1.0  0.05724998382731039  0.28200851952166506  0.47931695736511604  1.0000
  C   C112      1.0  0.05918958566758303  0.25373680930062115  0.48764312582664554  1.0000
  C   C113      1.0  0.038530461709789465  0.23147949673099755  0.4723411379124681  1.0000
  C   C114      1.0  0.014078465905218218  0.23765450192981272  0.44915244783571673  1.0000
  H   H73       1.0  0.03213430284080965  0.3100378076101522  0.4496388510598192  1.0000
  H   H74       1.0  0.07382762430619816  0.299203380929066  0.4908276469755761  1.0000
  H   H75       1.0  0.040317300413144075  0.20951575656417112  0.47862907014066536  1.0000
  H   H76       1.0  0.997106755870713  0.22045654080273486  0.43764980339999676  1.0000
  C   C115      1.0  0.9300844681897585  0.20094627992528552  0.3076273959804413  1.0000
  C   C116      1.0  0.9239080338921737  0.23079347030561687  0.306520897095917  1.0000
  C   C117      1.0  0.9493606820537914  0.2476346118100745  0.2938899211620919  1.0000
  C   C118      1.0  0.9823700240056331  0.234786376026756  0.28324252029939534  1.0000
  C   C119      1.0  0.9882219954684451  0.20488366693687043  0.28415475634237375  1.0000
  C   C120      1.0  0.9615173576994996  0.18794264599285218  0.2960128034579283  1.0000
  H   H77       1.0  0.8991113602803926  0.24085816040402547  0.31513437474886263  1.0000
  H   H78       1.0  0.944541239238134  0.27073423988882755  0.29300887533103787  1.0000
  H   H79       1.0  0.01353595338156377  0.19485763771856368  0.2758579914277561  1.0000
  H   H80       1.0  0.966044280169226  0.16484483783676784  0.29667037564842563  1.0000
  C   C121      1.0  0.17349190602778086  0.06631863151647277  0.24279914673778777  1.0000
  C   C122      1.0  0.18049178560525014  0.09579309741537312  0.2397175857832116  1.0000
  C   C123      1.0  0.16765927714323509  0.11620351714654023  0.2551588323228763  1.0000
  C   C124      1.0  0.14846241887147527  0.10706267481491381  0.2738782723667926  1.0000
  C   C125      1.0  0.14343680895244115  0.07759456674034615  0.27750331632746816  1.0000
  C   C126      1.0  0.1555574762056533  0.05733979219513441  0.2619335115679345  1.0000
  H   H81       1.0  0.19594681079436863  0.10274606624701743  0.22549803016559583  1.0000
  H   H82       1.0  0.17280007698296285  0.13892802233212598  0.25271614170379586  1.0000
  H   H83       1.0  0.13021969050634996  0.0701957255818441  0.29234239803903056  1.0000
  H   H84       1.0  0.15110636081648954  0.034720182005889555  0.2649127897511096  1.0000
  C   C127      1.0  0.04091373170034385  0.9233387742398247  0.1652703876213085  1.0000
  C   C128      1.0  0.018186684157269095  0.9010400783381036  0.15061803277129443  1.0000
  C   C129      1.0  0.029425262923884477  0.8950753890089299  0.12871764277770054  1.0000
  C   C130      1.0  0.06312076765679686  0.9116196879894285  0.121414163722175  1.0000
  C   C131      1.0  0.08478001682825598  0.9343941973697804  0.13577651017653547  1.0000
  C   C132      1.0  0.07380629626491575  0.9401961883307398  0.15768553232048887  1.0000
  H   H85       1.0  0.9927301374971812  0.8879039871349989  0.15643301367910398  1.0000
  H   H86       1.0  0.012614023944685027  0.8774353073189861  0.1176773012252825  1.0000
  H   H87       1.0  0.11061784351558868  0.947338914170811  0.13007783022546812  1.0000
  H   H88       1.0  0.09070814097392638  0.9578258046154384  0.16863674507854656  1.0000
  C   C133      1.0  0.9041184120007008  0.020033878416457096  0.8711439637047597  1.0000
  C   C134      1.0  0.8786772855137731  0.0451043174279091  0.8640728455627014  1.0000
  C   C135      1.0  0.8866698437389455  0.06999805345069612  0.8783522409688076  1.0000
  C   C136      1.0  0.9192200390351005  0.06961657702820612  0.9000506387803496  1.0000
  C   C137      1.0  0.9437277684866512  0.044298413088027074  0.9074465449062651  1.0000
  C   C138      1.0  0.9366694180507209  0.01961193671113537  0.8928408112329914  1.0000
  H   H89       1.0  0.8534081523571709  0.0454464115323312  0.8473197792073558  1.0000
  H   H90       1.0  0.8675656438953069  0.0894901957671309  0.8726393403797217  1.0000
  H   H91       1.0  0.9688571422160874  0.04397169525824873  0.9242585611704912  1.0000
  H   H92       1.0  0.9560614428689868  0.00021673886812401122  0.8984980644045879  1.0000
  C   C139      1.0  0.034113414894560545  0.8990541326297361  0.943477490258993  1.0000
  C   C140      1.0  0.9967365185676493  0.8813291551471162  0.9329095817457257  1.0000
  C   C141      1.0  0.9719677412179297  0.866432489406877  0.9471189692600319  1.0000
  C   C142      1.0  0.9847104373867175  0.8690808202910644  0.9719158022634778  1.0000
  C   C143      1.0  0.021383520311935467  0.8873067501877504  0.982431777990485  1.0000
  C   C144      1.0  0.046178894956452776  0.9021365744320895  0.9682436848545545  1.0000
  H   H93       1.0  0.9879146607620021  0.8783685886695384  0.9138727644039621  1.0000
  H   H94       1.0  0.9437359216645662  0.8522834780156131  0.9389451434099436  1.0000
  H   H95       1.0  0.030593413102564915  0.8900732502023966  0.0014952581922187402  1.0000
  H   H96       1.0  0.07483458151184008  0.9160133365584155  0.9764701377580371  1.0000
  C   C145      1.0  0.6790322629146922  0.5840809266294736  0.9815863531585851  1.0000
  C   C146      1.0  0.6852276466618591  0.5833811640601733  0.006262829040492468  1.0000
  C   C147      1.0  0.7005571382152688  0.5581638367769864  0.01867193104603193  1.0000
  C   C148      1.0  0.7084903074886819  0.533274186513365  0.006401787653708357  1.0000
  C   C149      1.0  0.6998321249260514  0.5334039419351481  0.9815808764394899  1.0000
  C   C150      1.0  0.6852546237615081  0.5588845009682727  0.969169700938012  1.0000
  H   H97       1.0  0.6783213151873038  0.6022873869006429  0.01584549048992856  1.0000
  H   H98       1.0  0.7066076954483517  0.5579758207873566  0.03784770346644217  1.0000
  H   H99       1.0  0.7060761182819476  0.5142091254564493  0.9720308198763253  1.0000
  H   H100      1.0  0.680242645025047  0.5592402737830758  0.9500484225116625  1.0000
  C   C151      1.0  0.8829314166320199  0.7057450883293226  0.04672577814526124  1.0000
  C   C152      1.0  0.9274770106418991  0.7152146544321631  0.0460726243795353  1.0000
  C   C153      1.0  0.9469486285636478  0.7391253524000436  0.05976438628833569  1.0000
  C   C154      1.0  0.9220758192262669  0.7533815181744976  0.0742601382504755  1.0000
  C   C155      1.0  0.878745881305982  0.7427662077928571  0.07600020352512615  1.0000
  C   C156      1.0  0.8591102813511751  0.7190079019260373  0.06218679167750496  1.0000
  H   H101      1.0  0.9462270320456969  0.704782613304892  0.034331355396086005  1.0000
  H   H102      1.0  0.9811714928993553  0.7465013703524424  0.05909959768231299  1.0000
  H   H103      1.0  0.8597197376498081  0.7534721390585658  0.08749248834764667  1.0000
  H   H104      1.0  0.8252806805796629  0.7112249639973883  0.06330215885149859  1.0000
  C   C157      1.0  0.3680626012285149  0.6036860614184251  0.13493603235033283  1.0000
  C   C158      1.0  0.40674519458235786  0.6080723294203115  0.1536425319694737  1.0000
  C   C159      1.0  0.43074853952922276  0.5843357550297171  0.16529910530006486  1.0000
  C   C160      1.0  0.41657317374623587  0.5562463628879182  0.15799420467289907  1.0000
  C   C161      1.0  0.37759544231702996  0.5519281475564278  0.1394854537218168  1.0000
  C   C162      1.0  0.35316555312862064  0.5756142300890907  0.12809904036400657  1.0000
  H   H105      1.0  0.41817910485169296  0.6297342172424689  0.1591394378034999  1.0000
  H   H106      1.0  0.4607664363974429  0.5877747391543044  0.17970115793977606  1.0000
  H   H107      1.0  0.36584652843898074  0.5303207897148556  0.1340998013534997  1.0000
  H   H108      1.0  0.32311555082625837  0.5721444081193078  0.11372442941852277  1.0000
  C   C163      1.0  0.26876835019360296  0.7777011408830132  0.10933749598329523  1.0000
  C   C164      1.0  0.26965781523255045  0.7659581267603952  0.08709968742176936  1.0000
  C   C165      1.0  0.23069538776076373  0.7681318142758792  0.06818580038817398  1.0000
  C   C166      1.0  0.19093430776600337  0.7824155973538616  0.071366844269403  1.0000
  C   C167      1.0  0.1905887948994751  0.7949636791441191  0.09339690864360518  1.0000
  C   C168      1.0  0.22938629172981168  0.7925263065373254  0.11237251994897762  1.0000
  H   H109      1.0  0.30047476535147744  0.7554443272633  0.0843762195501965  1.0000
  H   H110      1.0  0.2314117958826608  0.7587269198316375  0.05108570518927902  1.0000
  H   H111      1.0  0.1604148854993111  0.8063739303942271  0.09591696872644291  1.0000
  H   H112      1.0  0.22869665440865286  0.8018596290982887  0.12949574721677248  1.0000
  C   C169      1.0  0.519251502277554  0.7118038448553202  0.07013785021452285  1.0000
  C   C170      1.0  0.5398923172767123  0.7203003437583798  0.05173420220247827  1.0000
  C   C171      1.0  0.5850710993440694  0.711519397933488  0.05147654259898138  1.0000
  C   C172      1.0  0.6097752598675094  0.6943285089942972  0.06972428021600985  1.0000
  C   C173      1.0  0.5889384850683927  0.6854990181016457  0.0879754941297497  1.0000
  C   C174      1.0  0.5436058437099485  0.6940713898092792  0.08810830960104887  1.0000
  H   H113      1.0  0.5211034980836121  0.7339927367762937  0.037780755970828535  1.0000
  H   H114      1.0  0.6010735547970446  0.718539835898208  0.037427130968989086  1.0000
  H   H115      1.0  0.6079796352655142  0.6719759782627089  0.10196887466116022  1.0000
  H   H116      1.0  0.5277338648894675  0.6872063939667372  0.10217361387398505  1.0000
  C   C175      1.0  0.3786486822667422  0.5889019742394375  0.46334797635331465  1.0000
  C   C176      1.0  0.33533501721629  0.5901085918276822  0.469070896612997  1.0000
  C   C177      1.0  0.315485395184363  0.5650387692386966  0.47590737176863057  1.0000
  C   C178      1.0  0.3392217838919474  0.5388233077904842  0.47744757139272814  1.0000
  C   C179      1.0  0.3829362269797262  0.5377178283127226  0.47211727403429304  1.0000
  C   C180      1.0  0.40231405143344734  0.562658568168902  0.46473830074010686  1.0000
  H   H117      1.0  0.3165742810147207  0.6102015111956184  0.4676770776235996  1.0000
  H   H118      1.0  0.281573200661305  0.5659634309070288  0.47993599941373577  1.0000
  H   H119      1.0  0.40175815281917443  0.5176912768014947  0.4735357407259773  1.0000
  H   H120      1.0  0.435933509578498  0.5617022252085956  0.4603820066697673  1.0000
  C   C181      1.0  0.1539377582130749  0.7160035079713284  0.5262987671812792  1.0000
  C   C182      1.0  0.1393491655952134  0.734169813256402  0.5069076847283075  1.0000
  C   C183      1.0  0.16118345106687923  0.7331388898743352  0.48778227311124456  1.0000
  C   C184      1.0  0.1984387067178633  0.7144741289365062  0.4882025903305399  1.0000
  C   C185      1.0  0.21246939095918807  0.6958343467948439  0.50738539695256  1.0000
  C   C186      1.0  0.18968988646867566  0.6962884057869709  0.5262398751944843  1.0000
  H   H121      1.0  0.11146557359498296  0.7492492448255176  0.5066239418218478  1.0000
  H   H122      1.0  0.15006241490372926  0.7474989862268855  0.47292551553883616  1.0000
  H   H123      1.0  0.2408396122656417  0.6811310840382025  0.5076625764662294  1.0000
  H   H124      1.0  0.20074879109712082  0.6819769828332317  0.5411084012692589  1.0000
  C   C187      1.0  0.3678797403947365  0.8937312703736983  0.3083644728523683  1.0000
  C   C188      1.0  0.35071523531436805  0.8692029184836043  0.2950291212866362  1.0000
  C   C189      1.0  0.30905866625011164  0.8704430494306079  0.27776665929449623  1.0000
  C   C190      1.0  0.28422977512032127  0.8962129865082685  0.2736420731288064  1.0000
  C   C191      1.0  0.3003788958394141  0.9205570893476335  0.2874942017411615  1.0000
  C   C192      1.0  0.3420776589275841  0.9192563898942154  0.3048963650530255  1.0000
  H   H125      1.0  0.36953940333101026  0.8492790725986995  0.2977270337296443  1.0000
  H   H126      1.0  0.2964243829311702  0.851461444228065  0.2672736341627613  1.0000
  H   H127      1.0  0.28145307411999565  0.9405761863987597  0.284426886541778  1.0000
  H   H128      1.0  0.3549024897481889  0.9383055937810667  0.3152606205852151  1.0000
  C   C193      1.0  0.5054926207147683  0.7923739578223205  0.23506657791023952  1.0000
  C   C194      1.0  0.479239136219746  0.7906609647890273  0.21168317940619186  1.0000
  C   C195      1.0  0.47949023498975524  0.7654985049404167  0.19816732206203969  1.0000
  C   C196      1.0  0.5073781528985069  0.7422688125411309  0.20762596821820875  1.0000
  C   C197      1.0  0.5337095657448663  0.7439243520801054  0.23104759891482574  1.0000
  C   C198      1.0  0.5322355826797389  0.768821327697498  0.24491363500887733  1.0000
  H   H129      1.0  0.4584589901015766  0.8087936099685172  0.20400040195447744  1.0000
  H   H130      1.0  0.45850665358782816  0.7643274282711678  0.18032592268658953  1.0000
  H   H131      1.0  0.5552466452478655  0.7259726771437961  0.23848650422318213  1.0000
  H   H132      1.0  0.5527980498072861  0.7701075246403609  0.26293167923098687  1.0000
  C   C199      1.0  0.4628855823672826  0.7560981022900864  0.3789088473418691  1.0000
  C   C200      1.0  0.43404542297624  0.7356980957194572  0.3861317134577274  1.0000
  C   C201      1.0  0.4258838776471154  0.7368963779179369  0.4091404898549485  1.0000
  C   C202      1.0  0.4465760713421928  0.758555435192795  0.42499695840918  1.0000
  C   C203      1.0  0.47620204291046997  0.7785536751853541  0.417967459018159  1.0000
  C   C204      1.0  0.48453051913642586  0.7772273177410357  0.39503872462639167  1.0000
  H   H133      1.0  0.417420543955345  0.7191656598738276  0.37376483488007894  1.0000
  H   H134      1.0  0.40321615036896474  0.7212470792102095  0.4144469960422358  1.0000
  H   H135      1.0  0.49272589496458685  0.7951603480663914  0.43026968510995417  1.0000
  H   H136      1.0  0.5079697203673388  0.7924283635591344  0.38992677245687646  1.0000
  C   C205      1.0  0.7128969870325025  0.5655262170484399  0.6286575021700768  1.0000
  C   C206      1.0  0.7570044322971266  0.5675985624087114  0.6238932004662273  1.0000
  C   C207      1.0  0.7802484052716604  0.5425487409619361  0.6193283986521123  1.0000
  C   C208      1.0  0.7594565157908322  0.5154138207993405  0.6194879178898458  1.0000
  C   C209      1.0  0.7147459110872759  0.5135054458748077  0.6234646033697332  1.0000
  C   C210      1.0  0.6915842070612088  0.5384940795665468  0.6281063296209372  1.0000
  H   H137      1.0  0.7736650929661145  0.5884266373082373  0.6242893729979714  1.0000
  H   H138      1.0  0.8147266312543524  0.5442130225350235  0.6161101681489738  1.0000
  H   H139      1.0  0.6979299783987231  0.49281581126123  0.6229220380939555  1.0000
  H   H140      1.0  0.6571780577846403  0.5369089361936246  0.6314292716122359  1.0000
  C   C211      1.0  0.5776452860768085  0.6992767463071409  0.5563350304668748  1.0000
  C   C212      1.0  0.5468214366908538  0.7158036064586953  0.5398064560817117  1.0000
  C   C213      1.0  0.49918720019061236  0.7147146311701258  0.5387750344437906  1.0000
  C   C214      1.0  0.4821087188224514  0.6972401285233643  0.5544388235734949  1.0000
  C   C215      1.0  0.5129851709687928  0.6814816234973057  0.5716277429354989  1.0000
  C   C216      1.0  0.5607452138129183  0.6822674512027099  0.5724159497611806  1.0000
  H   H141      1.0  0.5599160151263024  0.7296238029057106  0.5278921157454222  1.0000
  H   H142      1.0  0.4756805499496575  0.7276280901557356  0.5259460466148043  1.0000
  H   H143      1.0  0.5000136367631212  0.668109177554927  0.5839272743731749  1.0000
  H   H144      1.0  0.5843039439750923  0.6692778583056038  0.5851110397239897  1.0000
  C   C217      1.0  0.8779990186808657  0.6981253007454639  0.5904260937716271  1.0000
  C   C218      1.0  0.845344859346459  0.7166066014207599  0.5769947247524503  1.0000
  C   C219      1.0  0.8598253065366606  0.7415167337144648  0.5671802008751744  1.0000
  C   C220      1.0  0.9070503562718839  0.7479101220308921  0.5704581088285577  1.0000
  C   C221      1.0  0.9399492982237535  0.7293462415089741  0.5837103893759759  1.0000
  C   C222      1.0  0.925378638791289  0.704424033536768  0.5936883860321319  1.0000
  H   H145      1.0  0.8088524522980344  0.7115621738883287  0.5739040766470304  1.0000
  H   H146      1.0  0.834291605339452  0.7558243008997658  0.5568919847442342  1.0000
  H   H147      1.0  0.9763922134174807  0.7346219084980136  0.5867371724671355  1.0000
  H   H148      1.0  0.9506743235413757  0.690335943680532  0.6043822593852924  1.0000
  C   C223      1.0  0.7977842693143996  0.8629429130526192  0.8015692803886056  1.0000
  C   C224      1.0  0.8213823661461639  0.837842627305965  0.7978780251598243  1.0000
  C   C225      1.0  0.8700705708166137  0.8375815225852024  0.8031091788447731  1.0000
  C   C226      1.0  0.8951748402933477  0.8623192485569525  0.812302947474584  1.0000
  C   C227      1.0  0.8715467372223086  0.8875915726665641  0.8154157050033523  1.0000
  C   C228      1.0  0.8229624056421325  0.8879350328989637  0.8099143264101365  1.0000
  H   H149      1.0  0.8021570929980532  0.8187082189686363  0.7908174573484573  1.0000
  H   H150      1.0  0.8881859273041359  0.818051671815679  0.8004621905507279  1.0000
  H   H151      1.0  0.890541297610458  0.9068771473276853  0.8223385390906127  1.0000
  H   H152      1.0  0.8048705971611195  0.9074756604086975  0.8126296218532624  1.0000
  C   C229      1.0  0.7302689508142142  0.7622601088816681  0.900995392271717  1.0000
  C   C230      1.0  0.7557272567549181  0.748278273178672  0.9211279684619635  1.0000
  C   C231      1.0  0.7393450791900459  0.7474144528367657  0.9420240607069157  1.0000
  C   C232      1.0  0.6976527754589655  0.7608086897261571  0.9430067101773864  1.0000
  C   C233      1.0  0.6726745597147893  0.7754414766924888  0.9230523630833352  1.0000
  C   C234      1.0  0.6887665165750174  0.7759911479586499  0.9019583516227022  1.0000
  H   H153      1.0  0.7880197642257079  0.7377985568556045  0.9204668890766117  1.0000
  H   H154      1.0  0.7592584508220166  0.7366161867263267  0.957422164273401  1.0000
  H   H155      1.0  0.6404837500766399  0.7859913665505317  0.9237956296654178  1.0000
  H   H156      1.0  0.6691037386136043  0.7869825624530784  0.8864993080602457  1.0000
  C   C235      1.0  0.6990545468451284  0.7260528679665215  0.7366367273260637  1.0000
  C   C236      1.0  0.6942641451027489  0.7032958385749761  0.7201372108631016  1.0000
  C   C237      1.0  0.7063267997475349  0.7070962928367552  0.6982247897303284  1.0000
  C   C238      1.0  0.7231991156374775  0.7337215689277966  0.6927593508340056  1.0000
  C   C239      1.0  0.7280417623771357  0.7564859164346495  0.7092722758168356  1.0000
  C   C240      1.0  0.7160455829275857  0.7526707998401165  0.7312061221660976  1.0000
  H   H157      1.0  0.6811518975517096  0.6826627903431889  0.7242877885628559  1.0000
  H   H158      1.0  0.7025796855541127  0.6894464428491278  0.6855702056154157  1.0000
  H   H159      1.0  0.7411062588852064  0.777121330890472  0.7051007104875494  1.0000
  H   H160      1.0  0.7198678366473471  0.7703123847353324  0.7438690662902814  1.0000
  C   C241      1.0  0.930344662937256  0.06638961442689784  0.3885960321465865  1.0000
  C   C242      1.0  0.9292639668660511  0.09405112516316128  0.37911106224905355  1.0000
  C   C243      1.0  0.9157250324084932  0.11756706804404461  0.3912043377574485  1.0000
  C   C244      1.0  0.9042577843186189  0.11371491206092141  0.41314114796567875  1.0000
  C   C245      1.0  0.9050831270348048  0.08597432415836695  0.4226277665334497  1.0000
  C   C246      1.0  0.9177706573027993  0.06223987606755821  0.4102496719479603  1.0000
  H   H161      1.0  0.9380673275560842  0.097352404600074  0.3621693076471712  1.0000
  H   H162      1.0  0.9139055608302751  0.13864184824279552  0.3833812410011277  1.0000
  H   H163      1.0  0.8961319168177121  0.08289486538937411  0.4395752734089152  1.0000
  H   H164      1.0  0.9188372413835285  0.040898758990948414  0.41771160230400917  1.0000
  C   C247      1.0  0.7208718688366975  0.9319682479901178  0.3525851695046335  1.0000
  C   C248      1.0  0.6743078533961141  0.9317319651022788  0.354115547233331  1.0000
  C   C249      1.0  0.6505784231376136  0.9054579093956414  0.3541035828639527  1.0000
  C   C250      1.0  0.6734550501963641  0.879437657437161  0.3525074659630954  1.0000
  C   C251      1.0  0.7191437639299568  0.8798260100735878  0.3496498667912132  1.0000
  C   C252      1.0  0.7428305555730339  0.9060063886941356  0.349707527614593  1.0000
  H   H165      1.0  0.6570487807025666  0.9517910075019397  0.3561585430864233  1.0000
  H   H166      1.0  0.6153094124571431  0.9052855230404643  0.3563592206455401  1.0000
  H   H167      1.0  0.7364813679943336  0.8597682999617744  0.34770255084558743  1.0000
  H   H168      1.0  0.7781706808542496  0.9060596569850244  0.34765929363488984  1.0000
  C   C253      1.0  0.9433734022289264  0.8999213014326753  0.4566899011668407  1.0000
  C   C254      1.0  0.9721538829387274  0.8899496887013396  0.4422806261249528  1.0000
  C   C255      1.0  0.0006531085488701294  0.8659825797421175  0.44922994517312675  1.0000
  C   C256      1.0  3.7891240468157505e-05  0.8517548311214094  0.47042739076935475  1.0000
  C   C257      1.0  0.9700696185378255  0.8611955343482163  0.48441518406268735  1.0000
  C   C258      1.0  0.9420835033325266  0.8854091888593988  0.4776726402199077  1.0000
  H   H169      1.0  0.9730503994381643  0.9009298654679917  0.4259532738241305  1.0000
  H   H170      1.0  0.023563080668773217  0.8586327782677464  0.4382549701218861  1.0000
  H   H171      1.0  0.9683105059178341  0.8498218824248486  0.500368661834185  1.0000
  H   H172      1.0  0.9193471489270184  0.8928615970720504  0.48868785002295384  1.0000
  C   C259      1.0  0.9987386642140182  0.9276292515374195  0.330878839924773  1.0000
  C   C260      1.0  0.028980497147381934  0.91572675008832  0.3179383513539426  1.0000
  C   C261      1.0  0.05953125697731032  0.9336407170424594  0.3091591052749369  1.0000
  C   C262      1.0  0.05975588954805722  0.9633791920091763  0.3133748679259895  1.0000
  C   C263      1.0  0.030427926931629656  0.9750159195122358  0.3268020702052867  1.0000
  C   C264      1.0  0.9999955183801328  0.9572529497337663  0.33549342285948974  1.0000
  H   H173      1.0  0.028464119214181682  0.8927523192891317  0.31457540411258533  1.0000
  H   H174      1.0  0.0829498709002019  0.9244743250095772  0.29925901007943995  1.0000
  H   H175      1.0  0.03067817907966508  0.997907385822042  0.33020412843284613  1.0000
  H   H176      1.0  0.9771500008519116  0.9666823690045583  0.3455455331109223  1.0000
  C   C265      1.0  0.2550472242639954  0.009254646414958323  0.7265176118902704  1.0000
  C   C266      1.0  0.2755385887055604  0.0074764762918513306  0.7507278915345575  1.0000
  C   C267      1.0  0.28846102311469995  0.03259636216831652  0.7641972646819045  1.0000
  C   C268      1.0  0.2792657076549023  0.05967907490166483  0.753769981545165  1.0000
  C   C269      1.0  0.258005007378105  0.06160735492528384  0.729643126201886  1.0000
  C   C270      1.0  0.24615589874107283  0.03637737821976872  0.7160019286648728  1.0000
  H   H177      1.0  0.28149320607041567  0.9868168697347143  0.7591555344662902  1.0000
  H   H178      1.0  0.30479991792920896  0.03106086049720003  0.7828911753568176  1.0000
  H   H179      1.0  0.25096592526318845  0.08249180118006144  0.721463518500443  1.0000
  H   H180      1.0  0.23025251068808958  0.03790318544310778  0.6972527656197062  1.0000
  C   C271      1.0  0.5063041385221585  0.822847200840924  0.7859242797007613  1.0000
  C   C272      1.0  0.5289281512496402  0.8475469129069202  0.7805997376086418  1.0000
  C   C273      1.0  0.5031740554736096  0.8700388848945692  0.7678194854086013  1.0000
  C   C274      1.0  0.454845901844507  0.867819772145693  0.7601878359495824  1.0000
  C   C275      1.0  0.4325739966930992  0.8426102909869314  0.7647123396070915  1.0000
  C   C276      1.0  0.45818212952671805  0.8202664641691  0.7776762892972617  1.0000
  H   H181      1.0  0.5660941811992383  0.8496918967684576  0.7868851616191137  1.0000
  H   H182      1.0  0.5207112508558801  0.8894148486938213  0.764254809858897  1.0000
  H   H183      1.0  0.3955906761789835  0.8403340781597156  0.7582795473110625  1.0000
  H   H184      1.0  0.4406155556217682  0.8010317004743381  0.7815122202755692  1.0000
  C   C277      1.0  0.1888878182078352  0.8405021445017029  0.6687529879539302  1.0000
  C   C278      1.0  0.1682405028054844  0.8178745052070139  0.6538271449768098  1.0000
  C   C279      1.0  0.14765954902719902  0.8229649982274665  0.6298480585747498  1.0000
  C   C280      1.0  0.14747764255464027  0.8507553363657704  0.6206884022040515  1.0000
  C   C281      1.0  0.16823669637099628  0.8734000494216188  0.6355955931806005  1.0000
  C   C282      1.0  0.18888116684072034  0.8683072550616538  0.6595965101031683  1.0000
  H   H185      1.0  0.1682226540293276  0.7963428141878404  0.6608378654365054  1.0000
  H   H186      1.0  0.13207608524081876  0.8053572312360693  0.6185015136264206  1.0000
  H   H187      1.0  0.16816303656378795  0.8949520815422248  0.6286277512244517  1.0000
  H   H188      1.0  0.20449390961715153  0.8859088423092502  0.6710218367452733  1.0000
  C   C283      1.0  0.2130993901546425  0.9173959008683571  0.8112305766228439  1.0000
  C   C284      1.0  0.19468982945444618  0.9138551760773485  0.8312961510562307  1.0000
  C   C285      1.0  0.15869832423148528  0.9316695820265908  0.834963057443093  1.0000
  C   C286      1.0  0.1411414496682581  0.9531949518111854  0.8186512632545171  1.0000
  C   C287      1.0  0.16032594936373554  0.9572133017291604  0.7988641045458552  1.0000
  C   C288      1.0  0.19618426628680177  0.9392947773186618  0.7951105591631148  1.0000
  H   H189      1.0  0.20793267172363086  0.897119584846928  0.8439179925649644  1.0000
  H   H190      1.0  0.14495314181146507  0.9289365371162122  0.8505937253278981  1.0000
  H   H191      1.0  0.14675961171755966  0.9736687977923569  0.7860992232292646  1.0000
  H   H192      1.0  0.21043393671022162  0.9422714855057044  0.7796443085449166  1.0000
  N   N1        1.0  0.06437906266037684  0.8734701732385912  0.7863630038936733  1.0000
  C   C289      1.0  0.08341444917463543  0.862072036911591  0.8103845964394609  1.0000
  C   C290      1.0  0.031341999644296285  0.8523641318454551  0.772530576708603  1.0000
  C   C291      1.0  0.10261174667923363  0.8786318954409696  0.7743005759352029  1.0000
  C   C292      1.0  0.04002913011442355  0.9008309140452812  0.7883123583655657  1.0000
  H   H193      1.0  0.10828649361775874  0.8775293776261185  0.8213659596827648  1.0000
  H   H194      1.0  0.102112912019922  0.8414519633566143  0.8096385952317539  1.0000
  H   H195      1.0  0.055405922413192914  0.8579282553124938  0.8199731152133412  1.0000
  H   H196      1.0  0.0021534234901357074  0.8479938367313811  0.7812965709480116  1.0000
  H   H197      1.0  0.015959064703948915  0.860367910539944  0.7543701383571882  1.0000
  H   H198      1.0  0.04847372391342454  0.83142990132199  0.7706791310255976  1.0000
  H   H199      1.0  0.12224816778955273  0.8585422143111312  0.7727762072374731  1.0000
  H   H200      1.0  0.12781022323298497  0.8946468752119727  0.7842422514916103  1.0000
  H   H201      1.0  0.08961625046403011  0.8871089124762259  0.7560571170490348  1.0000
  H   H202      1.0  0.06344363169814707  0.917019296308894  0.7992631255310858  1.0000
  H   H203      1.0  0.010274907365237545  0.8975045580928375  0.7967985802147222  1.0000
  H   H204      1.0  0.02609670995617597  0.9104837483237681  0.7705977853986897  1.0000
  N   N2        1.0  0.4551752039704877  0.6013461921392486  0.5369575296418921  1.0000
  C   C293      1.0  0.42705469182785927  0.6115810919111383  0.5534646730085097  1.0000
  C   C294      1.0  0.5040981938381919  0.5985531345777833  0.5498553050152893  1.0000
  C   C295      1.0  0.45200989356665144  0.6223164045305405  0.5175878568580428  1.0000
  C   C296      1.0  0.437398574073697  0.5730659572818021  0.5268619518916191  1.0000
  H   H205      1.0  0.39016002347378187  0.6146390737267627  0.5441103764345375  1.0000
  H   H206      1.0  0.4398741763273297  0.6327173028291325  0.5616219720434825  1.0000
  H   H207      1.0  0.42788557664518545  0.5960954528968122  0.5681327349035503  1.0000
  H   H208      1.0  0.5261957455897146  0.5907521632545107  0.5378917562986275  1.0000
  H   H209      1.0  0.5186540197005447  0.619626916805887  0.5574953453018615  1.0000
  H   H210      1.0  0.5078633230236642  0.5830745251344805  0.5647668986353208  1.0000
  H   H211      1.0  0.4721937641505578  0.6152357421551039  0.5044989228069915  1.0000
  H   H212      1.0  0.46517421541130455  0.6439048356812996  0.5245764176021602  1.0000
  H   H213      1.0  0.41554285630676535  0.6250522936011852  0.5075709167862642  1.0000
  H   H214      1.0  0.4572890845918509  0.5648813710246672  0.5139928432283757  1.0000
  H   H215      1.0  0.4004082763976675  0.5744491530529633  0.5171845666888348  1.0000
  H   H216      1.0  0.43957891645618674  0.5565422896313326  0.5409043615425595  1.0000
  N   N3        1.0  0.4967883874095237  0.57576884807623  0.10316634726046914  1.0000
  C   C297      1.0  0.4958511324977357  0.5563268451836384  0.08267443949344644  1.0000
  C   C298      1.0  0.5060029920364602  0.5587603704336487  0.1252442467596162  1.0000
  C   C299      1.0  0.45154727262512867  0.5903358620753848  0.10023623935240811  1.0000
  C   C300      1.0  0.5337164313884883  0.5976136118584842  0.10451561290669131  1.0000
  H   H217      1.0  0.4890509002799041  0.5683023072553348  0.06565244775121992  1.0000
  H   H218      1.0  0.46851695676788946  0.539466188968858  0.08120859778958844  1.0000
  H   H219      1.0  0.529414204903189  0.544820635859346  0.0843529149957698  1.0000
  H   H220      1.0  0.5070306938155996  0.5726371802338108  0.14116198533578395  1.0000
  H   H221      1.0  0.47856553035258886  0.5422402080600676  0.12488566545921809  1.0000
  H   H222      1.0  0.5395785086050152  0.5471225810832008  0.1279096449675765  1.0000
  H   H223      1.0  0.4512676724519791  0.605450060415516  0.1152520414408118  1.0000
  H   H224      1.0  0.4229255638700558  0.5745437263008683  0.09957286846976743  1.0000
  H   H225      1.0  0.44305035734424725  0.6031205193836017  0.0836217485279025  1.0000
  H   H226      1.0  0.5354482755369266  0.6125739563643363  0.11986069356802509  1.0000
  H   H227      1.0  0.5277042869941952  0.610941706974065  0.08816162031545871  1.0000
  H   H228      1.0  0.5683428705217977  0.5873612952644804  0.10659825784013921  1.0000
  N   N4        1.0  0.1376202922223988  0.8302578368229467  0.9854374605485858  1.0000
  C   C301      1.0  0.1511374308247384  0.8521183145227359  0.004510843251858576  1.0000
  C   C302      1.0  0.17286197694959404  0.8072459353642433  0.98879457687056  1.0000
  C   C303      1.0  0.13435822987946122  0.8439507740864995  0.962117368269489  1.0000
  C   C304      1.0  0.09216942399817518  0.8177049960271318  0.9863855597228366  1.0000
  H   H229      1.0  0.18479177076240982  0.8624980653554541  0.004059665929487588  1.0000
  H   H230      1.0  0.15497259429358357  0.8423135613162709  0.022392475987156102  1.0000
  H   H231      1.0  0.12476432706354679  0.8695172702799153  0.00286585026116426  1.0000
  H   H232      1.0  0.16372949358688116  0.7902645794319157  0.9748111960454166  1.0000
  H   H233      1.0  0.20765085921726345  0.8159581895906323  0.9883167755224574  1.0000
  H   H234      1.0  0.1761348320992202  0.7965427907902267  0.006282902940083713  1.0000
  H   H235      1.0  0.1679410249721216  0.8537524062325603  0.9607416824830352  1.0000
  H   H236      1.0  0.10828985247693867  0.8615257344052922  0.9591104312491529  1.0000
  H   H237      1.0  0.123761898951392  0.8282144548809259  0.9472504887416279  1.0000
  H   H238      1.0  0.08074687381038248  0.8011334262410764  0.9722671320701461  1.0000
  H   H239      1.0  0.06478501943079862  0.8344367993153651  0.9840505280044802  1.0000
  H   H240      1.0  0.09327738629634541  0.8072852022673894  0.0037686190692687305  1.0000
  N   N5        1.0  0.6945904443044768  0.35346635072299604  0.06586717664551775  1.0000
  C   C305      1.0  0.6883319875813472  0.32771529081185896  0.0796842717332412  1.0000
  C   C306      1.0  0.6842490368549301  0.34589025182022565  0.040306862675473676  1.0000
  C   C307      1.0  0.743027441217458  0.3637571522562068  0.07339302737898463  1.0000
  C   C308      1.0  0.6626844544811514  0.37636428164638275  0.07009955442975394  1.0000
  H   H241      1.0  0.7119405355386161  0.3100270551713659  0.07691701205336415  1.0000
  H   H242      1.0  0.6521547605594159  0.3193696941718396  0.07439213884610722  1.0000
  H   H243      1.0  0.6957394446807447  0.33265496144165657  0.09906625513976777  1.0000
  H   H244      1.0  0.6885696413638182  0.3647753972757487  0.029348723138466815  1.0000
  H   H245      1.0  0.7079110105672167  0.3288829597233872  0.036359732228569586  1.0000
  H   H246      1.0  0.6478183391760757  0.338351655390052  0.033884855376970835  1.0000
  H   H247      1.0  0.752236360993145  0.36957792662088085  0.09259620249585188  1.0000
  H   H248      1.0  0.7490938145539405  0.3831657606495775  0.06334085556375202  1.0000
  H   H249      1.0  0.7680088834952628  0.3471660575338867  0.07009697323452381  1.0000
  H   H250      1.0  0.6661750517969013  0.3961150568206285  0.05986922409730112  1.0000
  H   H251      1.0  0.6693272706713073  0.38269892744733475  0.08917592944911144  1.0000
  H   H252      1.0  0.62583209586659  0.3693878121201352  0.06437795592180806  1.0000
  N   N6        1.0  0.20756337012553575  0.30858649030590996  0.5024688896667181  1.0000
  C   C309      1.0  0.2487802709377993  0.3125811176984246  0.52212289386749  1.0000
  C   C310      1.0  0.18640694478406467  0.2801598516049336  0.504643542976207  1.0000
  C   C311      1.0  0.2215609303612143  0.3101293275190795  0.4795413689082185  1.0000
  C   C312      1.0  0.17358653613821912  0.33153595827329335  0.5035986923060128  1.0000
  H   H253      1.0  0.26616103569305305  0.33360744183365304  0.5207782873456486  1.0000
  H   H254      1.0  0.2749159640730264  0.29541656330299765  0.5221279614336508  1.0000
  H   H255      1.0  0.2393043372349474  0.31216557006503504  0.5396975568090254  1.0000
  H   H256      1.0  0.15550486264108726  0.2761634812442002  0.4899712767377351  1.0000
  H   H257      1.0  0.21117900380660137  0.26228397799353836  0.5042795710978811  1.0000
  H   H258      1.0  0.17474428301130748  0.2784663890290806  0.5216004533051215  1.0000
  H   H259      1.0  0.2377080148312087  0.3313765225573696  0.47743326601385516  1.0000
  H   H260      1.0  0.19125166237150595  0.3072246365245766  0.4643033511339492  1.0000
  H   H261      1.0  0.2473211027257054  0.29317078807818653  0.4781028375701505  1.0000
  H   H262      1.0  0.1421787795262441  0.32949189396582956  0.4889048428909904  1.0000
  H   H263      1.0  0.18865233741460585  0.3533415219549975  0.5024848492424101  1.0000
  H   H264      1.0  0.16185755217166636  0.3308987776528076  0.5205687006057588  1.0000
  N   N7        1.0  0.7483765059275541  0.508735370143117  0.6977915187545226  1.0000
  C   C313      1.0  0.757169554120552  0.5393112779963077  0.69324831910625  1.0000
  C   C314      1.0  0.7789620785078168  0.49025217532209936  0.6871447538090436  1.0000
  C   C315      1.0  0.6994451575167964  0.5014772464934403  0.6871204950350192  1.0000
  C   C316      1.0  0.7579130734349023  0.5037168977490644  0.7236644650907882  1.0000
  H   H265      1.0  0.7934839881210355  0.5457323556898778  0.7014950245965468  1.0000
  H   H266      1.0  0.733677987723588  0.5539629519228556  0.7003046432331032  1.0000
  H   H267      1.0  0.7515571757897955  0.5435326872910522  0.673887796462592  1.0000
  H   H268      1.0  0.7739150785869217  0.4671236251981039  0.6907793701996375  1.0000
  H   H269      1.0  0.7719828780287571  0.49276496041120776  0.6675219507663833  1.0000
  H   H270      1.0  0.8161645397537081  0.4954729471494025  0.6943840227076233  1.0000
  H   H271      1.0  0.6915589892140919  0.478642218443236  0.6904787746739874  1.0000
  H   H272      1.0  0.6912220321556698  0.5043490612577649  0.6675729760340426  1.0000
  H   H273      1.0  0.6753492309027457  0.5153343708934071  0.6944523086296119  1.0000
  H   H274      1.0  0.7513670784586294  0.48075532701199775  0.7275541987672343  1.0000
  H   H275      1.0  0.7355076719330045  0.5173224944984119  0.7323395342203124  1.0000
  H   H276      1.0  0.7946592773506795  0.5086427917765572  0.7323269867311203  1.0000
  N   N8        1.0  0.8987929266843263  0.4341618001751134  0.5976144303523168  1.0000
  C   C317      1.0  0.8551264814265769  0.42790809192811013  0.5800765003054404  1.0000
  C   C318      1.0  0.9116699510514429  0.4646884122369946  0.5957679741031341  1.0000
  C   C319      1.0  0.9359157257670012  0.4153074443489273  0.592872502603013  1.0000
  C   C320      1.0  0.8922477573156489  0.4287435070834014  0.6217917878057891  1.0000
  H   H277      1.0  0.8444752538613954  0.4050004718123938  0.5809381389370729  1.0000
  H   H278      1.0  0.8586640316175864  0.43186696615021847  0.5616196436544669  1.0000
  H   H279      1.0  0.8262577368515268  0.4416134584402689  0.5832983025485536  1.0000
  H   H280      1.0  0.9169989270679463  0.4695709930105911  0.5777614458839982  1.0000
  H   H281      1.0  0.8840154058743022  0.4793463011000676  0.5991755376815773  1.0000
  H   H282      1.0  0.9442408898265859  0.47023339135478126  0.6089146761085633  1.0000
  H   H283      1.0  0.9695101468405624  0.4194566744288834  0.6056750859541862  1.0000
  H   H284      1.0  0.9413971797094802  0.41833988063969185  0.5746256445406122  1.0000
  H   H285      1.0  0.9273220421108054  0.3921738487658262  0.5944783012207115  1.0000
  H   H286      1.0  0.9248260784087705  0.43221058255500433  0.6355106828640743  1.0000
  H   H287      1.0  0.8808900331628409  0.40623324005826067  0.623557676962814  1.0000
  H   H288      1.0  0.8653330565403675  0.44307950350586756  0.6262305832200677  1.0000
  N   N9        1.0  0.3705567770511912  0.8327603274084295  0.37085880669741006  1.0000
  C   C321      1.0  0.33341654955513234  0.8540519088887728  0.36273549785884823  1.0000
  C   C322      1.0  0.3828370758087911  0.818988690642054  0.350010362951091  1.0000
  C   C323      1.0  0.35436226413346955  0.8104931467848903  0.3852664785793571  1.0000
  C   C324      1.0  0.4117984296118854  0.8475369382235914  0.3853144611600153  1.0000
  H   H289      1.0  0.32294199942400614  0.8647656895094832  0.3779838234404085  1.0000
  H   H290      1.0  0.30201382768250207  0.8437906450454629  0.3513876311716009  1.0000
  H   H291      1.0  0.344925617242122  0.8712769294211672  0.3520024173432847  1.0000
  H   H292      1.0  0.4108832419857294  0.8028920173194595  0.3553959321112315  1.0000
  H   H293      1.0  0.35271524899710244  0.8076146813147898  0.33856517382899765  1.0000
  H   H294      1.0  0.3954729746062385  0.8351783593500272  0.33892874384727434  1.0000
  H   H295      1.0  0.3814526102090537  0.793898640727163  0.3913025154462602  1.0000
  H   H296      1.0  0.3230953026835958  0.7990415840622557  0.37494268335663705  1.0000
  H   H297      1.0  0.345511568355777  0.819945615537767  0.4014262451453351  1.0000
  H   H298      1.0  0.4406626589574958  0.8321720758278005  0.3915391038770204  1.0000
  H   H299      1.0  0.403949665729438  0.8581416350240202  0.40126751649916204  1.0000
  H   H300      1.0  0.4249154975048551  0.8644634050106206  0.3749056467905236  1.0000
  N   N10       1.0  0.9342305556651622  0.2862179753901651  0.9953304119062181  1.0000
  C   C325      1.0  0.9007414927184869  0.30871291636103587  0.9848650106432183  1.0000
  C   C326      1.0  0.9328457267731931  0.26239345231686806  0.9780451867837617  1.0000
  C   C327      1.0  0.9223659056581636  0.2749533449892699  0.017066117531249647  1.0000
  C   C328      1.0  0.9812728346873549  0.2988157121989436  0.0014747643046213454  1.0000
  H   H301      1.0  0.8646798313702616  0.30020394607002276  0.9803605133158005  1.0000
  H   H302      1.0  0.9089286405871605  0.31759731403784813  0.9684634063125228  1.0000
  H   H303      1.0  0.9014917589123966  0.3270966439361114  0.9974616975169275  1.0000
  H   H304      1.0  0.8973865032902711  0.25322488054042286  0.9720757617783957  1.0000
  H   H305      1.0  0.9447558567841498  0.2694925156452043  0.9620413622771596  1.0000
  H   H306      1.0  0.9558606698345534  0.2444653936554659  0.9860170678601369  1.0000
  H   H307      1.0  0.9475192392206199  0.2581432683149081  0.025512978870625425  1.0000
  H   H308      1.0  0.8871885130767578  0.2651079688407883  0.013182505541426304  1.0000
  H   H309      1.0  0.9231698521779562  0.29233016079138513  0.030529099350962596  1.0000
  H   H310      1.0  0.007020391646756163  0.2829303076095599  0.010602776135647085  1.0000
  H   H311      1.0  0.9831015670637426  0.31750640486402226  0.013744679599482001  1.0000
  H   H312      1.0  0.9926857349168008  0.3063949665124239  0.9854963658520012  1.0000
  N   N11       1.0  0.15839678973050764  0.056071553639765785  0.7819677429138102  1.0000
  C   C329      1.0  0.16428304867018184  0.07022706818303222  0.7600152828226651  1.0000
  C   C330      1.0  0.11775179161551086  0.03661989027704826  0.7763438486127263  1.0000
  C   C331      1.0  0.15142939300036096  0.07828204077475377  0.7992727630637819  1.0000
  C   C332      1.0  0.20027131010016075  0.03919805876829007  0.7922602816921632  1.0000
  H   H313      1.0  0.19394957730812723  0.08563210310305826  0.7637687368221728  1.0000
  H   H314      1.0  0.1330236292359126  0.08273868334554502  0.7514752107550606  1.0000
  H   H315      1.0  0.17128101338305046  0.054256441925407704  0.746776974127722  1.0000
  H   H316      1.0  0.08532618002804226  0.04869215104232704  0.769023987978903  1.0000
  H   H317      1.0  0.121674324411438  0.020046774592876734  0.7628932457443949  1.0000
  H   H318      1.0  0.1131200827337302  0.02493578726222645  0.7924135448580213  1.0000
  H   H319      1.0  0.18173145948847047  0.09322948049895556  0.8038280257662885  1.0000
  H   H320      1.0  0.1469758954076803  0.06851304569715785  0.8161301433193197  1.0000
  H   H321      1.0  0.12031681276701733  0.09163532537501093  0.79205206511611  1.0000
  H   H322      1.0  0.2063766688263975  0.022066689453649202  0.7797383220886849  1.0000
  H   H323      1.0  0.1972578124758746  0.028405435520019395  0.808980489745829  1.0000
  H   H324      1.0  0.23175655347722546  0.05320324310600588  0.796444546794321  1.0000
  N   N12       1.0  0.39682995635091106  0.8700045660265388  0.8269327269332073  1.0000
  C   C333      1.0  0.3818818500227019  0.8787547989547526  0.8486773674884813  1.0000
  C   C334      1.0  0.36874183905708663  0.845069940271936  0.8158233203786945  1.0000
  C   C335      1.0  0.4463848529718211  0.8620127515453435  0.8330421258372093  1.0000
  C   C336      1.0  0.39005316956868097  0.8942679480409633  0.8101364132723465  1.0000
  H   H325      1.0  0.4018704561615181  0.8977691167473401  0.85739537303374  1.0000
  H   H326      1.0  0.38665239883200336  0.8610196804119367  0.8618315783264144  1.0000
  H   H327      1.0  0.34446057611607495  0.8847471378916615  0.8445587727593261  1.0000
  H   H328      1.0  0.3727690783875662  0.8263690087201218  0.8280158509847303  1.0000
  H   H329      1.0  0.33117265306563826  0.8505029985046885  0.8108169676462259  1.0000
  H   H330      1.0  0.37899871269380564  0.8378412728431687  0.7993724391377938  1.0000
  H   H331      1.0  0.45906118210409985  0.8562508251263958  0.8168994066843948  1.0000
  H   H332      1.0  0.45272429309556356  0.843102609057984  0.8450425162983248  1.0000
  H   H333      1.0  0.46848505645023786  0.8801006449608403  0.8419972292752016  1.0000
  H   H334      1.0  0.39954070707384554  0.8882185513690223  0.7931867511941925  1.0000
  H   H335      1.0  0.41159420705365934  0.9132554786927919  0.8176180130100248  1.0000
  H   H336      1.0  0.35325511150270955  0.9012993251942243  0.8057131358961851  1.0000
  N   N13       1.0  0.5382717087412574  0.38651669086422324  0.46091661786787064  1.0000
  C   C337      1.0  0.5244196116638166  0.41700289555059367  0.45727237377256474  1.0000
  C   C338      1.0  0.4996977738222741  0.3676667252346646  0.44876062472338024  1.0000
  C   C339      1.0  0.5496748365837354  0.3803452692935633  0.48663091227794275  1.0000
  C   C340      1.0  0.5792946000323937  0.3811466714851069  0.4509761100993735  1.0000
  H   H337      1.0  0.5520089278713651  0.4318330503287279  0.46700275411534736  1.0000
  H   H338      1.0  0.4927290542777744  0.4216078075433282  0.4639117081689715  1.0000
  H   H339      1.0  0.5171276124862539  0.4227755886668391  0.4381669609389286  1.0000
  H   H340      1.0  0.46744853993265273  0.37193034636895594  0.4550671896779599  1.0000
  H   H341      1.0  0.4913814890321968  0.37103944709093706  0.42921237806409424  1.0000
  H   H342      1.0  0.5082776679925303  0.3444886132197845  0.4517909425395925  1.0000
  H   H343      1.0  0.5193626052878858  0.3842061129988835  0.494600066974986  1.0000
  H   H344      1.0  0.5781912060526047  0.3945156902902067  0.4964338230758157  1.0000
  H   H345      1.0  0.5606127824205376  0.35760494372432566  0.49022323102342213  1.0000
  H   H346      1.0  0.5907691109480137  0.35833643962634926  0.45340726347522486  1.0000
  H   H347      1.0  0.6089885951739705  0.39512506232677574  0.459684060111932  1.0000
  H   H348      1.0  0.5716860343443387  0.38560908080469597  0.4315426260943336  1.0000
  N   N14       1.0  0.3012647421671117  0.2826050640398857  0.26081541562904303  1.0000
  C   C341      1.0  0.3229037690294165  0.30071139569363775  0.2815198007107886  1.0000
  C   C342      1.0  0.3328785212519654  0.28060655919208133  0.24442533658235016  1.0000
  C   C343      1.0  0.2569256160378444  0.295585964953246  0.24846543377006683  1.0000
  C   C344      1.0  0.2923956508227971  0.25348140387974033  0.2689356712374776  1.0000
  H   H349      1.0  0.30005667203344355  0.30277583437179706  0.2943115164315643  1.0000
  H   H350      1.0  0.3306037893789592  0.32282140085557204  0.27606995586604877  1.0000
  H   H351      1.0  0.3562628580424379  0.29132592360483545  0.2913193343480907  1.0000
  H   H352      1.0  0.3178085895670234  0.2669419599708165  0.22863619809882332  1.0000
  H   H353      1.0  0.34050622779838796  0.30227760289950706  0.23805113996638125  1.0000
  H   H354      1.0  0.36676131328617273  0.27106965901573504  0.2533705290751766  1.0000
  H   H355      1.0  0.2325412067454943  0.2974808766852018  0.26051307483785113  1.0000
  H   H356      1.0  0.23932250567230384  0.2821651395904115  0.23294234069936304  1.0000
  H   H357      1.0  0.26232149359687884  0.3175680337081053  0.24203668058392677  1.0000
  H   H358      1.0  0.27624118976473105  0.23911910024716945  0.2537935301545283  1.0000
  H   H359      1.0  0.2684509871149091  0.2542740797162541  0.2812517166313713  1.0000
  H   H360      1.0  0.3250224291094998  0.24308218049355046  0.2785094985662578  1.0000
  N   N15       1.0  0.005980337074253272  0.054820936311612556  0.8371124428980249  1.0000
  C   C345      1.0  0.00276894947402484  0.0639088317310943  0.8612435530830985  1.0000
  C   C346      1.0  0.9750925664794813  0.0298662069274378  0.8293540115813307  1.0000
  C   C347      1.0  0.05433687051854541  0.04673020408649786  0.8374992824098466  1.0000
  C   C348      1.0  0.9915529773293843  0.07875402366712869  0.8203869614335906  1.0000
  H   H361      1.0  0.02536948659077054  0.08287756779938071  0.867678773594673  1.0000
  H   H362      1.0  0.013018887965081882  0.04630403912863912  0.8743373307566232  1.0000
  H   H363      1.0  0.966812236861834  0.0700160542337227  0.8616897734456992  1.0000
  H   H364      1.0  0.9778240340954849  0.021586611058669325  0.8116261470488592  1.0000
  H   H365      1.0  0.9834383335460484  0.011802633051628098  0.8420256266353051  1.0000
  H   H366      1.0  0.9381428853811696  0.035490709201450255  0.8282852225737747  1.0000
  H   H367      1.0  0.05814772230184606  0.039337890262612474  0.8197167706758909  1.0000
  H   H368      1.0  0.066003611098443  0.028682298421141672  0.8500248405718238  1.0000
  H   H369      1.0  0.0783783812889507  0.06523797501395934  0.8433134875641891  1.0000
  H   H370      1.0  0.013717429456530317  0.09810896333325392  0.8256362811271526  1.0000
  H   H371      1.0  0.9552116178524895  0.08535630178776765  0.8198852541191542  1.0000
  H   H372      1.0  0.9935010205424782  0.07263357096744216  0.8020139496078941  1.0000
  N   N16       1.0  0.1225898346803127  0.14917872626744663  0.17684050456793488  1.0000
  C   C349      1.0  0.07309917670288368  0.14470614125552803  0.16546259154074003  1.0000
  C   C350      1.0  0.1477343169593066  0.12165261678103508  0.17710136305030158  1.0000
  C   C351      1.0  0.126859036496497  0.15961212364102675  0.20145144042237936  1.0000
  C   C352      1.0  0.14256892879653837  0.17088909490798596  0.16342404066239297  1.0000
  H   H373      1.0  0.05306082440700699  0.16503467531377003  0.16526149993446604  1.0000
  H   H374      1.0  0.057045389695420834  0.1283148958495045  0.17509674755900276  1.0000
  H   H375      1.0  0.06848676929691422  0.13715102455123224  0.14673722928543148  1.0000
  H   H376      1.0  0.14480451465377953  0.11290667274531703  0.15883462323903091  1.0000
  H   H377      1.0  0.18529465078438023  0.12434225149110832  0.1853775052764999  1.0000
  H   H378      1.0  0.13395570670177182  0.10490309784090553  0.18743041116466588  1.0000
  H   H379      1.0  0.11088476561441363  0.14429672780155403  0.21203213995196107  1.0000
  H   H380      1.0  0.10970815700091552  0.18088989100661662  0.20178032323703168  1.0000
  H   H381      1.0  0.16381873238402767  0.16253679942829305  0.21084660547568906  1.0000
  H   H382      1.0  0.1793306065651299  0.17580771457270586  0.1721887491490176  1.0000
  H   H383      1.0  0.12325984312790417  0.19160062828590493  0.16226952640842693  1.0000
  H   H384      1.0  0.14145670999963178  0.16347291674141023  0.1449459378228744  1.0000
  N   N17       1.0  0.04996028123238716  0.24805579554208074  0.3607927108168064  1.0000
  C   C353      1.0  0.06534227182656438  0.2436053664424679  0.38666557263002543  1.0000
  C   C354      1.0  0.08658331442180289  0.26320995583346674  0.35193840988919195  1.0000
  C   C355      1.0  0.0072489622316078695  0.26553648043423933  0.355842380507862  1.0000
  C   C356      1.0  0.04050378673668109  0.2198276652124989  0.34864423279249146  1.0000
  H   H385      1.0  0.038529797294229784  0.2318908447870127  0.3937177868371418  1.0000
  H   H386      1.0  0.07158040556669931  0.2645064670159333  0.3964873370508447  1.0000
  H   H387      1.0  0.09789286037959544  0.23089872635888162  0.39114419785702453  1.0000
  H   H388      1.0  0.07587859701056665  0.26679234554318915  0.3323887980258562  1.0000
  H   H389      1.0  0.0945594752775063  0.28466250605262683  0.3606457846613062  1.0000
  H   H390      1.0  0.11937670779530629  0.2506317293864469  0.3552130602589603  1.0000
  H   H391      1.0  0.9957776964640607  0.2704310932461118  0.3366207082671057  1.0000
  H   H392      1.0  0.012360218353134833  0.2864326736951805  0.36570117641510114  1.0000
  H   H393      1.0  0.9782010269995607  0.2541827623089083  0.36126135954927885  1.0000
  H   H394      1.0  0.030762292089628218  0.22247730854138142  0.3290978700489847  1.0000
  H   H395      1.0  0.011346962180690978  0.2083232429904768  0.3538720296550815  1.0000
  H   H396      1.0  0.0714712663949908  0.20565401069058625  0.3526033128272659  1.0000
  N   N18       1.0  0.3827648233272876  0.4281330231866465  0.02907296968871731  1.0000
  C   C357      1.0  0.3458845778116417  0.42061492330912714  0.04146661309619293  1.0000
  C   C358      1.0  0.41566350091540505  0.40391495955454876  0.030844587947074675  1.0000
  C   C359      1.0  0.4076585114290639  0.45419178666071486  0.04015575516544079  1.0000
  C   C360      1.0  0.36188183239111515  0.43382190487619027  0.003806048278447882  1.0000
  H   H397      1.0  0.32078625258964016  0.43856630127315205  0.04097702572791917  1.0000
  H   H398      1.0  0.360454633014075  0.4158480797799258  0.06051587646058376  1.0000
  H   H399      1.0  0.32589933501810076  0.4012334747958207  0.03351085674641219  1.0000
  H   H400      1.0  0.4443265261259913  0.40896657422362237  0.021913614842638873  1.0000
  H   H401      1.0  0.43172386655401407  0.39890186962161545  0.04971241480209221  1.0000
  H   H402      1.0  0.3981732373083763  0.3839317039921913  0.02250195803908772  1.0000
  H   H403      1.0  0.3839316516143795  0.4728929718512901  0.03934514048491411  1.0000
  H   H404      1.0  0.4360327288421816  0.4604440761573218  0.03139101346891504  1.0000
  H   H405      1.0  0.42399750703739103  0.45069943175882915  0.05918606554717476  1.0000
  H   H406      1.0  0.3368246104230715  0.45197370060849656  0.0018678778008502928  1.0000
  H   H407      1.0  0.34282831361761823  0.4145991825232072  0.9948643256724342  1.0000
  H   H408      1.0  0.3888498123677841  0.4395660043827673  0.9939551683102638  1.0000
  N   N19       1.0  0.5525168709504971  0.750791456267073  0.7265609753905502  1.0000
  C   C361      1.0  0.5543210818234059  0.7513414737594932  0.7523307535931878  1.0000
  C   C362      1.0  0.5881897648328311  0.7704695953255728  0.7213887974315543  1.0000
  C   C363      1.0  0.5062393542630461  0.7602508483084123  0.7134527256898433  1.0000
  C   C364      1.0  0.5613930465612431  0.7211825143784807  0.7191063305959461  1.0000
  H   H409      1.0  0.5886117884521452  0.7440204465728495  0.762808429945529  1.0000
  H   H410      1.0  0.5275580160411686  0.7370642205426936  0.7569575925221598  1.0000
  H   H411      1.0  0.5484897767643955  0.773455201427938  0.7586391668480004  1.0000
  H   H412      1.0  0.5889871240019862  0.7699722677239926  0.7022323933345491  1.0000
  H   H413      1.0  0.5822195714861764  0.793131925879578  0.7263732631230526  1.0000
  H   H414      1.0  0.6233381382601129  0.7643670170921839  0.7315156208612245  1.0000
  H   H415      1.0  0.5037720644611726  0.7603449896922049  0.6939487141671602  1.0000
  H   H416      1.0  0.4985034568367714  0.7824664543682784  0.7189016225395146  1.0000
  H   H417      1.0  0.4784624355348727  0.7458219890310583  0.7168790990563326  1.0000
  H   H418      1.0  0.5610605827570806  0.7199969434880616  0.6998267484488476  1.0000
  H   H419      1.0  0.535166752050872  0.7056959732470034  0.7226918578953745  1.0000
  H   H420      1.0  0.5959969436221074  0.7134303553808785  0.7288432466386539  1.0000
  N   N20       1.0  0.7431294502843536  0.33836789732585837  0.9053090168940571  1.0000
  C   C365      1.0  0.7583368059435907  0.3611844415896219  0.891044428491633  1.0000
  C   C366      1.0  0.7415416697173228  0.3500399631200447  0.9289947371495295  1.0000
  C   C367      1.0  0.7761340896834538  0.3141433322239303  0.9080216527126798  1.0000
  C   C368      1.0  0.6964674663302872  0.32811156441632766  0.8931038795377412  1.0000
  H   H421      1.0  0.7352574646176637  0.3802571403985871  0.889415820200898  1.0000
  H   H422      1.0  0.758064799302632  0.35339808013859686  0.8727014752971671  1.0000
  H   H423      1.0  0.7939611965210367  0.36889210250477206  0.8992625731983945  1.0000
  H   H424      1.0  0.7313853213942677  0.33326582117935133  0.9404854152452623  1.0000
  H   H425      1.0  0.7755508125080484  0.3592650749558813  0.9383459307742182  1.0000
  H   H426      1.0  0.7157030840113321  0.36765622248855007  0.927567293680643  1.0000
  H   H427      1.0  0.7653154050275728  0.2962801363012101  0.9182899828992365  1.0000
  H   H428      1.0  0.8116130547744879  0.3211366286246815  0.9172602640708594  1.0000
  H   H429      1.0  0.7784940774786022  0.30516468771781574  0.8904203991505375  1.0000
  H   H430      1.0  0.6707565389775845  0.3458076591027266  0.8909989175364392  1.0000
  H   H431      1.0  0.6837891846234693  0.3106882298706358  0.9031088128189396  1.0000
  H   H432      1.0  0.6960278109542092  0.3197519074833857  0.8749558162767928  1.0000
  N   N21       1.0  0.5571171964336786  0.39544543057471226  0.644400682395764  1.0000
  C   C369      1.0  0.5797922627546246  0.41144705972786183  0.6661784195254874  1.0000
  C   C370      1.0  0.5818682772849846  0.3680716446960352  0.6431144872229021  1.0000
  C   C371      1.0  0.5583285586849543  0.4129897418798383  0.623327336885073  1.0000
  C   C372      1.0  0.508432999736622  0.3891901053750421  0.6449360332604785  1.0000
  H   H433      1.0  0.5625126562934892  0.43241510082179563  0.6676073211101361  1.0000
  H   H434      1.0  0.6169040277545036  0.4160067366753266  0.6665394229738105  1.0000
  H   H435      1.0  0.5789539498028322  0.39895108579140154  0.682450573811334  1.0000
  H   H436      1.0  0.6191406743244503  0.37190320350683714  0.6434944429788187  1.0000
  H   H437      1.0  0.5802613107278822  0.3537813677404288  0.6582391674985578  1.0000
  H   H438      1.0  0.5671116947932422  0.3560022857077682  0.6263546362716226  1.0000
  H   H439      1.0  0.5409686056306566  0.4016561954584227  0.6066226799522464  1.0000
  H   H440      1.0  0.5945451607159804  0.4174284927336774  0.6219587542745207  1.0000
  H   H441      1.0  0.5406670361945386  0.43403296481263715  0.6237688323758128  1.0000
  H   H442      1.0  0.49050255397013104  0.37696858592206217  0.6287661913118312  1.0000
  H   H443      1.0  0.48856205145894205  0.40936105356774805  0.6457212150448018  1.0000
  H   H444      1.0  0.506254050642192  0.3760440355783283  0.6606798349464226  1.0000
  N   N22       1.0  0.41009396501560264  0.8883886280348549  0.23764457646923373  1.0000
  C   C373      1.0  0.4358575867276225  0.8913340167965784  0.2186782971256487  1.0000
  C   C374      1.0  0.44243343473495517  0.8923022737186154  0.26100976719105123  1.0000
  C   C375      1.0  0.38880493973824454  0.8593891851084391  0.23610492021844665  1.0000
  C   C376      1.0  0.3734457004705332  0.9104958597067309  0.23481046604072012  1.0000
  H   H445      1.0  0.4527871136171375  0.9128407934113018  0.2193761919589424  1.0000
  H   H446      1.0  0.4126571461912265  0.8884774091913198  0.2007583806166575  1.0000
  H   H447      1.0  0.46371206869552867  0.8747918874202846  0.22047081281968878  1.0000
  H   H448      1.0  0.4248074454226038  0.8893683538232031  0.2758603062417736  1.0000
  H   H449      1.0  0.47110008934160025  0.8764671476425541  0.2635166125074575  1.0000
  H   H450      1.0  0.45840056489062114  0.9141498702393713  0.2630376660899155  1.0000
  H   H451      1.0  0.3702240654596648  0.8559907321250714  0.25048720712924055  1.0000
  H   H452      1.0  0.41531699049214926  0.84214625409585  0.23784618913678748  1.0000
  H   H453      1.0  0.363710662448144  0.8558582938790835  0.21884154275118964  1.0000
  H   H454      1.0  0.3478077778028813  0.9080096364068506  0.2175803397175512  1.0000
  H   H455      1.0  0.38820011408086397  0.9326482614242696  0.23564012995663453  1.0000
  H   H456      1.0  0.35405595225205533  0.9090535963495869  0.2491586610396113  1.0000
  N   N23       1.0  0.9153193007314028  0.25917244822049373  0.4963668718618799  1.0000
  C   C377      1.0  0.9509122486526101  0.28168865645195973  0.49708540154329806  1.0000
  C   C378      1.0  0.8715212897601056  0.2682041890383531  0.4802912582567395  1.0000
  C   C379      1.0  0.9079160412203263  0.25500518598588845  0.5205633829935935  1.0000
  C   C380      1.0  0.9311546348655305  0.23187800343411227  0.4875415863349141  1.0000
  H   H457      1.0  0.9846859549352348  0.2751655603272283  0.5086010704362508  1.0000
  H   H458      1.0  0.9408327031556303  0.30241346413569103  0.5043540037906825  1.0000
  H   H459      1.0  0.956773197539624  0.2859222690576771  0.4790684639786547  1.0000
  H   H460      1.0  0.8761453660604402  0.2716830714503854  0.46190547065009263  1.0000
  H   H461      1.0  0.8438938581460373  0.25162266371791664  0.4791578668244615  1.0000
  H   H462      1.0  0.8586447401045049  0.2887568790560732  0.48645899238742785  1.0000
  H   H463      1.0  0.9407420921903544  0.24900613997454743  0.5332410891869703  1.0000
  H   H464      1.0  0.8819425780809013  0.237773522096356  0.5208917374016665  1.0000
  H   H465      1.0  0.8953168016250935  0.27512771537830655  0.5276148397153824  1.0000
  H   H466      1.0  0.905374893001031  0.21424007259253605  0.4868833823133076  1.0000
  H   H467      1.0  0.9646121415034195  0.22468354538419935  0.4990415144161409  1.0000
  H   H468      1.0  0.9366451351824139  0.23428109099489297  0.46924049700746134  1.0000
  N   N24       1.0  0.7838516676761496  0.8682446228920425  0.4199522721204177  1.0000
  C   C381      1.0  0.8320318727214832  0.8726665979725629  0.43353774574573667  1.0000
  C   C382      1.0  0.7837308182248202  0.849077097654246  0.3993937271071733  1.0000
  C   C383      1.0  0.7632752342119464  0.8963193959515153  0.41151246226765836  1.0000
  C   C384      1.0  0.7562586090424871  0.8548791757793723  0.4353529753012147  1.0000
  H   H469      1.0  0.8337381540927017  0.8876206917489944  0.44887990057637644  1.0000
  H   H470      1.0  0.8539811487001574  0.8822218858150538  0.42227845856893953  1.0000
  H   H471      1.0  0.8486365148086428  0.8520872290028116  0.4405910491914019  1.0000
  H   H472      1.0  0.8024539145217009  0.8590904490011377  0.3867989534664129  1.0000
  H   H473      1.0  0.8007633314268597  0.8281474547951339  0.40502831752320556  1.0000
  H   H474      1.0  0.747711931256103  0.844209659219224  0.3893560213342565  1.0000
  H   H475      1.0  0.726958270629752  0.8937671298712702  0.401031464244756  1.0000
  H   H476      1.0  0.7831510422411835  0.907105443073156  0.3998492829706621  1.0000
  H   H477      1.0  0.7629228396770569  0.9113786895166482  0.4265425863028048  1.0000
  H   H478      1.0  0.7557641878971206  0.8687367836090432  0.4511025263671116  1.0000
  H   H479      1.0  0.7706368948605333  0.833572361479794  0.44193150648349655  1.0000
  H   H480      1.0  0.7196439358796389  0.8513761878060543  0.42553044569507875  1.0000
  N   N25       1.0  0.08085616316254533  0.22580862001708313  0.6931506519425942  1.0000
  C   C385      1.0  0.11432816564499915  0.24481708107843114  0.7091541057439693  1.0000
  C   C386      1.0  0.06740175422147311  0.23899631972860944  0.6693980683892893  1.0000
  C   C387      1.0  0.03932617624620318  0.22193766044111277  0.7029545449851948  1.0000
  C   C388      1.0  0.10245732699609898  0.19748197575559337  0.6911500229146398  1.0000
  H   H481      1.0  0.09945399543737586  0.2665049496607165  0.710876184970183  1.0000
  H   H482      1.0  0.1463265696355538  0.24795092423999715  0.7024262248039709  1.0000
  H   H483      1.0  0.12490321981755251  0.23558944873020193  0.7273106518404971  1.0000
  H   H484      1.0  0.051879576515496476  0.2607036520825004  0.6702068256031144  1.0000
  H   H485      1.0  0.097902286207104  0.24183223412163574  0.6614389358770192  1.0000
  H   H486      1.0  0.04188128770384414  0.22541510679238672  0.6568486628022916  1.0000
  H   H487      1.0  0.013417555416669566  0.20755604194460422  0.6914238208969347  1.0000
  H   H488      1.0  0.022151714812532045  0.24289987328726123  0.7046906936255751  1.0000
  H   H489      1.0  0.04846915693537102  0.21212196366988242  0.7209449515462384  1.0000
  H   H490      1.0  0.1342721223990313  0.19963393207000882  0.6841538158975325  1.0000
  H   H491      1.0  0.07855325928170886  0.18264518472989844  0.678961603303564  1.0000
  H   H492      1.0  0.11283959683108659  0.1868250899130078  0.7087136677739667  1.0000
  N   N26       1.0  0.578334157536901  0.22056689033694069  0.33223716124931024  1.0000
  C   C389      1.0  0.5668650194141045  0.24677962438530215  0.31779988567863604  1.0000
  C   C390      1.0  0.5830132598137424  0.19599860343409517  0.31654604030347816  1.0000
  C   C391      1.0  0.5409816511355066  0.21454983704964284  0.3446925434772793  1.0000
  C   C392      1.0  0.6224740633641164  0.22503552528547208  0.34986037571944895  1.0000
  H   H493      1.0  0.5327137361339712  0.24472351534852124  0.30502198014417065  1.0000
  H   H494      1.0  0.5934420800618735  0.2515457080227002  0.3074589421402276  1.0000
  H   H495      1.0  0.5651014539132593  0.2660199962160162  0.32913579778660323  1.0000
  H   H496      1.0  0.5912237077519826  0.17576917321708216  0.3268069902663636  1.0000
  H   H497      1.0  0.5504304523689336  0.1923540855786058  0.3028186908207763  1.0000
  H   H498      1.0  0.6112915030347158  0.1999100067953451  0.3070928965235908  1.0000
  H   H499      1.0  0.5351243096238518  0.23330964744303279  0.35581459321050535  1.0000
  H   H500      1.0  0.549109841990638  0.19558561406111716  0.3565079172218723  1.0000
  H   H501      1.0  0.5074086666520146  0.21017157417544205  0.33190573124698547  1.0000
  H   H502      1.0  0.619789201026546  0.24305502468468831  0.36229096016940016  1.0000
  H   H503      1.0  0.6511592051893298  0.23046443768833194  0.3410898653214731  1.0000
  H   H504      1.0  0.633064034720393  0.20554765306206724  0.36078156876058776  1.0000
  N   N27       1.0  0.12554946751162654  0.2262797379628144  0.8818380025023081  1.0000
  C   C393      1.0  0.1126049058975973  0.20549165876768033  0.8984545624084016  1.0000
  C   C394      1.0  0.17435549311617082  0.23516212201350026  0.8907419889669939  1.0000
  C   C395      1.0  0.09520238692099209  0.25180319865787143  0.8800306500122455  1.0000
  C   C396      1.0  0.1198879926547847  0.21257012092510083  0.8581686159212454  1.0000
  H   H505      1.0  0.13383732489378064  0.18554545263918298  0.8999352095535702  1.0000
  H   H506      1.0  0.07583309874416198  0.19888307314950687  0.8923694891726894  1.0000
  H   H507      1.0  0.11633683981808624  0.2149724786597261  0.9165695045395678  1.0000
  H   H508      1.0  0.185359244730098  0.2508185652073916  0.8785897604569175  1.0000
  H   H509      1.0  0.1796929777096101  0.2455605829518968  0.9085994806928928  1.0000
  H   H510      1.0  0.19804149664245735  0.2163174868155623  0.8923718900244405  1.0000
  H   H511      1.0  0.10403856167490966  0.2681466990768479  0.8677961626506545  1.0000
  H   H512      1.0  0.09775160425202059  0.26227230332178253  0.8977041756967262  1.0000
  H   H513      1.0  0.05807593065723339  0.24579869519017114  0.8732902697306533  1.0000
  H   H514      1.0  0.08338984472550641  0.20562893090963189  0.8509703726605539  1.0000
  H   H515      1.0  0.1417934362376473  0.19297737818295044  0.8589298338684307  1.0000
  H   H516      1.0  0.1294193285730204  0.22748959329485458  0.8450657922298366  1.0000
  N   N28       1.0  0.38658931444288747  0.9850287846792237  0.7095014016539999  1.0000
  C   C397      1.0  0.3635161136744515  0.012105721187892327  0.7001253509811096  1.0000
  C   C398      1.0  0.43674034044474475  0.9869919791584802  0.7103913966050279  1.0000
  C   C399      1.0  0.3662233338941528  0.9606974122233419  0.6939127443515122  1.0000
  C   C400      1.0  0.3797021256563496  0.9801737137730733  0.7336749893643727  1.0000
  H   H517      1.0  0.376992260433034  0.03087680814884708  0.7117957152626179  1.0000
  H   H518      1.0  0.3254548090440242  0.010962143890841158  0.6988761475080877  1.0000
  H   H519      1.0  0.3684581889421173  0.016727359162640898  0.6820093955153311  1.0000
  H   H520      1.0  0.45488791265185413  0.9667715158332344  0.7174193735864741  1.0000
  H   H521      1.0  0.44333804898175455  0.9906229057061706  0.6924382024046215  1.0000
  H   H522      1.0  0.4531837986920317  0.00505641402354029  0.7221320531807348  1.0000
  H   H523      1.0  0.38179668685781953  0.9397601193947788  0.7008966051758168  1.0000
  H   H524      1.0  0.3715520295982563  0.9632164774183681  0.675603668589595  1.0000
  H   H525      1.0  0.32812635582368693  0.9590963253570334  0.692462025367375  1.0000
  H   H526      1.0  0.393437952997107  0.9984048923957775  0.7458913070498084  1.0000
  H   H527      1.0  0.3971278042890354  0.960087927208821  0.7414577926230357  1.0000
  H   H528      1.0  0.3423000706275658  0.9779463197655696  0.7334137850407572  1.0000
  N   N29       1.0  0.076293993947665  0.9091435384510056  0.5287110914026673  1.0000
  C   C401      1.0  0.11276336633260442  0.9262822690593531  0.5446742984501308  1.0000
  C   C402      1.0  0.09535338424123241  0.880835870447334  0.5240935660023792  1.0000
  C   C403      1.0  0.06011081547016839  0.924373245666419  0.5059775594715007  1.0000
  C   C404      1.0  0.036986620113986124  0.9049262533684459  0.5401768535194941  1.0000
  H   H529      1.0  0.09971263336595637  0.9478535224582904  0.5485226507629499  1.0000
  H   H530      1.0  0.143231299693392  0.9296130170865576  0.5367346461433552  1.0000
  H   H531      1.0  0.1253010769894356  0.9152313624325339  0.5620182554780073  1.0000
  H   H532      1.0  0.06836242497615763  0.8669750444027324  0.5128617838983757  1.0000
  H   H533      1.0  0.12399134899439268  0.8829802617662211  0.5146715144615752  1.0000
  H   H534      1.0  0.10903352759016038  0.8690241005417191  0.5408692611142408  1.0000
  H   H535      1.0  0.04447307642052101  0.9455829987032681  0.5086176594360292  1.0000
  H   H536      1.0  0.033264275864238524  0.9116048096254916  0.4934038698474752  1.0000
  H   H537      1.0  0.08894369396185109  0.9282240345634587  0.496936359769512  1.0000
  H   H538      1.0  0.047934935363736164  0.8930761700289879  0.5572285960065083  1.0000
  H   H539      1.0  0.008619073494271268  0.8922710298647424  0.5285506730381425  1.0000
  H   H540      1.0  0.022037765917946484  0.9258462243795843  0.544180652723754  1.0000
  N   N30       1.0  0.6791824912518934  0.19193718556500647  0.8367933996459674  1.0000
  C   C405      1.0  0.6354764367903034  0.1940075468801095  0.8449598044266873  1.0000
  C   C406      1.0  0.7149100217783184  0.21027759730882759  0.8520744783289806  1.0000
  C   C407      1.0  0.6711819039701253  0.2017858376409604  0.811960422642066  1.0000
  C   C408      1.0  0.6951698814101182  0.16172417166730196  0.8381090095634068  1.0000
  H   H541      1.0  0.6398242265493337  0.1865257524715486  0.8635515949189159  1.0000
  H   H542      1.0  0.6074250057123147  0.1808588589567814  0.8335289667137342  1.0000
  H   H543      1.0  0.6226381524640678  0.21660850042936097  0.8441655558756129  1.0000
  H   H544      1.0  0.7205379244614011  0.2042268444946939  0.8710777436902944  1.0000
  H   H545      1.0  0.748864984151974  0.2081915447801473  0.8470587064337646  1.0000
  H   H546      1.0  0.7051648519620023  0.2334846549135559  0.850571391075196  1.0000
  H   H547      1.0  0.7029978761876712  0.19985975658588084  0.8049138153076514  1.0000
  H   H548      1.0  0.6602442416031138  0.2247080898460668  0.8104478788113104  1.0000
  H   H549      1.0  0.6431998274766428  0.1891135667012874  0.8000385958694669  1.0000
  H   H550      1.0  0.7281525456379465  0.1595555313685102  0.832008494791732  1.0000
  H   H551      1.0  0.6690558939326724  0.14730142755288222  0.8267266577140208  1.0000
  H   H552      1.0  0.7017410249306799  0.15355346304759573  0.8566122482630509  1.0000
  N   N31       1.0  0.5625129573704977  0.7101462908397893  0.4667672518601704  1.0000
  C   C409      1.0  0.5688400190907529  0.6883253903865652  0.4857209578829287  1.0000
  C   C410      1.0  0.6059681323421606  0.7132193438588116  0.4585181824186596  1.0000
  C   C411      1.0  0.5506162520133253  0.7381044650688788  0.47622396065526956  1.0000
  C   C412      1.0  0.5247434210180487  0.7010422730488676  0.4465976466158592  1.0000
  H   H553      1.0  0.5367798591290874  0.6855355297479505  0.49243746445465025  1.0000
  H   H554      1.0  0.5970554301500511  0.6946041097230534  0.5012622395546953  1.0000
  H   H555      1.0  0.5778619772610146  0.666914607671424  0.4792863057478014  1.0000
  H   H556      1.0  0.6025372839889752  0.7298242606884036  0.4444235337810783  1.0000
  H   H557      1.0  0.6353333646186631  0.7197648058429608  0.47335580107495967  1.0000
  H   H558      1.0  0.6156404775713482  0.6925894257572702  0.4509828486974185  1.0000
  H   H559      1.0  0.5435559680732147  0.7548180488981688  0.46217047243631704  1.0000
  H   H560      1.0  0.5790238150896407  0.7462053611739903  0.4908907720077423  1.0000
  H   H561      1.0  0.5188390540386271  0.7363128271574009  0.4833818756459223  1.0000
  H   H562      1.0  0.5206230618552599  0.7163719392521892  0.43154709505945665  1.0000
  H   H563      1.0  0.4907988112490313  0.7001570432222556  0.45174953952988905  1.0000
  H   H564      1.0  0.5312197764657534  0.6793466445293344  0.4397126371894714  1.0000
  N   N32       1.0  0.044447437774963516  0.08392611143804984  0.327794784976995  1.0000
  C   C413      1.0  0.03505337302270295  0.07130700917480692  0.3035978692636469  1.0000
  C   C414      1.0  0.017646476923369958  0.06816321788776802  0.3423285885371999  1.0000
  C   C415      1.0  0.03062563557019815  0.11457800492920112  0.32646117159316845  1.0000
  C   C416      1.0  0.09443778088990729  0.08159562470493409  0.33881576779823175  1.0000
  H   H565      1.0  0.05315391736911179  0.08360714274019765  0.29189466853489293  1.0000
  H   H566      1.0  0.9974162057363952  0.07156527346418828  0.2951176300698743  1.0000
  H   H567      1.0  0.04705195765513004  0.04851418562192378  0.30381398890544803  1.0000
  H   H568      1.0  0.022994144623947887  0.07740805487797009  0.36059152169408903  1.0000
  H   H569      1.0  0.9797755841360215  0.0687764272099105  0.33433604331769434  1.0000
  H   H570      1.0  0.027806398083713102  0.045112159313682065  0.3442690707702898  1.0000
  H   H571      1.0  0.037389922524807995  0.12481518215922716  0.344393579817853  1.0000
  H   H572      1.0  0.9929956728513486  0.11705464698671286  0.3183471152158118  1.0000
  H   H573      1.0  0.050096069664408605  0.1271338919894187  0.31551499372890995  1.0000
  H   H574      1.0  0.10267135712225217  0.0902956286542107  0.3572855027348075  1.0000
  H   H575      1.0  0.11573294733499173  0.09379239987456489  0.3286258509848748  1.0000
  H   H576      1.0  0.10618264341597228  0.05875067924872979  0.33946411270590365  1.0000
  N   N33       1.0  0.8385528466761096  0.5886144431315712  0.02203296759487317  1.0000
  C   C417      1.0  0.8349355009663328  0.5570067376343768  0.018743344602997206  1.0000
  C   C418      1.0  0.8875651593172676  0.5975769918718198  0.02564726863066036  1.0000
  C   C419      1.0  0.8208398426913964  0.5970733000263434  0.043034103081749375  1.0000
  C   C420      1.0  0.8108331871820343  0.6028478607269623  0.0007229284645549061  1.0000
  H   H577      1.0  0.8548063351815258  0.5454313428401906  0.034576606617074734  1.0000
  H   H578      1.0  0.8478540889360223  0.5497409310275096  0.003038818178834557  1.0000
  H   H579      1.0  0.7984044505554434  0.5496078300475568  0.015886974556021505  1.0000
  H   H580      1.0  0.9020061486946102  0.5916688275300052  0.010091647207677967  1.0000
  H   H581      1.0  0.8914304073621314  0.6213537114696316  0.028227304582204352  1.0000
  H   H582      1.0  0.9094153422455097  0.5872857151761345  0.041626376266712395  1.0000
  H   H583      1.0  0.8240278855799147  0.6207734992709036  0.046310463309424454  1.0000
  H   H584      1.0  0.8401882303371082  0.5862481076056447  0.059375425758182665  1.0000
  H   H585      1.0  0.7835973656964536  0.5911869812585342  0.04068509258385667  1.0000
  H   H586      1.0  0.8126958843525423  0.6267364460797297  0.0026165035948242377  1.0000
  H   H587      1.0  0.7736537536570132  0.5966285712788154  0.9975403176081781  1.0000
  H   H588      1.0  0.8229787905207295  0.5968945679265036  0.9844848982794377  1.0000
  N   N34       1.0  0.837802719209277  0.7926953710106746  0.008729499131434837  1.0000
  C   C421      1.0  0.8420390611519204  0.7610419009588841  0.007658698687170951  1.0000
  C   C422      1.0  0.8631234628100974  0.8033826300594004  0.03228651407545735  1.0000
  C   C423      1.0  0.7883066289028502  0.8004907364305769  0.004876286475339775  1.0000
  C   C424      1.0  0.8578858538973578  0.8057538592797322  0.9900904470209547  1.0000
  H   H589      1.0  0.8266753325665647  0.7505137902116662  0.021277628513232782  1.0000
  H   H590      1.0  0.8789591935861223  0.7542918156031202  0.01093919789660358  1.0000
  H   H591      1.0  0.823938187343729  0.7521742210869982  0.9900746077894932  1.0000
  H   H592      1.0  0.8612057701163183  0.827249571992272  0.03374596361191862  1.0000
  H   H593      1.0  0.8490806180237378  0.7939859989935864  0.0468846003668415  1.0000
  H   H594      1.0  0.9005338819991108  0.797651436445467  0.035827787354374196  1.0000
  H   H595      1.0  0.7837178080458327  0.8242479852742066  0.005503873007313365  1.0000
  H   H596      1.0  0.7721231543085496  0.7908790222734907  0.018652901979071324  1.0000
  H   H597      1.0  0.7680685944356181  0.7925499517408761  0.9873163938616062  1.0000
  H   H598      1.0  0.8391549564919475  0.7986503175907183  0.9720321309323369  1.0000
  H   H599      1.0  0.8950033027276869  0.7997455633835087  0.9923022044554068  1.0000
  H   H600      1.0  0.8566757256242612  0.8297303329154058  0.9907927230977356  1.0000
  N   N35       1.0  0.9570869043312772  0.9337690956702474  0.24673090526166117  1.0000
  C   C425      1.0  0.9868821564471897  0.9594131616424962  0.24709221930496023  1.0000
  C   C426      1.0  0.9232272575779004  0.9319795446670801  0.22364566413322842  1.0000
  C   C427      1.0  0.932300917093451  0.9361298858469161  0.2661705236767078  1.0000
  C   C428      1.0  0.9860648823636825  0.9075757742991846  0.24992845976549546  1.0000
  H   H601      1.0  0.014030543105166826  0.9609578335813768  0.2638872156995221  1.0000
  H   H602      1.0  0.966525357659775  0.9796854068352328  0.24541551475264475  1.0000
  H   H603      1.0  0.004923155238483412  0.9587045793540713  0.23220601455193743  1.0000
  H   H604      1.0  0.9410447158074242  0.9299599956564496  0.20864895571770242  1.0000
  H   H605      1.0  0.8999919383568122  0.9129473141229358  0.22277797819317702  1.0000
  H   H606      1.0  0.9011989788980954  0.9515689791639849  0.22041642514965262  1.0000
  H   H607      1.0  0.9111969616811905  0.9165406760705666  0.2672975359557015  1.0000
  H   H608      1.0  0.9088053910082684  0.9550606155274901  0.26387107116888614  1.0000
  H   H609      1.0  0.9569122206278964  0.9388441291311633  0.2836829915443572  1.0000
  H   H610      1.0  0.9648037029879488  0.88777703404749  0.24981912502175554  1.0000
  H   H611      1.0  0.012214247814064105  0.908207837918331  0.26705635761904734  1.0000
  H   H612      1.0  0.005324300541695637  0.9052280395742898  0.23556566828944656  1.0000
  N   N36       1.0  0.2221489481695244  0.6865668258001905  0.1081622131427213  1.0000
  C   C429      1.0  0.24017587534150908  0.6843170267797851  0.08637557322323011  1.0000
  C   C430      1.0  0.2057518891159002  0.6579479058331504  0.11382528975714686  1.0000
  C   C431      1.0  0.18347103476815627  0.707355052706335  0.10437050349982202  1.0000
  C   C432      1.0  0.2594745544184198  0.696616039110997  0.12811909253983847  1.0000
  H   H613      1.0  0.2528358260862213  0.705516250049188  0.08155547245996862  1.0000
  H   H614      1.0  0.21304370201503856  0.6766228121485293  0.0709611048459079  1.0000
  H   H615      1.0  0.2697552707619827  0.6690058699908366  0.08871599202936586  1.0000
  H   H616      1.0  0.23440097670170895  0.6418567645024338  0.1166499942470871  1.0000
  H   H617      1.0  0.19245674477336816  0.6587348668319677  0.13034559709799262  1.0000
  H   H618      1.0  0.1774497933118371  0.6496441595339565  0.09920864624340987  1.0000
  H   H619      1.0  0.16866366684183243  0.7094031726720217  0.12035704596523625  1.0000
  H   H620      1.0  0.15496689546772593  0.7008598173565513  0.08911639168537656  1.0000
  H   H621      1.0  0.19517391719452182  0.7292428673218623  0.10050145744841125  1.0000
  H   H622      1.0  0.28857985591695695  0.6810028065055405  0.1319329580994327  1.0000
  H   H623      1.0  0.24695653461169512  0.6995179110380191  0.14472710147983725  1.0000
  H   H624      1.0  0.2739546841504743  0.7176218888805098  0.12414728385692865  1.0000
  N   N37       1.0  0.289523155201276  0.7619253126395679  0.5518044226681286  1.0000
  C   C433      1.0  0.34004781198565004  0.7581630521505169  0.5547068917604412  1.0000
  C   C434      1.0  0.27054423655628385  0.737370222488152  0.5627224076257749  1.0000
  C   C435      1.0  0.2671373010954045  0.7630761340943661  0.5262373588605415  1.0000
  C   C436      1.0  0.28021151592040894  0.7890019555098546  0.5635074264186063  1.0000
  H   H625      1.0  0.3555507707201511  0.7759143207788115  0.5462122860689277  1.0000
  H   H626      1.0  0.3480565253280187  0.7375935764327535  0.5464138354066389  1.0000
  H   H627      1.0  0.35830905386212475  0.7574775193849237  0.5737667545882216  1.0000
  H   H628      1.0  0.23246152908200937  0.7395342667959051  0.5609829993091144  1.0000
  H   H629      1.0  0.2765716490025105  0.7165997967503748  0.5541379592683596  1.0000
  H   H630      1.0  0.2868441014020932  0.7356883934659793  0.5819862149157432  1.0000
  H   H631      1.0  0.22883238534163464  0.7652603103777245  0.523303129832087  1.0000
  H   H632      1.0  0.2740076073072897  0.743180307974385  0.5167632456500374  1.0000
  H   H633      1.0  0.280079631905451  0.7815099272954694  0.5173649044312593  1.0000
  H   H634      1.0  0.29408921926793735  0.8080090341460818  0.5557298369645018  1.0000
  H   H635      1.0  0.29629023123100473  0.7888522882633542  0.5828787593931449  1.0000
  H   H636      1.0  0.2422551433883161  0.7923566716429186  0.5615067376373473  1.0000
  N   N38       1.0  0.27946715539091804  0.47811714450224146  0.41350309882238667  1.0000
  C   C437      1.0  0.24884426331204298  0.4763628448799417  0.43040168051890965  1.0000
  C   C438      1.0  0.31625141348621  0.4997363093675425  0.4221386093992235  1.0000
  C   C439      1.0  0.2520922120435686  0.4866792736973512  0.3899281226861468  1.0000
  C   C440      1.0  0.30080388329735336  0.44968482971976714  0.41162862936602007  1.0000
  H   H637      1.0  0.26821095738923895  0.4691075812732809  0.44818182788471134  1.0000
  H   H638      1.0  0.21990281518532842  0.460826141056781  0.4242174861720773  1.0000
  H   H639      1.0  0.23372177616097256  0.49772447282917576  0.4331572688141016  1.0000
  H   H640      1.0  0.3400291808170802  0.5018322668104948  0.40985150820026833  1.0000
  H   H641      1.0  0.3015557599180028  0.5214102952829593  0.42430437012615235  1.0000
  H   H642      1.0  0.3376200546866715  0.4937462145725422  0.4397998457827632  1.0000
  H   H643      1.0  0.27426240237250277  0.48819194579516356  0.3767867869776589  1.0000
  H   H644      1.0  0.23557719833625568  0.5080788041086903  0.39078580109407013  1.0000
  H   H645      1.0  0.22405017242687458  0.4707876033397666  0.3828664278685729  1.0000
  H   H646      1.0  0.32154615288532995  0.44264595927326206  0.42915938521553015  1.0000
  H   H647      1.0  0.3245201344969101  0.45002541124893897  0.39919482684997737  1.0000
  H   H648      1.0  0.27429342545127766  0.43263085092683257  0.4053131501604259  1.0000
  N   N39       1.0  0.47664104362791115  0.46265148640619824  0.22583047034525133  1.0000
  C   C441      1.0  0.48608934567720463  0.4393687566926116  0.24356061082027192  1.0000
  C   C442      1.0  0.4893098016262971  0.4908003974032158  0.23769370755344948  1.0000
  C   C443      1.0  0.4268279908764464  0.46258652348560697  0.21409891785750884  1.0000
  C   C444      1.0  0.5042709924834015  0.4578933987136771  0.20783847733351785  1.0000
  H   H649      1.0  0.4769697039176462  0.41791626046243396  0.2350489695216265  1.0000
  H   H650      1.0  0.46559944030344597  0.4420299767567102  0.2573680832957874  1.0000
  H   H651      1.0  0.5233948460834907  0.43863054180361877  0.25274215114929893  1.0000
  H   H652      1.0  0.5267703496508463  0.4917008980450324  0.24658877614475444  1.0000
  H   H653      1.0  0.4823413901221235  0.5087654824613769  0.22466552064103174  1.0000
  H   H654      1.0  0.4691516059488923  0.49514464627878685  0.2514095925267941  1.0000
  H   H655      1.0  0.4185331097697221  0.4799006700675554  0.20055979713525304  1.0000
  H   H656      1.0  0.4048681488189324  0.4660619383697981  0.2271292392801803  1.0000
  H   H657      1.0  0.41615574435872127  0.44168632918954565  0.20489118808172072  1.0000
  H   H658      1.0  0.5420296596718197  0.45714117927895137  0.21603430382036493  1.0000
  H   H659      1.0  0.49857743790553216  0.4753603525211861  0.19443374678565675  1.0000
  H   H660      1.0  0.49490171004514205  0.43717255725759324  0.19812641807369544  1.0000
  N   N40       1.0  0.8345670917267954  0.8370683230508873  0.8776822426059525  1.0000
  C   C445      1.0  0.8374237590732541  0.8273442363541124  0.902252625455093  1.0000
  C   C446      1.0  0.8642535853723532  0.8627852935115695  0.8780239559548548  1.0000
  C   C447      1.0  0.7860340750669903  0.8443188391211881  0.866472558301983  1.0000
  C   C448      1.0  0.8504123034894836  0.8137264069562492  0.8639150004343649  1.0000
  H   H661      1.0  0.815303977070351  0.8079345065695511  0.9025210580331459  1.0000
  H   H662      1.0  0.8255888030025368  0.8444323896974  0.9131161092617093  1.0000
  H   H663      1.0  0.8735793367989872  0.8216277875619478  0.9112229237844806  1.0000
  H   H664      1.0  0.862572264132931  0.8707128976961481  0.8597479583570203  1.0000
  H   H665      1.0  0.8533806884429752  0.8808915828470656  0.8882627459189194  1.0000
  H   H666      1.0  0.9012591422588623  0.8580837552841101  0.88613187113809  1.0000
  H   H667      1.0  0.7627797861764345  0.8253854073262565  0.8661347839468809  1.0000
  H   H668      1.0  0.7823975929458127  0.8513481967423351  0.8477681685071297  1.0000
  H   H669      1.0  0.7728709741770248  0.8621064611120065  0.8761211163505911  1.0000
  H   H670      1.0  0.8287699334508212  0.7939549715000487  0.8633008258693311  1.0000
  H   H671      1.0  0.8870521932892786  0.8078122247924348  0.8716305599083514  1.0000
  H   H672      1.0  0.8481378518790539  0.8202561486719977  0.8452454018965164  1.0000
  N   N41       1.0  0.7807305101066707  0.054618661668657253  0.3636444541575816  1.0000
  C   C449      1.0  0.7329085173844732  0.0513633770106281  0.3492818721050734  1.0000
  C   C450      1.0  0.7938208985833451  0.08544927146087344  0.36581929948542785  1.0000
  C   C451      1.0  0.8127701695199058  0.03880937662105399  0.3519441490346401  1.0000
  C   C452      1.0  0.7835361333347034  0.04269152446571711  0.38755398929186863  1.0000
  H   H673      1.0  0.7223022839678064  0.028210387527027203  0.3473922694351764  1.0000
  H   H674      1.0  0.7296354324825911  0.059984837560600024  0.3310761724284256  1.0000
  H   H675      1.0  0.7076667242103235  0.06290772067975947  0.3575912708323096  1.0000
  H   H676      1.0  0.8296512383243575  0.08844045816773005  0.3766906630737992  1.0000
  H   H677      1.0  0.7928088927860378  0.09519714855670336  0.34818467472551073  1.0000
  H   H678      1.0  0.7705367573713203  0.09815183233750724  0.3746193888097872  1.0000
  H   H679      1.0  0.8488818522952524  0.03991371826312795  0.3626845844394481  1.0000
  H   H680      1.0  0.8128575462416632  0.04773947385775035  0.3341659939403988  1.0000
  H   H681      1.0  0.8032571736846505  0.01560745550529341  0.3494776073492272  1.0000
  H   H682      1.0  0.8192765979735934  0.044711260446004264  0.3988437331827212  1.0000
  H   H683      1.0  0.7739546249139054  0.01939795941800604  0.3865496013668318  1.0000
  H   H684      1.0  0.7599102165259395  0.054130787232216315  0.39696023939814495  1.0000
  N   N42       1.0  0.0027619605835365046  0.6762041721266832  0.5406804270573915  1.0000
  C   C453      1.0  0.9956715997723686  0.6451336615180527  0.5440696758305088  1.0000
  C   C454      1.0  0.02885111569794585  0.6890827269647049  0.5632498272842802  1.0000
  C   C455      1.0  0.9572214154261071  0.690489125168057  0.5333490049621356  1.0000
  C   C456      1.0  0.02937994284351131  0.6799997719128666  0.5221328926849849  1.0000
  H   H685      1.0  0.9760977778700746  0.6346976359756624  0.5273783305417779  1.0000
  H   H686      1.0  0.975685622528035  0.6414927240782573  0.5579721748769991  1.0000
  H   H687      1.0  0.029360043662565616  0.6337217149256913  0.5496820306483059  1.0000
  H   H688      1.0  0.03396031298889168  0.7126631255544591  0.5615013320467773  1.0000
  H   H689      1.0  0.010547602583270477  0.685918154457032  0.57783664961965  1.0000
  H   H690      1.0  0.06400391245789461  0.6794718639278775  0.5689278597027951  1.0000
  H   H691      1.0  0.9610179540138615  0.7142099337361622  0.5317215944964426  1.0000
  H   H692      1.0  0.9355097375593658  0.6870000329551463  0.5464910176956791  1.0000
  H   H693      1.0  0.9373332477547788  0.6821795068255093  0.5158909233821678  1.0000
  H   H694      1.0  0.03564061459420498  0.7031553304769889  0.519166180443498  1.0000
  H   H695      1.0  0.010984849539354524  0.6705263322789178  0.5048127465630031  1.0000
  H   H696      1.0  0.0641807674079442  0.6697753635782296  0.5272520887627468  1.0000
  N   N43       1.0  0.43344134827786074  0.2832987105649444  0.7317373483739323  1.0000
  C   C457      1.0  0.4640721643742365  0.3059401963718826  0.7258447669924798  1.0000
  C   C458      1.0  0.4113234671715396  0.2939461203205877  0.7506509656685225  1.0000
  C   C459      1.0  0.4611330103008067  0.2574085794609513  0.7400597166841245  1.0000
  C   C460      1.0  0.39714115995587246  0.2757948488830579  0.7104292804010387  1.0000
  H   H697      1.0  0.48239530220941557  0.2984494670887307  0.7120939750484684  1.0000
  H   H698      1.0  0.49136515723315777  0.3123786293436121  0.7416696350617322  1.0000
  H   H699      1.0  0.44441515979242124  0.3257119737414084  0.71918220769374  1.0000
  H   H700      1.0  0.391490918935453  0.31406681264598896  0.7453652591793507  1.0000
  H   H701      1.0  0.38657712231701546  0.2777833120353031  0.7548698854265905  1.0000
  H   H702      1.0  0.437462422697947  0.2985906440044664  0.7674085005079339  1.0000
  H   H703      1.0  0.4390914901650211  0.23992838014327567  0.7446956544378353  1.0000
  H   H704      1.0  0.4888168898247273  0.26216807151794613  0.7561834945789521  1.0000
  H   H705      1.0  0.47844531292935194  0.24874525322817023  0.7263102424189372  1.0000
  H   H706      1.0  0.3736149457288167  0.25864566418984797  0.714390933963872  1.0000
  H   H707      1.0  0.41247005831771466  0.2676627829897497  0.6957525680542318  1.0000
  H   H708      1.0  0.3752462125805949  0.29475421139628555  0.703746277171792  1.0000
  N   N44       1.0  0.16835895962752434  0.8670499437309019  0.18076736721177591  1.0000
  C   C461      1.0  0.13530014314507222  0.8714742364350863  0.19615964766462823  1.0000
  C   C462      1.0  0.20456884877773462  0.8465648891438307  0.1921788439098064  1.0000
  C   C463      1.0  0.19010393548296034  0.8948933493623714  0.17732089888299551  1.0000
  C   C464      1.0  0.14351408944706856  0.8553545962819847  0.15746638620456166  1.0000
  H   H709      1.0  0.11789454001295008  0.8510190075426108  0.19908293537565197  1.0000
  H   H710      1.0  0.10773915101580966  0.8869730627285509  0.188196361886226  1.0000
  H   H711      1.0  0.15288006226731055  0.8803520316551979  0.21388296292869058  1.0000
  H   H712      1.0  0.22384145312613546  0.8548183963068595  0.20984066857404  1.0000
  H   H713      1.0  0.18930879164815972  0.8253547468950228  0.19511799050511006  1.0000
  H   H714      1.0  0.23018487216526462  0.8427410338151954  0.1810700729115648  1.0000
  H   H715      1.0  0.2146044893439114  0.8925597529773739  0.16542164507048487  1.0000
  H   H716      1.0  0.20961292811012333  0.9041454306015625  0.19455593504471785  1.0000
  H   H717      1.0  0.1636057933893018  0.911003961288393  0.1691162941267915  1.0000
  H   H718      1.0  0.12619195904875458  0.8344837953595708  0.15930481863892573  1.0000
  H   H719      1.0  0.16728509663937574  0.8518442793210034  0.1453024546719226  1.0000
  H   H720      1.0  0.11619018990666818  0.8704001932173795  0.14838014800933597  1.0000
  N   N45       1.0  0.8572156968181157  0.761936918888977  0.6444558231067042  1.0000
  C   C465      1.0  0.8543098403422809  0.7304991738130955  0.6477338396640949  1.0000
  C   C466      1.0  0.8166919104837084  0.7715544987762994  0.6262553296391786  1.0000
  C   C467      1.0  0.9001008627759044  0.768780433015138  0.6365840057328316  1.0000
  C   C468      1.0  0.8576678944381566  0.776847343978315  0.667200796256371  1.0000
  H   H721      1.0  0.8230260428524245  0.7245376485476409  0.6542379649462732  1.0000
  H   H722      1.0  0.8849810447862376  0.7222298772168312  0.6607540153373278  1.0000
  H   H723      1.0  0.8521548346188137  0.7186172595367484  0.6307874879446727  1.0000
  H   H724      1.0  0.8152587168671086  0.7607080635375802  0.6088426489884785  1.0000
  H   H725      1.0  0.7836313526105977  0.7666101195029108  0.6315438851475939  1.0000
  H   H726      1.0  0.8176767245523388  0.7951782919226987  0.6233595804609646  1.0000
  H   H727      1.0  0.9033699604080363  0.7922956018454719  0.6336945588682528  1.0000
  H   H728      1.0  0.900559292412996  0.7577122285858756  0.619484028796032  1.0000
  H   H729      1.0  0.9314996535714533  0.7617834853780594  0.6497945206301632  1.0000
  H   H730      1.0  0.859836184216813  0.8006268706846645  0.6654515741834848  1.0000
  H   H731      1.0  0.8875072663250093  0.7698812977309389  0.6814107408356438  1.0000
  H   H732      1.0  0.8254836042102788  0.7720861648102408  0.6734495559754614  1.0000
  N   N46       1.0  0.5926359351594472  0.7478645585631591  0.1468436961164116  1.0000
  C   C469      1.0  0.5720499922259416  0.7650685148180206  0.16346261506020068  1.0000
  C   C470      1.0  0.6433646961560253  0.7523378902852075  0.15242772803328866  1.0000
  C   C471      1.0  0.572767167526659  0.7569129605475723  0.12216193854898362  1.0000
  C   C472      1.0  0.5824695029579734  0.7170259296841832  0.14937238642780773  1.0000
  H   H733      1.0  0.5338264545781798  0.7621771534192389  0.1597458042068567  1.0000
  H   H734      1.0  0.5791805987168331  0.7884730282261535  0.16230329036377658  1.0000
  H   H735      1.0  0.5856004434863499  0.7583928100651183  0.18222977891434505  1.0000
  H   H736      1.0  0.6523451520615766  0.7753891610071398  0.15069068496036545  1.0000
  H   H737      1.0  0.6594065459225044  0.7456448701885605  0.17091521177012878  1.0000
  H   H738      1.0  0.6599730865791125  0.739569308670047  0.1402164260944348  1.0000
  H   H739      1.0  0.5781438183271579  0.7803188505070554  0.11977911039995777  1.0000
  H   H740      1.0  0.5347714002942725  0.7526469269088217  0.11689832073295504  1.0000
  H   H741      1.0  0.5888385453654299  0.7450959259434398  0.10923780943397869  1.0000
  H   H742      1.0  0.5954944699981319  0.7096827418682894  0.16798820977144097  1.0000
  H   H743      1.0  0.5985415654421189  0.7032669083618731  0.13763419324753928  1.0000
  H   H744      1.0  0.5445050629906352  0.7127953468435512  0.14476673555675196  1.0000
  N   N47       1.0  0.6454095604782241  0.6758876458925516  0.911479019228877  1.0000
  C   C473      1.0  0.6376394281672921  0.6975249918064741  0.8923756667133296  1.0000
  C   C474      1.0  0.6187015912094008  0.6494256191951592  0.9029908291471086  1.0000
  C   C475      1.0  0.6301109340824992  0.6876729979062273  0.9322647543773351  1.0000
  C   C476      1.0  0.6952865069985888  0.668910193654311  0.9183564573963771  1.0000
  H   H745      1.0  0.657325881458055  0.7177074213962974  0.8983583772052213  1.0000
  H   H746      1.0  0.6003996001983992  0.7034013090021939  0.8867056060636987  1.0000
  H   H747      1.0  0.6491513307656959  0.6895214728780072  0.8764435937539304  1.0000
  H   H748      1.0  0.6240839668403739  0.6326901522404412  0.9170904525262878  1.0000
  H   H749      1.0  0.5808603775146626  0.6538089626537448  0.8978216660325752  1.0000
  H   H750      1.0  0.6293200474862635  0.6398554846338581  0.8873355775729244  1.0000
  H   H751      1.0  0.6347428112419612  0.6717274042057669  0.9468677591385062  1.0000
  H   H752      1.0  0.5928587082085431  0.6937088080175404  0.9276925421173212  1.0000
  H   H753      1.0  0.6501619836706543  0.7072757826529015  0.9395215031133616  1.0000
  H   H754      1.0  0.7023915846463928  0.652569460683411  0.9327182654281061  1.0000
  H   H755      1.0  0.7164632330752251  0.6883643122357469  0.9249720919597197  1.0000
  H   H756      1.0  0.7080375365352911  0.6600379020335511  0.9030812307264283  1.0000
  N   N48       1.0  0.21728593599856852  0.3391260949390334  0.15193535783489037  1.0000
  C   C477      1.0  0.1720379655757128  0.3370490188568416  0.15858860556050003  1.0000
  C   C478      1.0  0.2547101398133028  0.34254611172078353  0.17356595932159288  1.0000
  C   C479      1.0  0.21734467900447818  0.3642781333864467  0.13641707544023127  1.0000
  C   C480      1.0  0.22516639709113292  0.31258565181927556  0.13913157222593292  1.0000
  H   H757      1.0  0.14307750300547348  0.3339692540295221  0.1426734397951896  1.0000
  H   H758      1.0  0.16435606034533093  0.35683069312692733  0.16796091606918737  1.0000
  H   H759      1.0  0.1708207442294525  0.31840827596069116  0.1704231860042735  1.0000
  H   H760      1.0  0.2500709212163345  0.3625082450331518  0.18356687922154394  1.0000
  H   H761      1.0  0.2556246422131512  0.3239817305214946  0.1857140764570764  1.0000
  H   H762      1.0  0.2893187997725155  0.3439729963644527  0.1690827097422499  1.0000
  H   H763      1.0  0.25141969369327427  0.3669533385335483  0.13160757438076937  1.0000
  H   H764      1.0  0.20991777131405776  0.38464655298083406  0.14509592198234605  1.0000
  H   H765      1.0  0.19086785273301435  0.36191508970794645  0.11947033095669901  1.0000
  H   H766      1.0  0.1967846066853729  0.3088738046800387  0.12308616349473257  1.0000
  H   H767      1.0  0.2267913360318781  0.29322346044374087  0.15047602356193013  1.0000
  H   H768      1.0  0.2580633148963806  0.3138015803028991  0.13290558056323248  1.0000
