data_image0
_chemical_formula_structural       FeS2FeS2FeSFeS3FeS2FeS2FeSFeS3FeS2FeS2FeSFeS3FeS2FeS2FeSFeS3FeS2FeS2FeSFeS3FeS2FeS2FeSFeS3FeS2FeS2FeSFeS3FeS2FeS2FeSFeS3FeS2FeS2FeSFeS3FeS2FeS2FeSFeS3FeS2FeS2FeSFeS3FeS2FeS2FeSFeS3FeS2FeS2FeSFeS3FeS2FeS2FeSFeS3FeS2FeS2FeSFeS3FeS2FeS2FeSFeS3FeS2FeS2FeSFeS3FeS2FeS2FeSFeS3FeS2FeS2FeSFeS3FeS2FeS2FeSFeS3FeS2FeS2FeSFeS3FeS2FeS2FeSFeS3FeS2FeS2FeSFeS3FeS2FeS2FeSFeS3C6H4C6H4C6H4C6H4C6H4C6H4C6H4C6H4C6H4C6H4C6H4C6H4C6H4C6H4C6H4C6H4C6H4C6H4C6H4C6H4C6H4C6H4C6H4C6H4C6H4C6H4C6H4C6H4C6H4C6H4C6H4C6H4C6H4C6H4C6H4C6H4C6H4C6H4C6H4C6H4C6H4C6H4C6H4C6H4C6H4C6H4C6H4C6H4NC4H12NC4H12NC4H12NC4H12NC4H12NC4H12NC4H12NC4H12NC4H12NC4H12NC4H12NC4H12NC4H12NC4H12NC4H12NC4H12NC4H12NC4H12NC4H12NC4H12NC4H12NC4H12NC4H12NC4H12NC4H12NC4H12NC4H12NC4H12NC4H12NC4H12NC4H12NC4H12NC4H12NC4H12NC4H12NC4H12NC4H12NC4H12NC4H12NC4H12NC4H12NC4H12NC4H12NC4H12NC4H12NC4H12NC4H12NC4H12
_chemical_formula_sum              "Fe96 S192 C480 H768 N48"
_cell_length_a       37.447575749234744
_cell_length_b       37.64616079629385
_cell_length_c       37.386013279808964
_cell_angle_alpha    89.8891560887105
_cell_angle_beta     90.8401735541176
_cell_angle_gamma    90.29836563669575

_space_group_name_H-M_alt    "P 1"
_space_group_IT_number       1

loop_
  _space_group_symop_operation_xyz
  'x, y, z'

loop_
  _atom_site_type_symbol
  _atom_site_label
  _atom_site_symmetry_multiplicity
  _atom_site_fract_x
  _atom_site_fract_y
  _atom_site_fract_z
  _atom_site_occupancy
  Fe  Fe1       1.0  0.3346741802576437  0.7360688161187909  0.5324227415655396  1.0000
  S   S1        1.0  0.3270310972479984  0.6774521271618196  0.5256729961680832  1.0000
  S   S2        1.0  0.36412494622442304  0.7694753175354638  0.49263456386782845  1.0000
  Fe  Fe2       1.0  0.29025315796897105  0.7386686323140466  0.5996618382506794  1.0000
  S   S3        1.0  0.2785608918684162  0.6802393679195968  0.5989021354269876  1.0000
  S   S4        1.0  0.26780322560086656  0.772753688682427  0.6430288301703202  1.0000
  Fe  Fe3       1.0  0.336415370004357  0.6752429496089554  0.5852183527540566  1.0000
  S   S5        1.0  0.372110705066129  0.6342137537925883  0.6105848355561119  1.0000
  Fe  Fe4       1.0  0.2701000590965775  0.6880244996764355  0.5399355856187483  1.0000
  S   S6        1.0  0.2226785872627918  0.667408193959675  0.5086084163625358  1.0000
  S   S7        1.0  0.3490888969393176  0.7332994110689446  0.5908089837215124  1.0000
  S   S8        1.0  0.27701525716866926  0.7471701579914763  0.5416829364104018  1.0000
  Fe  Fe5       1.0  0.7862252753380633  0.06607588276383614  0.6058077958539809  1.0000
  S   S9        1.0  0.7775111922699887  0.007308789929937998  0.6058696963184422  1.0000
  S   S10       1.0  0.7427368968311724  0.09852822562661268  0.6298828884277412  1.0000
  Fe  Fe6       1.0  0.857550069701082  0.06023990365112408  0.5703817735627972  1.0000
  S   S11       1.0  0.8547859164768854  0.0008260132907507156  0.5672617712179857  1.0000
  S   S12       1.0  0.9070472800612053  0.08765701447548402  0.551219186891944  1.0000
  Fe  Fe7       1.0  0.7980686718848806  0.00949336413763402  0.5501730038643834  1.0000
  S   S13       1.0  0.7732527289031251  0.9746252522481715  0.5080772414853333  1.0000
  Fe  Fe8       1.0  0.8345070748189789  0.004277856192355323  0.6231005492976949  1.0000
  S   S14       1.0  0.8511821711736277  0.9650582897123724  0.6649955193024326  1.0000
  S   S15       1.0  0.8021474181957043  0.06888758435714082  0.5482081932608095  1.0000
  S   S16       1.0  0.842144117417759  0.06309513204527972  0.628025077050572  1.0000
  Fe  Fe9       1.0  0.03614040608512492  0.8923218494324114  0.6672497124888909  1.0000
  S   S17       1.0  0.03740414682504456  0.891215479888312  0.7273192775717552  1.0000
  S   S18       1.0  0.013480282894836604  0.9372792992493281  0.6346874398904245  1.0000
  Fe  Fe10      1.0  0.07912345982279678  0.8248751794315855  0.6607461934833778  1.0000
  S   S19       1.0  0.0853421377345045  0.8181303568984097  0.7199681566632432  1.0000
  S   S20       1.0  0.10135423151766457  0.7862932174312857  0.6215390216527008  1.0000
  Fe  Fe11      1.0  0.027409279395146147  0.8325534285470331  0.7210839706591421  1.0000
  S   S21       1.0  0.9887400842501128  0.799052064022739  0.752202416217321  1.0000
  Fe  Fe12      1.0  0.09503094219695164  0.8769782278177646  0.7206936053460969  1.0000
  S   S22       1.0  0.13966628099562356  0.9025900966476458  0.7524201093413414  1.0000
  S   S23       1.0  0.020399212220524765  0.8350855318359706  0.6614017481191508  1.0000
  S   S24       1.0  0.09455879918649557  0.8822466776556733  0.6610679222296514  1.0000
  Fe  Fe13      1.0  0.5552983697246409  0.8430019767717013  0.967332756415916  1.0000
  S   S25       1.0  0.5481715188031736  0.8379069598662021  0.026534542664378158  1.0000
  S   S26       1.0  0.5179758297808156  0.821444460520349  0.9252319288013341  1.0000
  Fe  Fe14      1.0  0.6228532713154327  0.8873485351852722  0.9751730874509302  1.0000
  S   S27       1.0  0.6220792242549589  0.8863860797694364  0.03506526508689212  1.0000
  S   S28       1.0  0.6623113791591931  0.9175872371523386  0.9423965426046023  1.0000
  Fe  Fe15      1.0  0.6074205118857675  0.8288347687436667  0.028032883028058286  1.0000
  S   S29       1.0  0.6306144298382402  0.784241373272607  0.06098439800162958  1.0000
  Fe  Fe16      1.0  0.5632433727815773  0.8957346277337189  0.02794368558783744  1.0000
  S   S30       1.0  0.5343270836776769  0.9387578243480105  0.05711181880088878  1.0000
  S   S31       1.0  0.613269383578897  0.8290004785026156  0.9683634649175089  1.0000
  S   S32       1.0  0.5653084494278  0.9014589343337293  0.9685602915119947  1.0000
  Fe  Fe17      1.0  0.6812976383903385  0.07988044767248881  0.8119315048366124  1.0000
  S   S33       1.0  0.6216022236125004  0.08191703627683711  0.81274176470191  1.0000
  S   S34       1.0  0.7120917150616078  0.038084616660229775  0.7835382041100991  1.0000
  Fe  Fe18      1.0  0.6904263418473524  0.1460255601194094  0.8572399445671038  1.0000
  S   S35       1.0  0.6315232022715572  0.1544254882106845  0.8621791151232919  1.0000
  S   S36       1.0  0.7314297107491033  0.18133945069800922  0.8833131754763137  1.0000
  Fe  Fe19      1.0  0.6294500781932401  0.09541949744439293  0.8707443287468717  1.0000
  S   S37       1.0  0.5990023301084029  0.07025521764566856  0.9154355923220522  1.0000
  Fe  Fe20      1.0  0.6294753507199988  0.14040230037437296  0.8038235454937317  1.0000
  S   S38       1.0  0.5971770121415942  0.16918043535111363  0.7619597745914602  1.0000
  S   S39       1.0  0.688769563732897  0.08818414804389674  0.870702077365644  1.0000
  S   S40       1.0  0.6888520673214672  0.13726528582599695  0.7980549888846041  1.0000
  Fe  Fe21      1.0  0.8150043624439713  0.7180639402661568  0.056359156016791534  1.0000
  S   S41       1.0  0.8132400891935782  0.6586327366679098  0.05645253948756257  1.0000
  S   S42       1.0  0.787956681551957  0.7509435503587341  0.013974014166012516  1.0000
  Fe  Fe22      1.0  0.859527128207144  0.7217489989092745  0.12494536521995159  1.0000
  S   S43       1.0  0.8612048721298282  0.6624930327665808  0.1313421244379791  1.0000
  S   S44       1.0  0.8868445708895685  0.7610230916759756  0.16140056166976596  1.0000
  Fe  Fe23      1.0  0.8711607918644815  0.6626056473616543  0.07229108393641503  1.0000
  S   S45       1.0  0.9154971212914842  0.6308073300937729  0.048422480155214  1.0000
  Fe  Fe24      1.0  0.8032409579631535  0.6644678563692515  0.11514486730112913  1.0000
  S   S46       1.0  0.7583812059393056  0.6328456498300451  0.13905473490133838  1.0000
  S   S47       1.0  0.8738472004725268  0.7217681667652547  0.06703628270246598  1.0000
  S   S48       1.0  0.8006772537648219  0.7238971933764656  0.11392195063141633  1.0000
  Fe  Fe25      1.0  0.9491292729938928  0.6063666717893154  0.8555276431808174  1.0000
  S   S49       1.0  0.006287983851213541  0.6165918365101586  0.8702692461544721  1.0000
  S   S50       1.0  0.9056417820022774  0.6383384042285373  0.8801270847644936  1.0000
  Fe  Fe26      1.0  0.9673480562217274  0.5471821276305298  0.8046272074241363  1.0000
  S   S51       1.0  0.026316781337203166  0.5517708656828667  0.8155432618976779  1.0000
  S   S52       1.0  0.9443735132481265  0.507372434368712  0.7658581412271167  1.0000
  Fe  Fe27      1.0  0.010384487764242722  0.557246278589011  0.8729102209767988  1.0000
  S   S53       1.0  0.03932750265874829  0.5340837256934443  0.9206459129436781  1.0000
  Fe  Fe28      1.0  0.01638054358731056  0.6104638566473117  0.8118062599398982  1.0000
  S   S54       1.0  0.05455648316576944  0.6483255260295113  0.7856197863539226  1.0000
  S   S55       1.0  0.952102354491755  0.5474337636031325  0.8624869753853546  1.0000
  S   S56       1.0  0.9584882527562494  0.6055686676345473  0.7965316908162267  1.0000
  Fe  Fe29      1.0  0.6991764521421939  0.6165073078302706  0.32458082766240864  1.0000
  S   S57       1.0  0.6402203996096769  0.6255180694083522  0.3207153235097132  1.0000
  S   S58       1.0  0.7400775131739206  0.6551581511931013  0.3047431718642096  1.0000
  Fe  Fe30      1.0  0.6913147227374232  0.5468049530272397  0.365122642619609  1.0000
  S   S59       1.0  0.6314933571710256  0.5494541368107558  0.36502195179057884  1.0000
  S   S60       1.0  0.7232573887679701  0.5021817150490937  0.38934293326154445  1.0000
  Fe  Fe31      1.0  0.637244813218691  0.5672842071237387  0.3080218525433037  1.0000
  S   S61       1.0  0.6033249385590146  0.5475716217920858  0.2620675515297497  1.0000
  Fe  Fe32      1.0  0.6400783584548314  0.6071829035146943  0.37781323056980654  1.0000
  S   S62       1.0  0.612602082667037  0.6360484236281739  0.4219292337379475  1.0000
  S   S63       1.0  0.6966180787220433  0.559816910810621  0.3069069422796314  1.0000
  S   S64       1.0  0.6993785318124728  0.6029739880645262  0.3826432372976323  1.0000
  Fe  Fe33      1.0  0.6373344414799773  0.37838738900741  0.16514669922986508  1.0000
  S   S65       1.0  0.6406484276855727  0.3772209659550889  0.10530259522132782  1.0000
  S   S66       1.0  0.674119467782291  0.409144075286904  0.20164059898949913  1.0000
  Fe  Fe34      1.0  0.5728483546653272  0.32939525227447053  0.16697259597936087  1.0000
  S   S67       1.0  0.5697509808127564  0.32408034612909004  0.10736066709777443  1.0000
  S   S68       1.0  0.5343131380043802  0.3036970589042766  0.20453020163300892  1.0000
  Fe  Fe35      1.0  0.6293689949397276  0.3189039481103491  0.11146385359231052  1.0000
  S   S69       1.0  0.6555105709839121  0.27497062720401866  0.08107616151789387  1.0000
  Fe  Fe36      1.0  0.5810079159931945  0.3826381541653691  0.10664374842304164  1.0000
  S   S70       1.0  0.5522308942520604  0.42223367323857086  0.0717635929196585  1.0000
  S   S71       1.0  0.6315916414969293  0.31943152652011336  0.17135252920898847  1.0000
  S   S72       1.0  0.578626300985537  0.3885484067036922  0.16612496553362213  1.0000
  Fe  Fe37      1.0  0.5444266758756636  0.1255756684120099  0.288207731925967  1.0000
  S   S73       1.0  0.48472887042821106  0.13047224079321917  0.2875912655283676  1.0000
  S   S74       1.0  0.5764250575496802  0.1458675854471623  0.24201902031906777  1.0000
  Fe  Fe38      1.0  0.5466186426058107  0.08687073742758478  0.3593487335569518  1.0000
  S   S75       1.0  0.48742890937285005  0.08840865860081637  0.3647216260610302  1.0000
  S   S76       1.0  0.5743471946011663  0.0620475001508769  0.40687942008901734  1.0000
  Fe  Fe39      1.0  0.48562968282452657  0.0740195747940331  0.3067596247136186  1.0000
  S   S77       1.0  0.4457261017961115  0.03321009917523621  0.28792526946644453  1.0000
  Fe  Fe40      1.0  0.4918147509484963  0.14441459003256182  0.3454147056016207  1.0000
  S   S78       1.0  0.4631796228210848  0.18947160591497422  0.37138477553856514  1.0000
  S   S79       1.0  0.5447987850723154  0.06760426812135645  0.3024602458275085  1.0000
  S   S80       1.0  0.5516642053079427  0.14446807856075686  0.34478185520103377  1.0000
  Fe  Fe41      1.0  0.5596752670065294  0.811358138141815  0.5096123885795184  1.0000
  S   S81       1.0  0.5689623567774444  0.8114237258781641  0.4506568198990091  1.0000
  S   S82       1.0  0.5279641914328079  0.7669837645389584  0.5340457298669177  1.0000
  Fe  Fe42      1.0  0.6056386423756045  0.8763186839631006  0.5222785718787784  1.0000
  S   S83       1.0  0.6194418777311825  0.8819994120997406  0.4643010105591707  1.0000
  S   S84       1.0  0.6258998743033036  0.9160673482710322  0.5625128147874449  1.0000
  Fe  Fe43      1.0  0.5614851036188714  0.8702614046378647  0.45453273333064215  1.0000
  S   S85       1.0  0.5314403607727808  0.89996779354912  0.41174242370729125  1.0000
  Fe  Fe44      1.0  0.6258926382869481  0.822843393364788  0.46586372827280015  1.0000
  S   S86       1.0  0.6685036808010723  0.7936397112188769  0.4364478470973727  1.0000
  S   S87       1.0  0.5467439274526498  0.8694226040523017  0.5124138166954947  1.0000
  S   S88       1.0  0.6174700935594233  0.8180476898457298  0.5248851936832138  1.0000
  Fe  Fe45      1.0  0.8126579093764918  0.14811202581056962  0.06739169150970858  1.0000
  S   S89       1.0  0.8524269416504827  0.18704915434585798  0.04557010506898562  1.0000
  S   S90       1.0  0.770016281187833  0.11892529883387389  0.03573588225875013  1.0000
  Fe  Fe46      1.0  0.8363554148696734  0.16104395359411924  0.14452510215996947  1.0000
  S   S91       1.0  0.8774978229860334  0.20161372677170994  0.12947114341370036  1.0000
  S   S92       1.0  0.8251431297671704  0.14358162712617467  0.2006722540723902  1.0000
  Fe  Fe47      1.0  0.8358946166545623  0.22152665800536955  0.09095512499735903  1.0000
  S   S93       1.0  0.8236349535612643  0.27933628741199806  0.08383340089858193  1.0000
  Fe  Fe48      1.0  0.8904599444188294  0.1633053504943078  0.08584638082390916  1.0000
  S   S94       1.0  0.9471707252963094  0.1512275419416434  0.07170734992269412  1.0000
  S   S95       1.0  0.7932831033412017  0.184439431368518  0.11016894426450236  1.0000
  S   S96       1.0  0.8523422740482353  0.12089803710253284  0.10364135407456443  1.0000
  Fe  Fe49      1.0  0.1086062170165884  0.3213586987821098  0.9985785451057086  1.0000
  S   S97       1.0  0.12141951169617107  0.3286870454493166  0.057002235256371714  1.0000
  S   S98       1.0  0.14992359636362132  0.3008746741955647  0.960776462160752  1.0000
  Fe  Fe50      1.0  0.038022935019653925  0.3604330175055265  0.0031487748321255005  1.0000
  S   S99       1.0  0.044727080407876096  0.37125329778344124  0.061572944900194715  1.0000
  S   S100      1.0  0.991234709927573  0.38143081342446067  0.9716220820333435  1.0000
  Fe  Fe51      1.0  0.10147798317300534  0.3840598759731367  0.04860961214902382  1.0000
  S   S101      1.0  0.12869431639526507  0.4329506623338676  0.07005846033907104  1.0000
  Fe  Fe52      1.0  0.06361573433651424  0.3148518142934676  0.06461110149450433  1.0000
  S   S102      1.0  0.044020094026615775  0.2833103665239322  0.11147087533844857  1.0000
  S   S103      1.0  0.09326972099042963  0.37807494434074657  0.9896689911740949  1.0000
  S   S104      1.0  0.05205748265108645  0.3027466388833836  0.006734758140493513  1.0000
  Fe  Fe53      1.0  0.34343877934826816  0.974317574202905  0.05780561816735541  1.0000
  S   S105      1.0  0.34467029049730763  0.033134039786031355  0.04907336150029318  1.0000
  S   S106      1.0  0.36980953905670877  0.9361948879771093  0.02078628232205726  1.0000
  Fe  Fe54      1.0  0.30285227248213364  0.9796787205403006  0.1274220996315728  1.0000
  S   S107      1.0  0.30052581520187577  0.039228411644762096  0.1246707575552186  1.0000
  S   S108      1.0  0.2841830980717734  0.9507180183131162  0.17674197145864823  1.0000
  Fe  Fe55      1.0  0.28754403406344947  0.03062239545530887  0.06635975915457615  1.0000
  S   S109      1.0  0.24289902719148837  0.05936437918737636  0.03778457392596968  1.0000
  Fe  Fe56      1.0  0.3576420668802738  0.03595036513940553  0.10774731234255515  1.0000
  S   S110      1.0  0.403259946987252  0.06971809157840525  0.12822633948180587  1.0000
  S   S111      1.0  0.28525044097780555  0.9712304761645644  0.07037420045122778  1.0000
  S   S112      1.0  0.3611511193465265  0.9771456759376331  0.11510941868261705  1.0000
  Fe  Fe57      1.0  0.15795569946261742  0.13497382297486019  0.8482858880777291  1.0000
  S   S113      1.0  0.2170005870350784  0.13635505598468003  0.8596609897842914  1.0000
  S   S114      1.0  0.1160437272721819  0.15469525323600233  0.8855710233029  1.0000
  Fe  Fe58      1.0  0.16562096147815727  0.09358490509768247  0.779284271245844  1.0000
  S   S115      1.0  0.22498317910000987  0.09061856778642796  0.7845757488744468  1.0000
  S   S116      1.0  0.13690298993702898  0.06918907176879308  0.7322134926577561  1.0000
  Fe  Fe59      1.0  0.2151794323977997  0.07930014331139601  0.8424482139051866  1.0000
  S   S117      1.0  0.24616490612613642  0.03653551725022952  0.8707391590366488  1.0000
  Fe  Fe60      1.0  0.22165067020439533  0.14773916121248815  0.8008665313998224  1.0000
  S   S118      1.0  0.2565662438246233  0.18966577798172438  0.7762283581305147  1.0000
  S   S119      1.0  0.1557809048702915  0.07678769176052591  0.8357203173655485  1.0000
  S   S120      1.0  0.16250621559134384  0.15175204061738132  0.7910705483879311  1.0000
  Fe  Fe61      1.0  0.9852762281784945  0.1167584722422199  0.3207437521619248  1.0000
  S   S121      1.0  0.04254264958102505  0.10624243371969  0.30846539099160325  1.0000
  S   S122      1.0  0.9625914114293568  0.16711682283515994  0.29765061724779834  1.0000
  Fe  Fe62      1.0  0.980272712485119  0.05251697113189535  0.3691648617197039  1.0000
  S   S123      1.0  0.03733345177365477  0.036820300950099805  0.3613783985953578  1.0000
  S   S124      1.0  0.9431213761180637  0.01984666901717591  0.4025230830006936  1.0000
  Fe  Fe63      1.0  0.04848487139289803  0.09506654931668025  0.3671390383406966  1.0000
  S   S125      1.0  0.09628608833734287  0.11796635539486323  0.3960168312014188  1.0000
  Fe  Fe64      1.0  0.025774298921151573  0.0492629863141425  0.30351372934951903  1.0000
  S   S126      1.0  0.04318567211860436  0.016594390111891677  0.25640492941104764  1.0000
  S   S127      1.0  0.992324627069554  0.10999295849202613  0.3798627394221514  1.0000
  S   S128      1.0  0.9677024517443411  0.06059843269816012  0.3107892265181344  1.0000
  Fe  Fe65      1.0  0.08124941974533395  0.7574058222352833  0.22112897689681976  1.0000
  S   S129      1.0  0.08978280443790454  0.7641074100203779  0.280064440009704  1.0000
  S   S130      1.0  0.043765473290763524  0.7143909430068703  0.20202808227724056  1.0000
  Fe  Fe66      1.0  0.1367365127445126  0.8133344663740092  0.20324155187710227  1.0000
  S   S131      1.0  0.15040841276803454  0.8247939314073726  0.260851304011287  1.0000
  S   S132      1.0  0.1582906633092162  0.8401909063956571  0.1544029093959988  1.0000
  Fe  Fe67      1.0  0.14804387306176311  0.7653998882923385  0.26744425517481435  1.0000
  S   S133      1.0  0.18733002986379851  0.7330912554079624  0.30010376216423107  1.0000
  Fe  Fe68      1.0  0.0910939777686417  0.8223094529306835  0.2681473007821239  1.0000
  S   S134      1.0  0.05998356924235693  0.8568523820139727  0.30500604811791016  1.0000
  S   S135      1.0  0.13952284098382195  0.7541256818992852  0.20909160991689793  1.0000
  S   S136      1.0  0.07737009881128953  0.8157170434731599  0.21008342087285256  1.0000
  Fe  Fe69      1.0  0.2216295317297967  0.5109469257198384  0.38635722014079027  1.0000
  S   S137      1.0  0.1620381075109802  0.5078513132154557  0.3844533492225849  1.0000
  S   S138      1.0  0.2509918592796861  0.5180772784374534  0.438455456848617  1.0000
  Fe  Fe70      1.0  0.22858173216058814  0.4922163581776451  0.3081594016210623  1.0000
  S   S139      1.0  0.1694886974791796  0.48742774176967185  0.299259240934041  1.0000
  S   S140      1.0  0.26880300607917795  0.4773257340657711  0.2671898908078705  1.0000
  Fe  Fe71      1.0  0.167200528099486  0.5368440906980289  0.3325230047442932  1.0000
  S   S141      1.0  0.1261528855185689  0.5774082690159567  0.3174988488990294  1.0000
  Fe  Fe72      1.0  0.16966642654525455  0.45886591012961764  0.35177051059344916  1.0000
  S   S142      1.0  0.13240967972147938  0.4131593696595108  0.3621439352387451  1.0000
  S   S143      1.0  0.22668140078054147  0.5444791070608173  0.33689714402334836  1.0000
  S   S144      1.0  0.22912003903267314  0.45943707493948943  0.35806074510546115  1.0000
  Fe  Fe73      1.0  0.5348042516251315  0.5956743697379508  0.7850011916174257  1.0000
  S   S145      1.0  0.4770435696566423  0.5924280573238468  0.7688446517291875  1.0000
  S   S146      1.0  0.5781801201859617  0.5736179347537371  0.7511388469903818  1.0000
  Fe  Fe74      1.0  0.520328511980456  0.6367658105314703  0.8522782110689885  1.0000
  S   S147      1.0  0.4613838803590436  0.638274607732038  0.841721702942015  1.0000
  S   S148      1.0  0.5433056007548831  0.6576996461939503  0.9039743185751701  1.0000
  Fe  Fe75      1.0  0.4676026746380249  0.5811965632023126  0.8267296025578  1.0000
  S   S149      1.0  0.4251492193974865  0.5440028810822791  0.8464236298861495  1.0000
  Fe  Fe76      1.0  0.47565059242229  0.649669513608886  0.7848081730920737  1.0000
  S   S150      1.0  0.44312971608790386  0.6900037626803736  0.7541227324222408  1.0000
  S   S151      1.0  0.5257016115853337  0.5784894853776368  0.8415541167774704  1.0000
  S   S152      1.0  0.5344069610630842  0.6541652771813777  0.7967891720589949  1.0000
  Fe  Fe77      1.0  0.3666331093934975  0.4828893856548695  0.09395648976089399  1.0000
  S   S153      1.0  0.372434046797935  0.5417818215861554  0.09988505986808381  1.0000
  S   S154      1.0  0.396154237288688  0.4437265861865615  0.12852008712821766  1.0000
  Fe  Fe78      1.0  0.312487497039292  0.48913273190894946  0.03293346714543377  1.0000
  S   S155      1.0  0.313548111404038  0.5487139025116531  0.03310345427012651  1.0000
  S   S156      1.0  0.27771840589359353  0.4556918038686606  0.997007919911843  1.0000
  Fe  Fe79      1.0  0.37288011480274413  0.5420415136613453  0.039862560545927295  1.0000
  S   S157      1.0  0.4152374651140008  0.5735412242509356  0.01185051405525428  1.0000
  Fe  Fe80      1.0  0.3128189292250234  0.5427322225721729  0.0928939076077826  1.0000
  S   S158      1.0  0.2756719813570256  0.5723281227800591  0.1288247085525382  1.0000
  S   S159      1.0  0.3719039998115206  0.48280952178379455  0.03441930228645518  1.0000
  S   S160      1.0  0.30697139579216076  0.4834956658892702  0.09208818125438523  1.0000
  Fe  Fe81      1.0  0.39094987624442556  0.162422807948505  0.5520384408586665  1.0000
  S   S161      1.0  0.4255106568001134  0.2111054803976261  0.5523855647991884  1.0000
  S   S162      1.0  0.37196304047938217  0.13612521597678287  0.5013343768369437  1.0000
  Fe  Fe82      1.0  0.39058800404290567  0.15760766206953783  0.6331642389965548  1.0000
  S   S163      1.0  0.42458290848005903  0.20637502676262032  0.6403867205687929  1.0000
  S   S164      1.0  0.37608011860532675  0.12321102206652035  0.6798226669166404  1.0000
  Fe  Fe83      1.0  0.3901939949635156  0.2290159659404528  0.596493986236338  1.0000
  S   S165      1.0  0.3693962136731435  0.2846574574404981  0.5938073089711337  1.0000
  Fe  Fe84      1.0  0.4563856803563152  0.18351947139211885  0.5957159555147855  1.0000
  S   S166      1.0  0.5159200365905271  0.18010495031276916  0.6003812423222682  1.0000
  S   S167      1.0  0.3529210136739889  0.18212471669554095  0.5930570759392965  1.0000
  S   S168      1.0  0.4251223334954477  0.13302899569656773  0.5916624655716829  1.0000
  Fe  Fe85      1.0  0.1675898457096762  0.289432987822706  0.5014602487502059  1.0000
  S   S169      1.0  0.17890301702364383  0.3270129449885263  0.5463647063568651  1.0000
  S   S170      1.0  0.20358753536954105  0.29243372608651785  0.4541958935947693  1.0000
  Fe  Fe86      1.0  0.10552806040763008  0.25516797061366714  0.5385726321565071  1.0000
  S   S171      1.0  0.11101984097704598  0.2898632732629068  0.5873484208553741  1.0000
  S   S172      1.0  0.06331707163342792  0.21292114396330952  0.5309727075973677  1.0000
  Fe  Fe87      1.0  0.11968880868825815  0.3341986605109723  0.5479224147340249  1.0000
  S   S173      1.0  0.1025169956742551  0.3910203416167731  0.5555955732828813  1.0000
  Fe  Fe88      1.0  0.16982769405597123  0.2801680341262833  0.5818444575561245  1.0000
  S   S174      1.0  0.20597402043595608  0.26501378621564603  0.6277869929054835  1.0000
  S   S175      1.0  0.10885720278580258  0.30043519952330816  0.49969584299277586  1.0000
  S   S176      1.0  0.1637247327265843  0.2415986350881845  0.5367473065657133  1.0000
  Fe  Fe89      1.0  0.942197534167353  0.5240573584250913  0.5700194804474352  1.0000
  S   S177      1.0  0.9472214110433865  0.46532970143938174  0.5640560073086072  1.0000
  S   S178      1.0  0.9798317285872186  0.5524206470252997  0.6075748436825301  1.0000
  Fe  Fe90      1.0  0.8764566404908287  0.5272090163259574  0.5216335823935827  1.0000
  S   S179      1.0  0.8762152569850297  0.4683407935591407  0.5116513822785931  1.0000
  S   S180      1.0  0.8325720919881832  0.5641515086375896  0.5035504024826807  1.0000
  Fe  Fe91      1.0  0.8881074585334552  0.4640463036243178  0.5703693611882441  1.0000
  S   S181      1.0  0.863042911218958  0.4241618617713701  0.607073187538792  1.0000
  Fe  Fe92      1.0  0.9355798464104311  0.4754249000669191  0.5061404227579476  1.0000
  S   S182      1.0  0.9689996758949344  0.4456271457431243  0.46677712343698613  1.0000
  S   S183      1.0  0.8837885912537333  0.5222466488955207  0.5810485587362795  1.0000
  S   S184      1.0  0.9351131799451408  0.5348709186074888  0.5112880821637099  1.0000
  Fe  Fe93      1.0  0.6572248008697602  0.33960952183052173  0.6740086047819968  1.0000
  S   S185      1.0  0.671203015644549  0.35063812544513734  0.616735057089784  1.0000
  S   S186      1.0  0.6872146569524037  0.30068423533605454  0.7087940061369002  1.0000
  Fe  Fe94      1.0  0.5970004881012763  0.39297884945884415  0.674473512960229  1.0000
  S   S187      1.0  0.6053627593569827  0.4086949435573374  0.617527325140895  1.0000
  S   S188      1.0  0.5508092342295385  0.4140499412964604  0.7054863975968884  1.0000
  Fe  Fe95      1.0  0.6119560993251646  0.3506300558336888  0.6075600970205413  1.0000
  S   S189      1.0  0.5837412497524828  0.32771060686350784  0.5595840248667002  1.0000
  Fe  Fe96      1.0  0.6637047227024759  0.4077710829039861  0.6317433558402259  1.0000
  S   S190      1.0  0.6972740441339995  0.4522607649843016  0.6098830668846263  1.0000
  S   S191      1.0  0.5983514994344964  0.3346165918437257  0.6634725065072954  1.0000
  S   S192      1.0  0.654965715891585  0.39707198955214934  0.6900527231696779  1.0000
  C   C1        1.0  0.8167948650783439  0.4309013841211278  0.6071828927330717  1.0000
  C   C2        1.0  0.8024480095063131  0.46119465510427765  0.5909384726123021  1.0000
  C   C3        1.0  0.7658778933727381  0.46805013139851087  0.5929746136971524  1.0000
  C   C4        1.0  0.7432093022399797  0.44394289983783136  0.610045711439406  1.0000
  C   C5        1.0  0.7573328635248762  0.41323481274010426  0.6258009535439888  1.0000
  C   C6        1.0  0.7942444841550909  0.4068861774016086  0.6246544720025949  1.0000
  H   H1        1.0  0.8195293167429964  0.47964427190199  0.5770350284782993  1.0000
  H   H2        1.0  0.7551921392141757  0.49201198370236665  0.5810576630619533  1.0000
  H   H3        1.0  0.7398850754949466  0.394513397893156  0.6390189850301695  1.0000
  H   H4        1.0  0.8052638960867596  0.3833384847083312  0.6371531036938004  1.0000
  C   C7        1.0  0.06739676320320664  0.40636775316119217  0.528078109117141  1.0000
  C   C8        1.0  0.05618902244487578  0.4415758461154424  0.5316235630202234  1.0000
  C   C9        1.0  0.026018111994121407  0.45371107437090635  0.5127010452494114  1.0000
  C   C10       1.0  0.007796128422963067  0.43103538920626416  0.4890536228133135  1.0000
  C   C11       1.0  0.020297572560583843  0.39647523290987147  0.48380031209127106  1.0000
  C   C12       1.0  0.04977160118739943  0.38396578920364866  0.5037128587053703  1.0000
  H   H5        1.0  0.07013759048707202  0.4592174532673699  0.5499484565747633  1.0000
  H   H6        1.0  0.01671088370613516  0.4806004002973563  0.5165349688245114  1.0000
  H   H7        1.0  0.006230510951316992  0.37886634199476915  0.4655272555957447  1.0000
  H   H8        1.0  0.05816090666731477  0.3567766118654727  0.5007911880003275  1.0000
  C   C13       1.0  0.5359447774077595  0.22018220390170604  0.5877745278197845  1.0000
  C   C14       1.0  0.5664352009400008  0.23236327573048066  0.606096692425614  1.0000
  C   C15       1.0  0.581572472682714  0.2652892857624495  0.5971780671306094  1.0000
  C   C16       1.0  0.5666644758016336  0.28558911750514376  0.569431723427715  1.0000
  C   C17       1.0  0.5369232073796564  0.2727980085235081  0.5503116359300229  1.0000
  C   C18       1.0  0.521325439369451  0.24028585682577686  0.5597535294512519  1.0000
  H   H9        1.0  0.5780338821223057  0.2167138982143388  0.627580477690727  1.0000
  H   H10       1.0  0.604996495132357  0.2748194136565916  0.6115298793630084  1.0000
  H   H11       1.0  0.5255037551908418  0.28844165870006744  0.5287204201728788  1.0000
  H   H12       1.0  0.49823686971044706  0.23072634233115963  0.5450792681657106  1.0000
  C   C19       1.0  0.2514927161649224  0.2730112358194584  0.6200008155603488  1.0000
  C   C20       1.0  0.2771362528020725  0.2523536209791542  0.6378040198767858  1.0000
  C   C21       1.0  0.3134165545184227  0.25679506157958776  0.6303900018578558  1.0000
  C   C22       1.0  0.3243737654826722  0.2823689382950224  0.6057631464568947  1.0000
  C   C23       1.0  0.29899523876564804  0.30408983938023876  0.5889208215763707  1.0000
  C   C24       1.0  0.2625283629579934  0.2991600894168868  0.5957990991463882  1.0000
  H   H13       1.0  0.26909631534782014  0.23251794655992794  0.6569880173512296  1.0000
  H   H14       1.0  0.3330593045272234  0.24055049267880707  0.6439200942262535  1.0000
  H   H15       1.0  0.3074175951184004  0.3241331606226123  0.5700226149460224  1.0000
  H   H16       1.0  0.24311289275201  0.31588856408986155  0.5827137770462437  1.0000
  C   C25       1.0  0.5702642808034566  0.5292979140725022  0.7386379811755976  1.0000
  C   C26       1.0  0.5944323039046768  0.5121189881855157  0.7163693571386017  1.0000
  C   C27       1.0  0.5885079837951606  0.4767233970416091  0.7061045696380781  1.0000
  C   C28       1.0  0.5583593275013561  0.45840657664238466  0.7180922403473341  1.0000
  C   C29       1.0  0.5340963598782152  0.4755864413130495  0.7403028316486667  1.0000
  C   C30       1.0  0.540078554165712  0.5109926078243635  0.7506515815419958  1.0000
  H   H17       1.0  0.6177503143084511  0.5262163214900174  0.7069981578693243  1.0000
  H   H18       1.0  0.6072367866658415  0.4637162504559924  0.6887962455661801  1.0000
  H   H19       1.0  0.5108251290478281  0.4614460944736378  0.7496848438017115  1.0000
  H   H20       1.0  0.5214755593292091  0.5240245946954109  0.7680464932895283  1.0000
  C   C31       1.0  0.4223464585598627  0.5505887669473913  0.8926767758610886  1.0000
  C   C32       1.0  0.44997780258543685  0.5684243831117859  0.9107914755870011  1.0000
  C   C33       1.0  0.4480647097311609  0.5741096439514455  0.9476368960288948  1.0000
  C   C34       1.0  0.417990612510707  0.5631105784882985  0.9664085517519856  1.0000
  C   C35       1.0  0.3904302131364514  0.5448043971687206  0.9485638698058381  1.0000
  C   C36       1.0  0.39277689933273013  0.5382522439513492  0.9116682435644748  1.0000
  H   H21       1.0  0.4731583822771343  0.5775296557320823  0.8965650846900369  1.0000
  H   H22       1.0  0.46998765761150313  0.5870649307433997  0.9615846931602591  1.0000
  H   H23       1.0  0.36715752664269874  0.5360584764660938  0.9630666270565321  1.0000
  H   H24       1.0  0.3713981163003284  0.5242791654877249  0.8977972476306982  1.0000
  C   C37       1.0  0.2712686067054172  0.5062463316118578  0.23072995894589907  1.0000
  C   C38       1.0  0.30075114951029736  0.5041776487567639  0.20837311065254613  1.0000
  C   C39       1.0  0.30240395283757543  0.5251917201719833  0.1775787527932365  1.0000
  C   C40       1.0  0.27446028632986064  0.5482019869347019  0.1688516909725011  1.0000
  C   C41       1.0  0.24491986241784258  0.5504522735212111  0.19127124212242175  1.0000
  C   C42       1.0  0.24341972651849741  0.5296677975889934  0.2224787762113959  1.0000
  H   H25       1.0  0.3222860459005415  0.48603213063862116  0.2147095849496888  1.0000
  H   H26       1.0  0.325348738965897  0.5233437218151433  0.16052473368784312  1.0000
  H   H27       1.0  0.22264022247560972  0.5670481123347875  0.18367657442906749  1.0000
  H   H28       1.0  0.22028851319958545  0.5307899075992688  0.2394503504722527  1.0000
  C   C43       1.0  0.15283216056348187  0.3763314214050479  0.38254938896187285  1.0000
  C   C44       1.0  0.1314724540705098  0.3503722179306758  0.3984861189849219  1.0000
  C   C45       1.0  0.14727271825692284  0.32302898631614824  0.4185454682425464  1.0000
  C   C46       1.0  0.18435816147748024  0.32187009147024453  0.4231948044198889  1.0000
  C   C47       1.0  0.20582673299276638  0.3464787990783077  0.4054228829619059  1.0000
  C   C48       1.0  0.19002774566591052  0.3736524360726483  0.3850695387098705  1.0000
  H   H29       1.0  0.10269080672858459  0.35183160389274076  0.39604221504050807  1.0000
  H   H30       1.0  0.1307385176010527  0.3027811211457631  0.43033785912689354  1.0000
  H   H31       1.0  0.2345899918265131  0.34525628187175317  0.40829079239452964  1.0000
  H   H32       1.0  0.20671718168778153  0.39246784688858105  0.3715129168392434  1.0000
  C   C49       1.0  0.16992448896214438  0.6901363222678256  0.30642385048375465  1.0000
  C   C50       1.0  0.18833654664190172  0.6654493121750811  0.3278122384596006  1.0000
  C   C51       1.0  0.17488610093042734  0.630762612601527  0.3317722828983939  1.0000
  C   C52       1.0  0.14301315532835204  0.6208014847739945  0.31437055945757186  1.0000
  C   C53       1.0  0.12464648828757253  0.6455369738424859  0.29320415524787136  1.0000
  C   C54       1.0  0.13825261685097917  0.6799622422618256  0.2889383135590531  1.0000
  H   H33       1.0  0.21308531181171628  0.672908286040682  0.34106229728765153  1.0000
  H   H34       1.0  0.188957567042821  0.6118612226399276  0.3485086337790335  1.0000
  H   H35       1.0  0.10013397939732638  0.6378705703547994  0.27949956673918996  1.0000
  H   H36       1.0  0.12435335383933568  0.6983237700891232  0.2715657688951796  1.0000
  C   C55       1.0  0.07227417741192288  0.18625036603774256  0.4936154705730107  1.0000
  C   C56       1.0  0.04820069582653863  0.15944610206051113  0.4831196158035453  1.0000
  C   C57       1.0  0.05533161898986694  0.13818831558090616  0.45319264593565994  1.0000
  C   C58       1.0  0.08676871567204536  0.14343644453162555  0.43400990199094147  1.0000
  C   C59       1.0  0.1106939051445428  0.17024705387689412  0.44448829226961695  1.0000
  C   C60       1.0  0.10326939814047686  0.19185095721671092  0.47391320585462415  1.0000
  H   H37       1.0  0.02408001956723127  0.15509677869709104  0.4981358354006005  1.0000
  H   H38       1.0  0.03690300894381848  0.1173009917654307  0.445452781042948  1.0000
  H   H39       1.0  0.13483238330568814  0.1746621883374083  0.42949691682181423  1.0000
  H   H40       1.0  0.12151737237268523  0.21297155542330237  0.4810873347436308  1.0000
  C   C61       1.0  0.04464225120001131  0.9713420699635573  0.26804549761551844  1.0000
  C   C62       1.0  0.06003673959788358  0.9466475570440829  0.24493538446307314  1.0000
  C   C63       1.0  0.06455793233208684  0.9111753905687202  0.2558442655923166  1.0000
  C   C64       1.0  0.05315538416346488  0.9003590394805364  0.28966692705946195  1.0000
  C   C65       1.0  0.036174153154348465  0.9246086608502659  0.31192105408734916  1.0000
  C   C66       1.0  0.03185162949166198  0.9599784738609436  0.30109040682922117  1.0000
  H   H41       1.0  0.0689432721398926  0.9550512665649858  0.21887442555184508  1.0000
  H   H42       1.0  0.07721567454288003  0.8923918334217467  0.2383060197601138  1.0000
  H   H43       1.0  0.026852156122546544  0.9162464679003407  0.3378862381944405  1.0000
  H   H44       1.0  0.018640119710950476  0.9784221234228538  0.3184520927472858  1.0000
  C   C67       1.0  0.3441935964613457  0.1424832941247817  0.707604906862222  1.0000
  C   C68       1.0  0.33301319547408215  0.17743886236633252  0.7019708773956901  1.0000
  C   C69       1.0  0.3069344577807426  0.1923163097826851  0.7239380205247943  1.0000
  C   C70       1.0  0.2917490038100304  0.17207009722698713  0.7513528930201737  1.0000
  C   C71       1.0  0.3036102755129284  0.13740075439241828  0.7574707403558484  1.0000
  C   C72       1.0  0.329764694432465  0.12261660017988475  0.7356213638739535  1.0000
  H   H45       1.0  0.3445492285603367  0.1929210235227276  0.6807221307931793  1.0000
  H   H46       1.0  0.2981171150692764  0.21929262886996523  0.7193290447299557  1.0000
  H   H47       1.0  0.29306936853211657  0.12209979672459895  0.779385643566386  1.0000
  H   H48       1.0  0.33869276019133915  0.09570641125387667  0.7403667103364934  1.0000
  C   C73       1.0  0.2507172642346961  0.9184833367964791  0.16966489742724195  1.0000
  C   C74       1.0  0.24077898926308927  0.8962232110999236  0.19798755572559654  1.0000
  C   C75       1.0  0.21268611569616436  0.8717042976375124  0.19349549258625978  1.0000
  C   C76       1.0  0.19453744039063606  0.8693424660458127  0.16061239201951524  1.0000
  C   C77       1.0  0.20475307987533106  0.891292009722462  0.13224100342237094  1.0000
  C   C78       1.0  0.23262604414189703  0.9159442172094957  0.136821913645639  1.0000
  H   H49       1.0  0.2547885279444765  0.8980103965103702  0.22343601477557087  1.0000
  H   H50       1.0  0.2052995268738765  0.8545061492950768  0.21532112354032892  1.0000
  H   H51       1.0  0.19074255273459367  0.8895813199989165  0.10677158091299827  1.0000
  H   H52       1.0  0.23962889316800695  0.9332815869420804  0.11505218129126112  1.0000
  C   C79       1.0  0.24233335595925398  0.049824349553969416  0.9918180296944419  1.0000
  C   C80       1.0  0.21422304602633635  0.06227638443479333  0.9702280592627452  1.0000
  C   C81       1.0  0.21543038033804518  0.05867039595615764  0.9328983563903198  1.0000
  C   C82       1.0  0.2441551045793759  0.0412102742008702  0.9172894031393576  1.0000
  C   C83       1.0  0.2710670138648024  0.02664023240813318  0.9390433548800569  1.0000
  C   C84       1.0  0.2703333813396587  0.031219887185139017  0.976259196710638  1.0000
  H   H53       1.0  0.19166789083634544  0.07488685213331903  0.9825137767755663  1.0000
  H   H54       1.0  0.19407074405626382  0.06915793512551294  0.9162482166529018  1.0000
  H   H55       1.0  0.2930474883765238  0.012636534495836349  0.9270891514125124  1.0000
  H   H56       1.0  0.2917002670272058  0.02070951304878821  0.9927766967594713  1.0000
  C   C85       1.0  0.17007429333882476  0.43903017739612993  0.04977834304863937  1.0000
  C   C86       1.0  0.18412800858015302  0.41256544676568485  0.027967723333662153  1.0000
  C   C87       1.0  0.21729991090651993  0.41771956516536846  0.011788940681737747  1.0000
  C   C88       1.0  0.23647127266238327  0.4492536331149084  0.017499878414914294  1.0000
  C   C89       1.0  0.2224857999824429  0.47563429935008356  0.03946592698281415  1.0000
  C   C90       1.0  0.1891517176994067  0.47062545142802575  0.055361782160198825  1.0000
  H   H57       1.0  0.16961216369068907  0.3879891124528297  0.023690599500681087  1.0000
  H   H58       1.0  0.228258862318928  0.3971222556241056  0.99508401785892  1.0000
  H   H59       1.0  0.23716651389638133  0.5001354712964022  0.04380440319482437  1.0000
  H   H60       1.0  0.17814140087770594  0.4912999763739903  0.07190851598574488  1.0000
  C   C91       1.0  0.13808715481241723  0.2620484643738121  0.9375011675255169  1.0000
  C   C92       1.0  0.15902013884418167  0.2508550854728166  0.9089001941197673  1.0000
  C   C93       1.0  0.15141900541420486  0.2186023891281693  0.891539955303984  1.0000
  C   C94       1.0  0.1229311288665551  0.19745048652259384  0.902935712506275  1.0000
  C   C95       1.0  0.10153949637134833  0.20905073440707592  0.9309698661484235  1.0000
  C   C96       1.0  0.10919014968662105  0.24123024644032076  0.948330081104449  1.0000
  H   H61       1.0  0.18139443633388166  0.2669512673388628  0.9004336813437948  1.0000
  H   H62       1.0  0.16803106273326043  0.20974460677282478  0.8698933818687139  1.0000
  H   H63       1.0  0.07965084231254083  0.1925885762038908  0.9399859916171369  1.0000
  H   H64       1.0  0.0932701087512371  0.24939351122845774  0.9706572954014931  1.0000
  C   C97       1.0  0.8619270084871191  0.1512256415214442  0.2292824675044902  1.0000
  C   C98       1.0  0.8711833153477939  0.1259623917969548  0.25531165880612816  1.0000
  C   C99       1.0  0.9019015147704137  0.13081286158399405  0.27676512952568955  1.0000
  C   C100      1.0  0.9230378648443262  0.1612377970814791  0.27259695042782517  1.0000
  C   C101      1.0  0.9131934434540339  0.1869684711176006  0.24730309836960065  1.0000
  C   C102      1.0  0.8827962402438218  0.18187733989774635  0.2255394196859873  1.0000
  H   H65       1.0  0.8549260933033088  0.10234389366326535  0.2584780908377066  1.0000
  H   H66       1.0  0.9089648816809309  0.1111718061923155  0.2967269317103952  1.0000
  H   H67       1.0  0.9293278164952395  0.21067292728032844  0.24418797910438012  1.0000
  H   H68       1.0  0.8752513644466828  0.2019395058132245  0.2062297530801603  1.0000
  C   C103      1.0  0.9758581421824926  0.1863480327682276  0.08355199961883097  1.0000
  C   C104      1.0  0.9726229702556942  0.2030765370004036  0.11669002309089938  1.0000
  C   C105      1.0  0.9944892751808131  0.23217838623453463  0.1254463489347024  1.0000
  C   C106      1.0  0.019193076646390805  0.2450959572876641  0.10082552630293229  1.0000
  C   C107      1.0  0.022923937235910463  0.22802641467678897  0.06789836136191862  1.0000
  C   C108      1.0  0.0015047135157018054  0.19839712932682202  0.05942533339444922  1.0000
  H   H69       1.0  0.9533295683010087  0.19363969779198462  0.13565266538606324  1.0000
  H   H70       1.0  0.9917052679475918  0.24523061217082215  0.1510241192577375  1.0000
  H   H71       1.0  0.04254866936047308  0.23737442597955954  0.049131543924141985  1.0000
  H   H72       1.0  0.004314893428139177  0.18528031156447677  0.033886523453344086  1.0000
  C   C109      1.0  0.3942633133762639  0.15205323915549776  0.4636117871165615  1.0000
  C   C110      1.0  0.400695240345733  0.12915684920348156  0.43502535275230947  1.0000
  C   C111      1.0  0.42085028868404356  0.14089022535953566  0.4059295140462324  1.0000
  C   C112      1.0  0.4345748091232442  0.17551045867539175  0.4053926618898553  1.0000
  C   C113      1.0  0.4265997239224268  0.1989130554848961  0.4331231131950674  1.0000
  C   C114      1.0  0.4064061075831619  0.1871987823601064  0.4621571260657217  1.0000
  H   H73       1.0  0.3905316405803468  0.10221410944243502  0.4356292058794376  1.0000
  H   H74       1.0  0.42524878571169583  0.12334367358234745  0.38369048900836145  1.0000
  H   H75       1.0  0.4365641675674109  0.22594797518959428  0.4324198117917335  1.0000
  H   H76       1.0  0.40005617377904323  0.20548944541335065  0.48318367444319615  1.0000
  C   C115      1.0  0.43398564434451536  0.042720106367288624  0.24341447876501668  1.0000
  C   C116      1.0  0.40166554772792157  0.030112699902116402  0.22888944373290776  1.0000
  C   C117      1.0  0.3921047558833043  0.03817877109357126  0.1933573687197155  1.0000
  C   C118      1.0  0.4149102591316053  0.05879803736227429  0.17239588395496067  1.0000
  C   C119      1.0  0.4474949894053202  0.07082276367680329  0.18675692387916598  1.0000
  C   C120      1.0  0.45698852164897247  0.06289591944901929  0.22224872049004835  1.0000
  H   H77       1.0  0.38378310121387754  0.014513655544288628  0.24519028230306733  1.0000
  H   H78       1.0  0.366852163059594  0.028856194286185577  0.18237674423027475  1.0000
  H   H79       1.0  0.46550884192877284  0.08610504543215791  0.17033280006412874  1.0000
  H   H80       1.0  0.4823394547675785  0.07205254682695394  0.23308456037369396  1.0000
  C   C121      1.0  0.563709482134788  0.01666751554131718  0.4083535074129629  1.0000
  C   C122      1.0  0.5661980848887451  0.9978601234001394  0.4406295158525032  1.0000
  C   C123      1.0  0.5574529437356163  0.9615409925978877  0.4416818926442512  1.0000
  C   C124      1.0  0.5458009074318572  0.9442329458131066  0.4104942702082179  1.0000
  C   C125      1.0  0.5438170065991053  0.9629600347776511  0.3782431882905103  1.0000
  C   C126      1.0  0.5526402637341971  0.9990925002262712  0.3772104688648368  1.0000
  H   H81       1.0  0.5742959309893456  0.01142927677485317  0.4649287502488011  1.0000
  H   H82       1.0  0.5588164972961217  0.9471582036974414  0.46677464871475305  1.0000
  H   H83       1.0  0.5354732275348615  0.9494753899894902  0.3539616183110349  1.0000
  H   H84       1.0  0.5511274639772019  0.013169500388482636  0.3521573139317911  1.0000
  C   C127      1.0  0.5483074739445938  0.2607780489419594  0.21613569280463799  1.0000
  C   C128      1.0  0.535253219125556  0.24467912650788093  0.24712484647355007  1.0000
  C   C129      1.0  0.5444855220543505  0.20958216065105378  0.2555837553724028  1.0000
  C   C130      1.0  0.5669502517995485  0.19056268323202522  0.23312038710586544  1.0000
  C   C131      1.0  0.5805331238132112  0.2068201158668336  0.202416268648365  1.0000
  C   C132      1.0  0.5712497969004888  0.24194853731788735  0.1939318332765155  1.0000
  H   H85       1.0  0.5177873827723986  0.2593179708042684  0.2645163832909695  1.0000
  H   H86       1.0  0.5341181524637686  0.197273105887387  0.27946377904784986  1.0000
  H   H87       1.0  0.5974406708624811  0.1919530444309406  0.18472394321336905  1.0000
  H   H88       1.0  0.5810500516233108  0.2541520303151571  0.16973760057888967  1.0000
  C   C133      1.0  0.5084868471681971  0.42757312803907715  0.08665093762675591  1.0000
  C   C134      1.0  0.49000586418260644  0.45890382528504203  0.07871223436378183  1.0000
  C   C135      1.0  0.4552490140283174  0.4637475819836696  0.0911918459858363  1.0000
  C   C136      1.0  0.43914353962895825  0.4374363349470775  0.11203070046480826  1.0000
  C   C137      1.0  0.4577083600819822  0.40621709188831323  0.12018320837217436  1.0000
  C   C138      1.0  0.492271061986274  0.40114248904462435  0.10725436907152672  1.0000
  H   H89       1.0  0.5027914723080533  0.4797222768707774  0.06350284082390201  1.0000
  H   H90       1.0  0.44114408750258055  0.4881294989652353  0.08526824407435862  1.0000
  H   H91       1.0  0.44523269955240746  0.3857941985160109  0.13622008695530755  1.0000
  H   H92       1.0  0.5064495597568244  0.3768989270348989  0.11350974369766371  1.0000
  C   C139      1.0  0.7021167501263419  0.27861652566233863  0.07957175523517734  1.0000
  C   C140      1.0  0.7202291178503869  0.30732859977760263  0.09533916221997023  1.0000
  C   C141      1.0  0.7577487120182551  0.3085922012806433  0.09523482839199122  1.0000
  C   C142      1.0  0.776999681098242  0.28098937377042893  0.07965444316679116  1.0000
  C   C143      1.0  0.7587356368367731  0.2528485569154072  0.0631121595185502  1.0000
  C   C144      1.0  0.7214079323553317  0.2515810077270443  0.06324018506050555  1.0000
  H   H93       1.0  0.7054442486304738  0.32818737421859656  0.10823542596566203  1.0000
  H   H94       1.0  0.7718116315806832  0.3302480476249893  0.10832233271762995  1.0000
  H   H95       1.0  0.7734653142645482  0.23165421815703893  0.05065769995190794  1.0000
  H   H96       1.0  0.7075848560563891  0.2290271738661847  0.051604846042363706  1.0000
  C   C145      1.0  0.7529328201157035  0.5179480883536476  0.42249424518630707  1.0000
  C   C146      1.0  0.7431950671744825  0.546072064453928  0.44462200577583705  1.0000
  C   C147      1.0  0.7675513791780391  0.5594330974570612  0.4701396504946383  1.0000
  C   C148      1.0  0.8017295339587905  0.5448467132003036  0.47351757643030257  1.0000
  C   C149      1.0  0.811045464584078  0.5159014322622691  0.4522563399961993  1.0000
  C   C150      1.0  0.7865387845735182  0.5022769370409539  0.42694801935062626  1.0000
  H   H97       1.0  0.7166878153549635  0.5571304760357472  0.4424181630547333  1.0000
  H   H98       1.0  0.7599491902328422  0.5809549549140203  0.48748574567068237  1.0000
  H   H99       1.0  0.8375136823828584  0.504758846352554  0.4544214027608215  1.0000
  H   H100      1.0  0.7941066709116502  0.48037736733103314  0.41000230894575207  1.0000
  C   C151      1.0  0.6306677554053081  0.6788193776988767  0.42694867672822623  1.0000
  C   C152      1.0  0.6222360738057334  0.6988893097709148  0.45706478039076925  1.0000
  C   C153      1.0  0.6338753267586621  0.7341856451387454  0.4599648170989494  1.0000
  C   C154      1.0  0.6551116118934255  0.7491185653330981  0.4333527955790107  1.0000
  C   C155      1.0  0.6650171637454797  0.7285475065505348  0.40400050297526524  1.0000
  C   C156      1.0  0.6524832219674193  0.6934981730196306  0.4006028363790848  1.0000
  H   H101      1.0  0.6066026570840365  0.6872216898297775  0.4781649438592702  1.0000
  H   H102      1.0  0.6266235038837746  0.7497731192353311  0.4829872229914278  1.0000
  H   H103      1.0  0.681396793791375  0.7400854290539636  0.3833372403869206  1.0000
  H   H104      1.0  0.6592739095628537  0.6781147127784133  0.37732829007096474  1.0000
  C   C157      1.0  0.620829224149541  0.5076512837702463  0.24627741734244857  1.0000
  C   C158      1.0  0.612689408905744  0.49641554305132635  0.21143920126593885  1.0000
  C   C159      1.0  0.6278692188891858  0.46523161655538364  0.19805724739252192  1.0000
  C   C160      1.0  0.6516672727888297  0.44562953489413476  0.21939920155580023  1.0000
  C   C161      1.0  0.6593699756118538  0.4566451185702173  0.2544059519188434  1.0000
  C   C162      1.0  0.6439096056207062  0.4875807376916915  0.26787245420168876  1.0000
  H   H105      1.0  0.5956260650069324  0.5124999102221642  0.19444450635975458  1.0000
  H   H106      1.0  0.6224235203568792  0.45719539262548176  0.17073249586091194  1.0000
  H   H107      1.0  0.677403630661562  0.441275643709081  0.27112796552356283  1.0000
  H   H108      1.0  0.64982751359402  0.4958183271035963  0.29502954224312833  1.0000
  C   C163      1.0  0.9556899984641651  0.5191696319447648  0.7220793309600608  1.0000
  C   C164      1.0  0.9786427576249385  0.5478621763027398  0.7156373313222875  1.0000
  C   C165      1.0  0.9863207503077971  0.5579135198570364  0.6803986098497729  1.0000
  C   C166      1.0  0.9706156096646366  0.5396357774316044  0.6516138580496408  1.0000
  C   C167      1.0  0.9480034799683407  0.5106929258854375  0.6581218817936955  1.0000
  C   C168      1.0  0.9410354262854611  0.5001261872844139  0.6932834294312531  1.0000
  H   H109      1.0  0.9905159157071325  0.5623564308815223  0.7377573652974871  1.0000
  H   H110      1.0  0.004012625519218771  0.5801369231940718  0.6754722322070558  1.0000
  H   H111      1.0  0.936058502344846  0.49624854185203543  0.6360577466252176  1.0000
  H   H112      1.0  0.9240601108768908  0.4773900941185477  0.6981409445339816  1.0000
  C   C169      1.0  0.024432728168756634  0.49212148527234584  0.934562115349687  1.0000
  C   C170      1.0  0.03708721924539038  0.47854349664478996  0.9671895077624346  1.0000
  C   C171      1.0  0.026970399109345067  0.4444864498113837  0.9783623184052419  1.0000
  C   C172      1.0  0.0036484111465704405  0.42402719834562935  0.957227920171481  1.0000
  C   C173      1.0  0.9903064183334076  0.4378460367582016  0.9249041465926112  1.0000
  C   C174      1.0  0.0010579815569971007  0.47175495147595614  0.9133423433432589  1.0000
  H   H113      1.0  0.054890752999484205  0.4943170911370006  0.9838600213901041  1.0000
  H   H114      1.0  0.036951183187282854  0.4342257472888661  0.0036303470391292336  1.0000
  H   H115      1.0  0.9724478408758465  0.4219669974533297  0.9083763715788596  1.0000
  H   H116      1.0  0.9916722489867111  0.481858609814891  0.8878069914533608  1.0000
  C   C175      1.0  0.7531024834446507  0.6404021198542091  0.18481034167153523  1.0000
  C   C176      1.0  0.7232085304532477  0.6263090809473624  0.20193239659359705  1.0000
  C   C177      1.0  0.7191725355385193  0.6308141855490597  0.23883138402979665  1.0000
  C   C178      1.0  0.7447501900354054  0.649993127977642  0.25855323054021334  1.0000
  C   C179      1.0  0.7740800285910102  0.665066660283227  0.2412304343038695  1.0000
  C   C180      1.0  0.7783852894891677  0.6601042288594297  0.20435804332752167  1.0000
  H   H117      1.0  0.7031794361391942  0.6118414463055337  0.18666204366152714  1.0000
  H   H118      1.0  0.6960791138491418  0.619736616465391  0.2519517780220332  1.0000
  H   H119      1.0  0.7938168796972455  0.6800207658687136  0.256448590461722  1.0000
  H   H120      1.0  0.8014374935367845  0.6712217848075797  0.19117625509947994  1.0000
  C   C181      1.0  0.9303584711864686  0.7480160743428125  0.17260828920868282  1.0000
  C   C182      1.0  0.9382819147368162  0.7122726845789292  0.17880779593402893  1.0000
  C   C183      1.0  0.9732051748567077  0.7022066752818136  0.18802656905698278  1.0000
  C   C184      1.0  0.000277960394600818  0.7278409391256846  0.19099774160251606  1.0000
  C   C185      1.0  0.9924430531849026  0.7635365712241381  0.1844093317537714  1.0000
  C   C186      1.0  0.9574330194549291  0.7736506522247237  0.17548625655591427  1.0000
  H   H121      1.0  0.9173778449067945  0.6924408761197813  0.17714518950507285  1.0000
  H   H122      1.0  0.979170939255221  0.6745374729937973  0.1931521977657188  1.0000
  H   H123      1.0  0.013302875421683735  0.7833379549067945  0.18583527712461542  1.0000
  H   H124      1.0  0.9513887620901723  0.8012877911107894  0.17026752072228332  1.0000
  C   C187      1.0  0.909704643907349  0.6380706275463387  0.9268687431955523  1.0000
  C   C188      1.0  0.9384176186984547  0.620959382418609  0.9437842818519665  1.0000
  C   C189      1.0  0.940836023780627  0.6198786316967311  0.9812068358740308  1.0000
  C   C190      1.0  0.9143226344583377  0.6355907415335094  0.0017840038648915257  1.0000
  C   C191      1.0  0.8862440768729913  0.6536838528698535  0.9848857532708506  1.0000
  C   C192      1.0  0.8838992441788315  0.6548672460973383  0.9474473495077238  1.0000
  H   H125      1.0  0.9584354350242682  0.6079100180023762  0.928119275456566  1.0000
  H   H126      1.0  0.9629136862425748  0.6062907549052687  0.9941053432533088  1.0000
  H   H127      1.0  0.8659114782988848  0.6663120348569168  0.0005409504000193355  1.0000
  H   H128      1.0  0.8616847695729318  0.6682514454982647  0.934500846562408  1.0000
  C   C193      1.0  0.6205468721811334  0.20710731404039193  0.7480009757590025  1.0000
  C   C194      1.0  0.612454551993335  0.22283606943287113  0.7148916471489204  1.0000
  C   C195      1.0  0.6322090163029521  0.25228670836721195  0.7030735822443748  1.0000
  C   C196      1.0  0.6599231819372051  0.2661346575263249  0.7244371522099486  1.0000
  C   C197      1.0  0.667589344319449  0.2506746942901874  0.7577342684454683  1.0000
  C   C198      1.0  0.6480369233527646  0.22114629465905183  0.7694562911899906  1.0000
  H   H129      1.0  0.5916205827514042  0.2117720958963515  0.6979225875781347  1.0000
  H   H130      1.0  0.6267881477871275  0.26349628688465393  0.676944395176355  1.0000
  H   H131      1.0  0.6887488636905698  0.2615466309859306  0.7744894179689799  1.0000
  H   H132      1.0  0.6540810176882096  0.20944277033075998  0.795259133921325  1.0000
  C   C199      1.0  0.7418321016238587  0.16479140345520274  0.9260176813541608  1.0000
  C   C200      1.0  0.7743571942869791  0.17380125030416857  0.9425591515691247  1.0000
  C   C201      1.0  0.7828655368255635  0.16049997647029215  0.9766776279164203  1.0000
  C   C202      1.0  0.7586682574930169  0.13861389688704842  0.9945499643695671  1.0000
  C   C203      1.0  0.7256566617106048  0.13051669803426622  0.9783920297036661  1.0000
  C   C204      1.0  0.7173347322491768  0.14336348167690383  0.9440824995157812  1.0000
  H   H133      1.0  0.7933500661469741  0.19040623356186684  0.9286637637155857  1.0000
  H   H134      1.0  0.808624653132552  0.16627548671764295  0.9885151421873752  1.0000
  H   H135      1.0  0.7065610545878698  0.1141591777425682  0.9923754727672662  1.0000
  H   H136      1.0  0.6917714201365546  0.13699516111874194  0.9318347187024673  1.0000
  C   C205      1.0  0.6748297089460192  0.7759516181149803  0.048935236209550315  1.0000
  C   C206      1.0  0.6929842437496014  0.799451921381932  0.026479076777401245  1.0000
  C   C207      1.0  0.7276556231576136  0.7915116427853761  0.015390216986653105  1.0000
  C   C208      1.0  0.744440442395477  0.7604529550411594  0.027320409922061195  1.0000
  C   C209      1.0  0.7262588156287374  0.7369382938759949  0.04973189570599401  1.0000
  C   C210      1.0  0.6913470495446264  0.7445334148119658  0.06023372799744209  1.0000
  H   H137      1.0  0.6803391680541917  0.8237476247882499  0.01757712716685167  1.0000
  H   H138      1.0  0.7417215849737389  0.8097629656057856  0.99810242407919  1.0000
  H   H139      1.0  0.73892654507797  0.7125718376898815  0.05843780142329025  1.0000
  H   H140      1.0  0.6769582193853202  0.7257592671836604  0.07659386867898266  1.0000
  C   C211      1.0  0.5248538892528767  0.7759802125005621  0.9192457742886526  1.0000
  C   C212      1.0  0.5393854638591999  0.755520845431247  0.9470520565245066  1.0000
  C   C213      1.0  0.5444458314813685  0.7190001671499207  0.9422479547012478  1.0000
  C   C214      1.0  0.535974516995437  0.7031416907130453  0.9093927793003028  1.0000
  C   C215      1.0  0.5214235254450343  0.7235345262484099  0.881565865258968  1.0000
  C   C216      1.0  0.5155099163926533  0.7599293351921025  0.8866480278883567  1.0000
  H   H141      1.0  0.5461685842918266  0.7678122073921602  0.9724228900637971  1.0000
  H   H142      1.0  0.554775825179779  0.7029430976739045  0.9640358913474185  1.0000
  H   H143      1.0  0.5146658056399576  0.7113239403047926  0.8561606397676698  1.0000
  H   H144      1.0  0.5042123648383484  0.7757785212760449  0.8651467768939304  1.0000
  C   C217      1.0  0.6166628920949304  0.027888822149221948  0.922972359755037  1.0000
  C   C218      1.0  0.6105436086196162  0.010374275908206165  0.9553599657132371  1.0000
  C   C219      1.0  0.6240512474163443  0.9761521054436123  0.9611304881391166  1.0000
  C   C220      1.0  0.6443840047276821  0.9597753441361344  0.9347961662183877  1.0000
  C   C221      1.0  0.6507105159114643  0.97739183141851  0.9025277875200829  1.0000
  C   C222      1.0  0.6367228317726245  0.011362092578150351  0.8965517621178097  1.0000
  H   H145      1.0  0.595889686306202  0.023440333983611117  0.9762169147743078  1.0000
  H   H146      1.0  0.6194843115620362  0.9627707004997176  0.9863198959048151  1.0000
  H   H147      1.0  0.6660406382711601  0.9645746952303337  0.8819440658108945  1.0000
  H   H148      1.0  0.641077975164518  0.024477235266005648  0.8712306157737238  1.0000
  C   C223      1.0  0.48929861775920885  0.9392460351635032  0.04397781414952595  1.0000
  C   C224      1.0  0.47407729811048926  0.9102012145646691  0.026060482060618506  1.0000
  C   C225      1.0  0.43738104269001626  0.9096579792467515  0.018141064470515778  1.0000
  C   C226      1.0  0.4158997288397597  0.9380474201069603  0.028391530961610068  1.0000
  C   C227      1.0  0.4313210413934935  0.9675944747667897  0.04531064226149217  1.0000
  C   C228      1.0  0.4680626120248334  0.968313866635484  0.05278451732615719  1.0000
  H   H149      1.0  0.4903369590557096  0.8878305711041009  0.018803771112168688  1.0000
  H   H150      1.0  0.42548710546972107  0.8868836721317432  0.004839132405010549  1.0000
  H   H151      1.0  0.4149065855535155  0.9899056121510532  0.052656288760536185  1.0000
  H   H152      1.0  0.47994414314226747  0.9913815223706435  0.06545730198025246  1.0000
  C   C229      1.0  0.006991168218702493  0.7572533723249882  0.7617981701778606  1.0000
  C   C230      1.0  0.04191356970333926  0.7543132635372317  0.7751910074753691  1.0000
  C   C231      1.0  0.05634293497275755  0.7207433485174525  0.782603286518611  1.0000
  C   C232      1.0  0.0356296844229258  0.6900788677920295  0.7773968944520372  1.0000
  C   C233      1.0  0.0005551907507719278  0.6930089497621738  0.7643628570092522  1.0000
  C   C234      1.0  0.9863290000923465  0.7265787533953377  0.7564120276381635  1.0000
  H   H153      1.0  0.057732848898185196  0.7779413647729632  0.7801568745613242  1.0000
  H   H154      1.0  0.0834941698969991  0.7185635923452101  0.7926740314707249  1.0000
  H   H155      1.0  0.9847226069595728  0.6693886269197331  0.7594651248871237  1.0000
  H   H156      1.0  0.9595541245021398  0.7287597224281461  0.7453781573568334  1.0000
  C   C235      1.0  0.13909658513012893  0.9487555572101585  0.7459395388473452  1.0000
  C   C236      1.0  0.11337387299917606  0.964485577783087  0.7235606556544348  1.0000
  C   C237      1.0  0.11319035161513667  0.0014707907245741225  0.718705456494861  1.0000
  C   C238      1.0  0.1382946237432817  0.022812484428360813  0.7367435993680143  1.0000
  C   C239      1.0  0.16429022066578955  0.006988426922362567  0.7587235018830337  1.0000
  C   C240      1.0  0.16500530114802117  0.9699791290017699  0.762853362873057  1.0000
  H   H157      1.0  0.09338842248857437  0.9482945811600497  0.7101519923734337  1.0000
  H   H158      1.0  0.09303204565789569  0.013578698281612844  0.7016936521414014  1.0000
  H   H159      1.0  0.1840568557614617  0.023270168330154384  0.7723250726175241  1.0000
  H   H160      1.0  0.1856369324187124  0.9578725514853129  0.7791533942833784  1.0000
  C   C241      1.0  0.7329336067770992  0.07996183484057173  0.6715609241792755  1.0000
  C   C242      1.0  0.7572708791647738  0.056958847808737056  0.6881968155300452  1.0000
  C   C243      1.0  0.750698709169982  0.04393847887656466  0.7225758235863915  1.0000
  C   C244      1.0  0.719751921831138  0.05381708837719934  0.7403433905017772  1.0000
  C   C245      1.0  0.6952031164081273  0.07658513806790568  0.7236563823210929  1.0000
  C   C246      1.0  0.7017061653568952  0.08950697972535426  0.689162491949727  1.0000
  H   H161      1.0  0.7816760716246165  0.04984830860906264  0.6750507997399332  1.0000
  H   H162      1.0  0.7700676102692965  0.026916900079199557  0.7357418890213365  1.0000
  H   H163      1.0  0.6710483981085646  0.08402722742890822  0.7372386744207311  1.0000
  H   H164      1.0  0.6825779654657262  0.10688953968193804  0.6761975779072524  1.0000
  C   C247      1.0  0.7331374969341472  0.9577384439710844  0.524623254380777  1.0000
  C   C248      1.0  0.721351260504857  0.9238986848264807  0.514378127527804  1.0000
  C   C249      1.0  0.6885211755850649  0.9108588483376675  0.5263689955559525  1.0000
  C   C250      1.0  0.6675702647316909  0.9315798150670422  0.5487994501566659  1.0000
  C   C251      1.0  0.679540792593894  0.9652504609223554  0.559465093660291  1.0000
  C   C252      1.0  0.7122224945044726  0.9784240778380622  0.5471762935131903  1.0000
  H   H165      1.0  0.7376087584907252  0.9077244690559336  0.4971818341616423  1.0000
  H   H166      1.0  0.679592506690032  0.8845970174736556  0.5185078892922474  1.0000
  H   H167      1.0  0.6630807673380169  0.9815297337291216  0.5763437477701941  1.0000
  H   H168      1.0  0.7205915904963943  0.00509019753027351  0.5541258458936925  1.0000
  C   C253      1.0  0.8969971800101405  0.9583222083700523  0.6595803071970028  1.0000
  C   C254      1.0  0.9141016618887494  0.9290318410446846  0.6751855715112096  1.0000
  C   C255      1.0  0.9503199085203402  0.9226825861059889  0.668387057900002  1.0000
  C   C256      1.0  0.9691923678137022  0.945666770932183  0.6459866651830366  1.0000
  C   C257      1.0  0.9522361525588052  0.9752554694284187  0.6311039886673022  1.0000
  C   C258      1.0  0.916290652578152  0.9817171716614368  0.6380441869864129  1.0000
  H   H169      1.0  0.8992311624979082  0.9109100789116988  0.6919032284843963  1.0000
  H   H170      1.0  0.9633652617676731  0.899696865776644  0.6799368228819069  1.0000
  H   H171      1.0  0.9668346766038063  0.9927912258249832  0.613772770328903  1.0000
  H   H172      1.0  0.9034065230894786  0.004765472866594234  0.6266690716252411  1.0000
  C   C259      1.0  0.9157550671751616  0.07221184578934947  0.5081075102856772  1.0000
  C   C260      1.0  0.8912315955335797  0.04960780752324845  0.49098929807200065  1.0000
  C   C261      1.0  0.8994299599732585  0.03440751405828446  0.458024052193435  1.0000
  C   C262      1.0  0.9321295034156952  0.04181781568652099  0.4420063967689889  1.0000
  C   C263      1.0  0.9563892351993629  0.06512158437616855  0.4586507676443273  1.0000
  C   C264      1.0  0.9481438588111638  0.08044055897888325  0.49169541754015156  1.0000
  H   H173      1.0  0.8658452077111297  0.04376808832707746  0.5030577784661168  1.0000
  H   H174      1.0  0.8804280877983744  0.016776915689466154  0.44495247714308583  1.0000
  H   H175      1.0  0.9819159228837568  0.0705017602371174  0.44660637529815433  1.0000
  H   H176      1.0  0.9670723581130175  0.09818229040132964  0.5046408296477439  1.0000
  C   C265      1.0  0.4098074816510793  0.7686631221478177  0.5033851100530924  1.0000
  C   C266      1.0  0.43235494668487134  0.7959928236879491  0.49170011991651297  1.0000
  C   C267      1.0  0.4687418724765789  0.7959029219288264  0.5013084011650021  1.0000
  C   C268      1.0  0.4826496130533602  0.7680727953160751  0.5219733916984773  1.0000
  C   C269      1.0  0.4603383133713372  0.7402244828206089  0.5326334672328293  1.0000
  C   C270      1.0  0.4238674255977007  0.7407140000632066  0.5237737324149186  1.0000
  H   H177      1.0  0.42152893956875626  0.817592066406255  0.4758632501417713  1.0000
  H   H178      1.0  0.4859579764347636  0.8173227059846861  0.492682711559244  1.0000
  H   H179      1.0  0.47128974827743975  0.7181259073563047  0.5475607035620262  1.0000
  H   H180      1.0  0.4066721266287091  0.7192228322750153  0.5323439536461624  1.0000
  C   C271      1.0  0.2211769703887264  0.7735597446388416  0.6387243194043811  1.0000
  C   C272      1.0  0.20098077805620104  0.7912012741226949  0.6642830782020893  1.0000
  C   C273      1.0  0.16405398920779646  0.7951051150622209  0.6591860889674227  1.0000
  C   C274      1.0  0.14721780138091836  0.780672746578534  0.6288549416552471  1.0000
  C   C275      1.0  0.1671227085603343  0.7615356394526205  0.6041895723511275  1.0000
  C   C276      1.0  0.20407892463905272  0.757959220738316  0.6091427953252572  1.0000
  H   H181      1.0  0.2139878183909242  0.8019651101220412  0.687864087060666  1.0000
  H   H182      1.0  0.14876769174225543  0.8094772543335973  0.6785852572896749  1.0000
  H   H183      1.0  0.15411654494508434  0.7499531540248989  0.5809093511690564  1.0000
  H   H184      1.0  0.21927276454262948  0.7433908758324185  0.589828172532272  1.0000
  C   C277      1.0  0.24298382383384776  0.559594347117306  0.4577586024727537  1.0000
  C   C278      1.0  0.21469121344237493  0.5806867264337393  0.44547476960727717  1.0000
  C   C279      1.0  0.20810548543404384  0.6135101268911127  0.4617395942983197  1.0000
  C   C280      1.0  0.23032797119489626  0.6256405056411963  0.489661019783226  1.0000
  C   C281      1.0  0.2587763614393967  0.6046855976448992  0.5017097549099262  1.0000
  C   C282      1.0  0.26486105135086413  0.5715024816427774  0.4860019303283589  1.0000
  H   H185      1.0  0.19773333377723684  0.5716339715911612  0.4236509685060548  1.0000
  H   H186      1.0  0.18598624051091595  0.6296281107031457  0.4524647148651801  1.0000
  H   H187      1.0  0.2758506016100417  0.6138072841163255  0.5234318843605212  1.0000
  H   H188      1.0  0.28677958497076833  0.5552324184242039  0.4955150643777612  1.0000
  C   C283      1.0  0.39058880122108264  0.6487697460173616  0.6512794860842347  1.0000
  C   C284      1.0  0.4207285604674933  0.6316945667491877  0.6655575445017503  1.0000
  C   C285      1.0  0.4369903789340301  0.6442541029403512  0.6971420094055271  1.0000
  C   C286      1.0  0.42280317667596073  0.6735352597214505  0.7148832981265159  1.0000
  C   C287      1.0  0.3923094651278306  0.6902372292768469  0.7009188353722036  1.0000
  C   C288      1.0  0.37619774203508743  0.6778801274072959  0.669155583274153  1.0000
  H   H189      1.0  0.4321232611642437  0.6093868600924547  0.651575145695362  1.0000
  H   H190      1.0  0.46119445916575436  0.63197465200385  0.7069791046280213  1.0000
  H   H191      1.0  0.38114008215693185  0.7128423035728297  0.714594145855555  1.0000
  H   H192      1.0  0.35262428779699406  0.690888188468372  0.6585209591724561  1.0000
  N   N1        1.0  0.018834706169894577  0.222436908782107  0.37883903366194077  1.0000
  C   C289      1.0  0.9893363815455808  0.20295154580358055  0.3961147161951073  1.0000
  C   C290      1.0  0.040676610254153145  0.24077245702550742  0.40649915001276987  1.0000
  C   C291      1.0  0.003898021371440352  0.24872144981543107  0.3533784854153488  1.0000
  C   C292      1.0  0.041415678076549334  0.19714316042825644  0.35931314999956093  1.0000
  H   H193      1.0  0.9996860504301228  0.18281932038788892  0.41548339942535395  1.0000
  H   H194      1.0  0.9723467556870548  0.18870628684356677  0.375968126080061  1.0000
  H   H195      1.0  0.9717125231675803  0.22117232786787486  0.4111122839649295  1.0000
  H   H196      1.0  0.06349462540074291  0.25544929566313646  0.3945700696488542  1.0000
  H   H197      1.0  0.02457915196096838  0.26008569467645565  0.4218729730005141  1.0000
  H   H198      1.0  0.052076478263794135  0.22149990413795057  0.4261159098792512  1.0000
  H   H199      1.0  0.9872129396194161  0.23548819864795092  0.3322604320432289  1.0000
  H   H200      1.0  0.025431764242275667  0.263710964773952  0.33963750103690465  1.0000
  H   H201      1.0  0.9866496199691777  0.2682563044500766  0.3671212392865102  1.0000
  H   H202      1.0  0.06454075109157786  0.21063165270399242  0.3466836380585824  1.0000
  H   H203      1.0  0.02603399150184771  0.1832659726905589  0.33780285892486234  1.0000
  H   H204      1.0  0.05226771841818656  0.17635085753798566  0.377445805646877  1.0000
  N   N2        1.0  0.46374023598894776  0.9499088505402875  0.16136420970178134  1.0000
  C   C293      1.0  0.4523117098444513  0.9247629836433895  0.13304089341007574  1.0000
  C   C294      1.0  0.49658281129116955  0.9365795016413624  0.17909954643914716  1.0000
  C   C295      1.0  0.4351745137818429  0.9532637444354055  0.1879922517892385  1.0000
  C   C296      1.0  0.47108704700797915  0.9850838723066019  0.1453667378555239  1.0000
  H   H205      1.0  0.42860891379062105  0.9347278027123577  0.1178192563165581  1.0000
  H   H206      1.0  0.44507451228528205  0.8983581200870289  0.1442589075860521  1.0000
  H   H207      1.0  0.4739183790280713  0.9204288364413408  0.11342079768142654  1.0000
  H   H208      1.0  0.4920569296956715  0.9101118466108215  0.19158125731250797  1.0000
  H   H209      1.0  0.5186365280572584  0.933718410429558  0.15958378623786973  1.0000
  H   H210      1.0  0.5061016767073933  0.9550838755650788  0.2004587110000613  1.0000
  H   H211      1.0  0.44338167296366865  0.9713167055717448  0.2102193568264603  1.0000
  H   H212      1.0  0.42809466850780475  0.9271272518853917  0.19993302043896177  1.0000
  H   H213      1.0  0.41037827762175577  0.9643758690576205  0.17570738219477322  1.0000
  H   H214      1.0  0.4934617151593281  0.9837341081200257  0.12614756796624005  1.0000
  H   H215      1.0  0.47868072085445224  0.004955541209351599  0.16614977457603408  1.0000
  H   H216      1.0  0.4472327540945688  0.9956524615572786  0.1307133669769205  1.0000
  N   N3        1.0  0.6779040705284757  0.988463580987462  0.4289578032803318  1.0000
  C   C297      1.0  0.6962510195850098  0.9544095639657686  0.4226926032443826  1.0000
  C   C298      1.0  0.6557264134670135  0.9976462798376139  0.3972712071608853  1.0000
  C   C299      1.0  0.704758514248397  0.01674632656850994  0.4355090663176602  1.0000
  C   C300      1.0  0.6548258245137888  0.9850550543572127  0.4604951655220937  1.0000
  H   H217      1.0  0.7129515187480909  0.955596812847089  0.398351831543611  1.0000
  H   H218      1.0  0.6768317301627921  0.9320931119293534  0.4193567157902786  1.0000
  H   H219      1.0  0.7143754611929526  0.9475571572787563  0.44548959500979934  1.0000
  H   H220      1.0  0.6720871055849069  0.9999774352625861  0.3727728710448051  1.0000
  H   H221      1.0  0.6346427205867915  0.9771974636017616  0.39214149138724563  1.0000
  H   H222      1.0  0.6419612671970479  0.023513829660175567  0.4009353643323284  1.0000
  H   H223      1.0  0.6918557977921622  0.04287231334212405  0.4402041013778256  1.0000
  H   H224      1.0  0.7229919103144834  0.019837482085116376  0.41245785140237434  1.0000
  H   H225      1.0  0.7217012478756003  0.01072396689412014  0.4595313303606819  1.0000
  H   H226      1.0  0.6706211380566253  0.9782639681297985  0.4848312534031165  1.0000
  H   H227      1.0  0.6344716444266306  0.9636789384593217  0.4568179393259787  1.0000
  H   H228      1.0  0.6405575687486083  0.010263570878116468  0.4660020132236028  1.0000
  N   N4        1.0  0.14303281986387686  0.4592963050418491  0.9307009903733778  1.0000
  C   C301      1.0  0.13618627638822073  0.4728029423347544  0.9670603508293192  1.0000
  C   C302      1.0  0.16055199406352488  0.4874611750825196  0.909533648257661  1.0000
  C   C303      1.0  0.10883637045572124  0.4491887046016253  0.9131551576984503  1.0000
  C   C304      1.0  0.16665142985455025  0.4279867682226788  0.9329843622557549  1.0000
  H   H229      1.0  0.16148926140707492  0.4803854293946687  0.9811530609798804  1.0000
  H   H230      1.0  0.12275851172476222  0.45245377769785416  0.9839226624459573  1.0000
  H   H231      1.0  0.1186792174825167  0.49661248499611993  0.9662500064407631  1.0000
  H   H232      1.0  0.14334819770435459  0.5114656419849137  0.9072206454775048  1.0000
  H   H233      1.0  0.18637581464928374  0.495853113431879  0.9221837177124925  1.0000
  H   H234      1.0  0.16625333482679422  0.4782085321263808  0.8819583123669814  1.0000
  H   H235      1.0  0.11303496459447233  0.43760735477465773  0.8862029724115938  1.0000
  H   H236      1.0  0.09109531939941506  0.4725950740812644  0.9096085066704821  1.0000
  H   H237      1.0  0.09400504900302464  0.4291658697122178  0.9291756118363259  1.0000
  H   H238      1.0  0.1551128363109607  0.406731548547172  0.950123749677813  1.0000
  H   H239      1.0  0.19326678747074466  0.4351291984576864  0.9446077520110694  1.0000
  H   H240      1.0  0.17124812749257753  0.41616354115057025  0.9062057771255191  1.0000
  N   N5        1.0  0.7038105909903253  0.20778119639752074  0.17744193083635282  1.0000
  C   C305      1.0  0.7416106165785933  0.21751055304994774  0.18433491584296277  1.0000
  C   C306      1.0  0.6907392275592464  0.18523691621012808  0.206984034406274  1.0000
  C   C307      1.0  0.7008347617135804  0.18802173051375204  0.14338841013454076  1.0000
  C   C308      1.0  0.6820631843994667  0.2403827626309745  0.1749707894461335  1.0000
  H   H241      1.0  0.7523466381146554  0.23444537374383623  0.16242975510360674  1.0000
  H   H242      1.0  0.7588798252799676  0.19350698212621095  0.1864628919693653  1.0000
  H   H243      1.0  0.7449072392696372  0.23257923423930746  0.20975608609460816  1.0000
  H   H244      1.0  0.692448078588899  0.19938731217437683  0.2330803047223131  1.0000
  H   H245      1.0  0.6622793808252065  0.17732048799692363  0.20266392228912294  1.0000
  H   H246      1.0  0.7066974525576726  0.16044951284532627  0.20966506128303053  1.0000
  H   H247      1.0  0.7104121597847076  0.20434801099193198  0.12057452563948065  1.0000
  H   H248      1.0  0.6726614513723527  0.18035451213804402  0.13723591759730036  1.0000
  H   H249      1.0  0.717086081337276  0.16331475031503032  0.1441711903246712  1.0000
  H   H250      1.0  0.6535037191712374  0.23417880424412646  0.16890305003815878  1.0000
  H   H251      1.0  0.6915938435399883  0.2582873125275992  0.15333860334767763  1.0000
  H   H252      1.0  0.6830759937609518  0.2557432964258354  0.20038201741873424  1.0000
  N   N6        1.0  0.7578625539096185  0.6735824673139189  0.44735714590000825  1.0000
  C   C309      1.0  0.7584938734420252  0.6733491986947904  0.407792062102071  1.0000
  C   C310      1.0  0.7541329468417894  0.710524905026543  0.46010267128841287  1.0000
  C   C311      1.0  0.7914526681801003  0.6582051815551918  0.46166782201541134  1.0000
  C   C312      1.0  0.7272742846545043  0.6522151190623663  0.45991099291707477  1.0000
  H   H253      1.0  0.7627934083270657  0.64610905549023  0.39717877440826205  1.0000
  H   H254      1.0  0.7803323669614342  0.6903956424570795  0.3973117213735048  1.0000
  H   H255      1.0  0.732931441339645  0.6832170822169392  0.3959211213088969  1.0000
  H   H256      1.0  0.7767017695838455  0.7275721230573  0.45123949521329226  1.0000
  H   H257      1.0  0.7290193838308302  0.7228195046141952  0.44966308771664887  1.0000
  H   H258      1.0  0.753298408041925  0.7117203772085796  0.48982686821097476  1.0000
  H   H259      1.0  0.791737112279388  0.657203129341234  0.49144724790258265  1.0000
  H   H260      1.0  0.8151656818214199  0.673820220823707  0.4531675609953273  1.0000
  H   H261      1.0  0.7952260819023903  0.6304153363360847  0.45218166855377206  1.0000
  H   H262      1.0  0.7259937294491942  0.6517406521945529  0.48962671264935526  1.0000
  H   H263      1.0  0.7290547615670442  0.6242728655526033  0.4507242612682401  1.0000
  H   H264      1.0  0.7014496742977246  0.6628950196761935  0.44965868256608577  1.0000
  N   N7        1.0  0.7452317465656974  0.5156794487937496  0.21273263595378403  1.0000
  C   C313      1.0  0.7619128994626294  0.500514255696279  0.18062538393542107  1.0000
  C   C314      1.0  0.7436849093514221  0.4882675118354181  0.24105450976047396  1.0000
  C   C315      1.0  0.7086696027573561  0.527487817086124  0.20342906713794043  1.0000
  C   C316      1.0  0.7666062126265704  0.5463467000242619  0.2256153714300317  1.0000
  H   H265      1.0  0.7634862129242276  0.5205154899089023  0.15868039355894162  1.0000
  H   H266      1.0  0.7462322016659596  0.4773597422177525  0.17022200332795104  1.0000
  H   H267      1.0  0.7894891266166009  0.49113391244872034  0.18662480783537552  1.0000
  H   H268      1.0  0.7292520832347369  0.4640426571243915  0.23149667272199065  1.0000
  H   H269      1.0  0.7708312046040634  0.47979073976263836  0.24987432772782808  1.0000
  H   H270      1.0  0.729558441247491  0.49810124021409796  0.26507982998626367  1.0000
  H   H271      1.0  0.6949655012301699  0.5389670320633606  0.2269598504478971  1.0000
  H   H272      1.0  0.6919348099947426  0.5049767703471327  0.1935313684959426  1.0000
  H   H273      1.0  0.7088537632256349  0.5480494019642925  0.1820255636400274  1.0000
  H   H274      1.0  0.7940818521574229  0.5383017262823955  0.23378373665534297  1.0000
  H   H275      1.0  0.7541517138093999  0.5591326739838298  0.2491733313376768  1.0000
  H   H276      1.0  0.7691983598552798  0.567042899938204  0.2044755236364871  1.0000
  N   N8        1.0  0.7471252891358393  0.19150125463355283  0.7062945315106585  1.0000
  C   C317      1.0  0.764126167268236  0.157771074103828  0.7172966978984375  1.0000
  C   C318      1.0  0.7097515852132369  0.18466871495887777  0.6948840663120261  1.0000
  C   C319      1.0  0.7668520964134196  0.2071842116530534  0.6760985464510596  1.0000
  C   C320      1.0  0.7477534690613988  0.21645164078870202  0.736757522593167  1.0000
  H   H277      1.0  0.766392516737001  0.13934174926923035  0.6942774070810257  1.0000
  H   H278      1.0  0.7484710010692803  0.143853488517598  0.7382735972753093  1.0000
  H   H279      1.0  0.7916107696733442  0.1621613537198451  0.728116949703744  1.0000
  H   H280      1.0  0.6961336897910457  0.2096786947272746  0.6866626783470258  1.0000
  H   H281      1.0  0.7084458238739094  0.1662180980791523  0.6716431248188268  1.0000
  H   H282      1.0  0.6938768086878393  0.17264695044959463  0.7168336468887744  1.0000
  H   H283      1.0  0.7546096229265833  0.23272118780367274  0.6672006257454648  1.0000
  H   H284      1.0  0.7667107185816768  0.188970104477894  0.6525896996317754  1.0000
  H   H285      1.0  0.7951959333660942  0.21269044394883527  0.6835962818176412  1.0000
  H   H286      1.0  0.7754384190589887  0.2215532145254659  0.7466947575572905  1.0000
  H   H287      1.0  0.7320453590082642  0.2059232036662095  0.7595734683486531  1.0000
  H   H288      1.0  0.7362247477404891  0.24261096603792445  0.72897656702088  1.0000
  N   N9        1.0  0.9709771058806377  0.1044257408460203  0.18211318679903754  1.0000
  C   C321      1.0  0.968177653968161  0.0662012840475954  0.1734966966132756  1.0000
  C   C322      1.0  0.9989500116304224  0.12107344145436039  0.16006493055207627  1.0000
  C   C323      1.0  0.9804130013580075  0.10862471813337593  0.22040601444656094  1.0000
  C   C324      1.0  0.9363522801957431  0.12177608156326558  0.17449168631276724  1.0000
  H   H289      1.0  0.947173524823111  0.05294749725468084  0.1896500011417528  1.0000
  H   H290      1.0  0.9937692294995537  0.052185721945469554  0.17931542726029526  1.0000
  H   H291      1.0  0.9612380637361846  0.06206540622457957  0.14472498291224412  1.0000
  H   H292      1.0  0.0018747953942503948  0.14990962668432162  0.16610326259812003  1.0000
  H   H293      1.0  0.02540389258926501  0.10847914268505754  0.1648875109016168  1.0000
  H   H294      1.0  0.9924436389504208  0.11878302168922028  0.1309547999694991  1.0000
  H   H295      1.0  0.9835757354764666  0.13713411823432908  0.22775459433089784  1.0000
  H   H296      1.0  0.0058890817047334565  0.09493815114855697  0.2274202062201931  1.0000
  H   H297      1.0  0.959337145345612  0.09727421951304627  0.23778848966245203  1.0000
  H   H298      1.0  0.928884139235202  0.11999735071922113  0.1455900155923684  1.0000
  H   H299      1.0  0.9372273694168186  0.15042492238290284  0.18166839867185414  1.0000
  H   H300      1.0  0.9143598764383573  0.1094024844435244  0.19000115880249324  1.0000
  N   N10       1.0  0.050558191816109765  0.4814204994449802  0.3923418034912164  1.0000
  C   C325      1.0  0.06792072660203541  0.49506884142719865  0.3597369135790334  1.0000
  C   C326      1.0  0.03474301208693742  0.446065649867566  0.38496387242771657  1.0000
  C   C327      1.0  0.022223316081993794  0.5062152048136741  0.4031849089161427  1.0000
  C   C328      1.0  0.07734690007911249  0.47825282013366605  0.42158626531615295  1.0000
  H   H301      1.0  0.04844343547481178  0.49798875322322983  0.3371835662656398  1.0000
  H   H302      1.0  0.08927237610243677  0.47685559585921355  0.3506059185083388  1.0000
  H   H303      1.0  0.08051327917201578  0.5216082063496384  0.3643038925895814  1.0000
  H   H304      1.0  0.05551493009392172  0.4266511042226352  0.3769495585767886  1.0000
  H   H305      1.0  0.021280404234197636  0.4350810849597817  0.4089869194956738  1.0000
  H   H306      1.0  0.014405560299989073  0.4472984458594195  0.36302368877431657  1.0000
  H   H307      1.0  0.009066200636449251  0.49710592324947006  0.4281333219482298  1.0000
  H   H308      1.0  0.000987475325499254  0.50850872510886  0.3821861884841956  1.0000
  H   H309      1.0  0.033147494010420386  0.5333144275870166  0.4083272235205994  1.0000
  H   H310      1.0  0.06505316149118312  0.46780672018215574  0.44645772370990094  1.0000
  H   H311      1.0  0.08981039163247262  0.5044245195649498  0.42797994707195364  1.0000
  H   H312      1.0  0.09905965855672383  0.45969218869155765  0.4142187370140932  1.0000
  N   N11       1.0  0.933456983169191  0.29705819231323843  0.03728547756157785  1.0000
  C   C329      1.0  0.9193524213525772  0.2688353303435414  0.06076418630200564  1.0000
  C   C330      1.0  0.9578166750243428  0.32039410150649833  0.05813056784141635  1.0000
  C   C331      1.0  0.9034252013164668  0.3181611167112825  0.022677957763734602  1.0000
  C   C332      1.0  0.9532502022910415  0.28083492896905277  0.0075868657352837765  1.0000
  H   H313      1.0  0.9412243868375737  0.25238814993875325  0.0721418848155213  1.0000
  H   H314      1.0  0.9008389314148953  0.2507487251315852  0.04594586341287177  1.0000
  H   H315      1.0  0.9043183639272644  0.28005763612122087  0.08358059572282217  1.0000
  H   H316      1.0  0.9687853358676835  0.34213459715763345  0.04121053936032437  1.0000
  H   H317      1.0  0.9440292040756258  0.33273577276073757  0.08111071460034602  1.0000
  H   H318      1.0  0.9809450737217582  0.30529695267502077  0.069271185037028  1.0000
  H   H319      1.0  0.8845765624719294  0.30124582531684774  0.006801914790597552  1.0000
  H   H320      1.0  0.9131340887627937  0.3398669666239189  0.004933286356265665  1.0000
  H   H321      1.0  0.8876795352103756  0.3303283124455025  0.04451330814132182  1.0000
  H   H322      1.0  0.9357901281999726  0.26294766448768825  0.9912651136543902  1.0000
  H   H323      1.0  0.9760294631833712  0.2646235437560312  0.01778560094840964  1.0000
  H   H324      1.0  0.9644535276573155  0.3014873805550128  0.9894311773367714  1.0000
  N   N12       1.0  0.16821685012106963  0.9758447082729726  0.22805348972413975  1.0000
  C   C333      1.0  0.16403530895451574  0.9463597034972275  0.25387793379829976  1.0000
  C   C334      1.0  0.15812733926677647  0.9633264555002611  0.19181336567219404  1.0000
  C   C335      1.0  0.2058377256936047  0.9879777548785302  0.22832110724415247  1.0000
  C   C336      1.0  0.14492428152094378  0.005672679815948323  0.23817639231222415  1.0000
  H   H325      1.0  0.1716925374894283  0.9546668396320886  0.2814966484345542  1.0000
  H   H326      1.0  0.1808697345418721  0.923206361888762  0.24665745341894119  1.0000
  H   H327      1.0  0.13590803788455247  0.936781316532728  0.2546426058415577  1.0000
  H   H328      1.0  0.16107511546815095  0.9847423827477283  0.17148551863847578  1.0000
  H   H329      1.0  0.1752407765513556  0.9408977292560797  0.1833768819752961  1.0000
  H   H330      1.0  0.12998097137526926  0.9536972845043376  0.19064416929238104  1.0000
  H   H331      1.0  0.2105153651395883  0.00893925740144308  0.20782937028889398  1.0000
  H   H332      1.0  0.22428563660107212  0.9658224561666277  0.2222838406337127  1.0000
  H   H333      1.0  0.2140355350079485  0.9988828267110488  0.25484068177631203  1.0000
  H   H334      1.0  0.11629750424192219  0.9976804248692713  0.2378210841685849  1.0000
  H   H335      1.0  0.14769124632207992  0.0285274613844273  0.21948040157558574  1.0000
  H   H336      1.0  0.15122866080063166  0.015370269636505451  0.26567546645195844  1.0000
  N   N13       1.0  0.6730249713834152  0.24723714218200804  0.9586233774879667  1.0000
  C   C337      1.0  0.7107579276331061  0.24015885985988014  0.9683218069873355  1.0000
  C   C338      1.0  0.6533789748091554  0.25748944859342904  0.9909612958378826  1.0000
  C   C339      1.0  0.6565621220139477  0.21492066558254283  0.943010076824829  1.0000
  C   C340      1.0  0.6714108510955243  0.2764188621407783  0.932146164542126  1.0000
  H   H337      1.0  0.7233497451892522  0.2631472421994172  0.9824351979691911  1.0000
  H   H338      1.0  0.7268728536827045  0.23478513504623538  0.944165664116801  1.0000
  H   H339      1.0  0.7133493737928448  0.21660761050385952  0.9862412043451543  1.0000
  H   H340      1.0  0.6248344366223484  0.26323530795483574  0.9848120869838515  1.0000
  H   H341      1.0  0.6540219816085349  0.23601507023009827  0.011490694704333615  1.0000
  H   H342      1.0  0.6651505561434812  0.2816896996067081  0.0036708700183964993  1.0000
  H   H343      1.0  0.6579162480491064  0.19212315952245293  0.9619985910608116  1.0000
  H   H344      1.0  0.6703860739210479  0.2067616807777014  0.9182375300906901  1.0000
  H   H345      1.0  0.6279747627371162  0.21914744917328838  0.9357537920033236  1.0000
  H   H346      1.0  0.6838039959095997  0.3011635183984691  0.9430224912303748  1.0000
  H   H347      1.0  0.6433417339817379  0.2825899625869913  0.9242520719471518  1.0000
  H   H348      1.0  0.6858754777766312  0.26931454399229754  0.9073081150655242  1.0000
  N   N14       1.0  0.8274968248528913  0.5004371340476793  0.698829668533835  1.0000
  C   C341      1.0  0.849307076279631  0.5046486040517879  0.6664637865808742  1.0000
  C   C342      1.0  0.8512052634794823  0.49505460038158006  0.7303317133300103  1.0000
  C   C343      1.0  0.8035480298190476  0.4693561873574895  0.6944342282084967  1.0000
  C   C344      1.0  0.8058865945429052  0.5327312432041256  0.7039345865118976  1.0000
  H   H349      1.0  0.8322484572673546  0.5091132662834088  0.6422663819206768  1.0000
  H   H350      1.0  0.8655024803196938  0.48051695659070215  0.6613214682592905  1.0000
  H   H351      1.0  0.8681296852135829  0.5275558121000345  0.6688629277240873  1.0000
  H   H352      1.0  0.8357632445539769  0.4925395672525105  0.7554083311195763  1.0000
  H   H353      1.0  0.8674036234421184  0.47051588383024634  0.7276784314665238  1.0000
  H   H354      1.0  0.8703197410699731  0.517619341782202  0.7339236737011142  1.0000
  H   H355      1.0  0.8189308207476695  0.44465628103203436  0.6893580447409074  1.0000
  H   H356      1.0  0.7847780681674558  0.47295913365703757  0.6713436054632757  1.0000
  H   H357      1.0  0.7870974384063014  0.46478242669973807  0.7185705719523956  1.0000
  H   H358      1.0  0.7888506486692267  0.5304085028717563  0.7279948675163228  1.0000
  H   H359      1.0  0.7878008340572941  0.5375692352196362  0.6804976429979221  1.0000
  H   H360      1.0  0.8231722942683423  0.5566844153123895  0.7073609651347635  1.0000
  N   N15       1.0  0.6900970069268444  0.7379290267749669  0.17418131831300862  1.0000
  C   C345      1.0  0.6579689498104305  0.7476414883055725  0.15295052039473048  1.0000
  C   C346      1.0  0.7169151587963923  0.7223019279099087  0.15038968053157012  1.0000
  C   C347      1.0  0.6804419085016845  0.7117438508691026  0.2019776956704547  1.0000
  C   C348      1.0  0.7053335401825523  0.7700604766007638  0.191351319735496  1.0000
  H   H361      1.0  0.6643414814655135  0.7677292945506734  0.1320032368901683  1.0000
  H   H362      1.0  0.6369198374461696  0.759209348658962  0.17001179168183952  1.0000
  H   H363      1.0  0.6461906267650568  0.724167498201905  0.1389658566351335  1.0000
  H   H364      1.0  0.7415245434217708  0.7147518876538808  0.16552886273299453  1.0000
  H   H365      1.0  0.7066968632199323  0.6978134144948003  0.13694124569035232  1.0000
  H   H366      1.0  0.7249339473867032  0.7413730760265325  0.1291537233704338  1.0000
  H   H367      1.0  0.6597871379845391  0.7222762826536402  0.22017281645957293  1.0000
  H   H368      1.0  0.7040806540100069  0.7044743195810169  0.21883716700518835  1.0000
  H   H369      1.0  0.6698530231299772  0.686721700378325  0.18990545435788048  1.0000
  H   H370      1.0  0.7130261848030648  0.7903035901460647  0.1710320174790863  1.0000
  H   H371      1.0  0.7297906851181005  0.7636410567456762  0.2073937274895747  1.0000
  H   H372      1.0  0.6858931227464161  0.782596432932371  0.2096218500031064  1.0000
  N   N16       1.0  0.9915884993868119  0.08556668918546628  0.6244985046891498  1.0000
  C   C349      1.0  0.9934377436121828  0.10431890317922599  0.5897487437925355  1.0000
  C   C350      1.0  0.0004235906064449235  0.11058647261195054  0.6537709999387412  1.0000
  C   C351      1.0  0.017357482689475123  0.05590114694800308  0.6251005431893762  1.0000
  C   C352      1.0  0.955051290844282  0.07147991216055005  0.6293899378311967  1.0000
  H   H373      1.0  0.9871927956677065  0.08609140383038016  0.5670685526461794  1.0000
  H   H374      1.0  0.020397539102311013  0.11596718039663889  0.585209002497803  1.0000
  H   H375      1.0  0.9736570405247762  0.12630962522000444  0.5879825778582544  1.0000
  H   H376      1.0  0.027775742547781146  0.12188813640019758  0.650879038727086  1.0000
  H   H377      1.0  0.9814083994836298  0.13323469022261136  0.6541109259990372  1.0000
  H   H378      1.0  0.9993589138729843  0.09722722787589477  0.6803622028108428  1.0000
  H   H379      1.0  0.04532775038278425  0.06567122232757838  0.6226454633180722  1.0000
  H   H380      1.0  0.012210160624375188  0.03708415175732993  0.6026793699723334  1.0000
  H   H381      1.0  0.0158002777271129  0.04031451655813534  0.6504395839479135  1.0000
  H   H382      1.0  0.9525736702547796  0.0566446833106613  0.6550503525693794  1.0000
  H   H383      1.0  0.9472386736367447  0.053108603640235064  0.607347109470935  1.0000
  H   H384      1.0  0.9348805310239876  0.09314287646355379  0.6291929683493026  1.0000
  N   N17       1.0  0.3659895522737565  0.57549245309911  0.7545564682120595  1.0000
  C   C353      1.0  0.34466341626959157  0.5891333065218749  0.7239343989810629  1.0000
  C   C354      1.0  0.39620776734211427  0.5544876599423183  0.7411139494971625  1.0000
  C   C355      1.0  0.34339472575453645  0.552658065397943  0.7772417818722638  1.0000
  C   C356      1.0  0.3797752670052434  0.6056728049882205  0.7760103670174915  1.0000
  H   H385      1.0  0.3609654360421939  0.6067404919423692  0.7065826625384755  1.0000
  H   H386      1.0  0.3214933924525679  0.6050037407748399  0.7329511968224929  1.0000
  H   H387      1.0  0.33424933296113435  0.5671790867403164  0.7067519146634741  1.0000
  H   H388      1.0  0.4137544718161237  0.5708212276039262  0.7236848367584681  1.0000
  H   H389      1.0  0.41301489465055585  0.5439397825267333  0.7635660278630234  1.0000
  H   H390      1.0  0.38680844676467663  0.5313694370388281  0.7249810886636139  1.0000
  H   H391      1.0  0.35895348733871196  0.5419175056931694  0.8005050087463628  1.0000
  H   H392      1.0  0.33251130610796853  0.5295684082870804  0.7619818965272618  1.0000
  H   H393      1.0  0.320463107492941  0.5676720984381215  0.7881059041775081  1.0000
  H   H394      1.0  0.3978152763617185  0.6228664078908148  0.7601693232110549  1.0000
  H   H395      1.0  0.39538279081925365  0.5964124978029673  0.79975512361366  1.0000
  H   H396      1.0  0.3578067761429467  0.622707387605826  0.7857819540948309  1.0000
  N   N18       1.0  0.7434191308238125  0.022956763452499196  0.9529963650465608  1.0000
  C   C357      1.0  0.7619872943526839  0.00097826989632388  0.9802192387717851  1.0000
  C   C358      1.0  0.7655742203234197  0.05443840573031311  0.944653421994848  1.0000
  C   C359      1.0  0.7087107239148873  0.03453940273719436  0.9671228054605807  1.0000
  C   C360      1.0  0.7373902598141685  0.001795625473239193  0.9201677308108741  1.0000
  H   H397      1.0  0.7458906157363819  0.9770041020027519  0.9871714545759513  1.0000
  H   H398      1.0  0.7668967571434423  0.01621368118557598  0.0053835760823912615  1.0000
  H   H399      1.0  0.7883092767849194  0.9917311567574114  0.9705371389914498  1.0000
  H   H400      1.0  0.7517695465491038  0.07244495714818067  0.9253010750187232  1.0000
  H   H401      1.0  0.7718140134525854  0.07015504781907933  0.9691789795750024  1.0000
  H   H402      1.0  0.7914983497002908  0.046798994264851235  0.9328110082983203  1.0000
  H   H403      1.0  0.712318131446422  0.050279251299315986  0.9921109516455803  1.0000
  H   H404      1.0  0.6913061927763546  0.011395564249905288  0.9734997903379686  1.0000
  H   H405      1.0  0.6938494910084068  0.051351583358136166  0.9474401475932817  1.0000
  H   H406      1.0  0.7221532625919407  0.01709361342532434  0.8995237018038509  1.0000
  H   H407      1.0  0.7219232037017832  0.9771091796544417  0.925879730080703  1.0000
  H   H408      1.0  0.7630091276615374  0.9935842670491719  0.9080571356060719  1.0000
  N   N19       1.0  0.2128381140477558  0.9024135286883818  0.6646224254528661  1.0000
  C   C361      1.0  0.24904751759915478  0.9168649803814821  0.6586660071261706  1.0000
  C   C362      1.0  0.18723659375062165  0.9319998292505898  0.6675753268059665  1.0000
  C   C363      1.0  0.212850434387942  0.8814213833434452  0.6980767910765306  1.0000
  C   C364      1.0  0.2022789093880967  0.879322211171676  0.634252950299602  1.0000
  H   H409      1.0  0.26894488180660064  0.895145033570626  0.6559288209249025  1.0000
  H   H410      1.0  0.2580224829595921  0.9340095723662715  0.6813577305173776  1.0000
  H   H411      1.0  0.24993551548267304  0.933187956137977  0.6338327504017962  1.0000
  H   H412      1.0  0.15992653808580018  0.9220335796074259  0.6734087278818631  1.0000
  H   H413      1.0  0.1948195578793028  0.9504035145227304  0.6897433311683208  1.0000
  H   H414      1.0  0.18555227882439063  0.9478548940475783  0.6424785898901736  1.0000
  H   H415      1.0  0.1865917540418042  0.8680496041578186  0.7021179427918126  1.0000
  H   H416      1.0  0.21793656380324325  0.8984738471155417  0.7219373096040134  1.0000
  H   H417      1.0  0.23366152011978847  0.8604320277140497  0.6978656537922052  1.0000
  H   H418      1.0  0.1749950029476069  0.8680232838373668  0.6377963997830555  1.0000
  H   H419      1.0  0.220918866086363  0.8565186063988769  0.6314541433159674  1.0000
  H   H420      1.0  0.20209206305832  0.8941462317290411  0.6084894561774429  1.0000
  N   N20       1.0  0.016759394295073893  0.4222892410904891  0.6414115495594868  1.0000
  C   C365      1.0  0.023921913136762063  0.4544776879039078  0.6199656787362572  1.0000
  C   C366      1.0  0.04034088662607038  0.39333290338774846  0.6295369459541578  1.0000
  C   C367      1.0  0.9790341248985301  0.4113105081967828  0.6363725550057283  1.0000
  C   C368      1.0  0.023763049368097366  0.4301147742133097  0.6796151270035189  1.0000
  H   H421      1.0  0.007330105455602753  0.47725341771158697  0.6285013593326662  1.0000
  H   H422      1.0  0.01781799584828958  0.4498319507020359  0.5912378218206844  1.0000
  H   H423      1.0  0.05239386015659919  0.46290160809224257  0.6221678310825459  1.0000
  H   H424      1.0  0.06908173022903186  0.4007823012093723  0.6322915329959982  1.0000
  H   H425      1.0  0.03600520004515739  0.3685504005951552  0.6451696144246136  1.0000
  H   H426      1.0  0.03554483477203085  0.3868451362061031  0.6007627046314958  1.0000
  H   H427      1.0  0.9724681681698624  0.3875493321198832  0.6528002783987156  1.0000
  H   H428      1.0  0.9730056327583262  0.4043921727408129  0.6079467731826266  1.0000
  H   H429      1.0  0.9603839884203216  0.43286740319076367  0.643994285839581  1.0000
  H   H430      1.0  0.006317164263508035  0.45194542482881367  0.6892305914698498  1.0000
  H   H431      1.0  0.05195904238345528  0.43861372787727165  0.6843138641288176  1.0000
  H   H432      1.0  0.018687497048759605  0.4064405835307669  0.6967157286806458  1.0000
  N   N21       1.0  0.005131504067002801  0.6931428770630095  0.07960347730044082  1.0000
  C   C369      1.0  0.005875105021666327  0.657955698452645  0.06216182099669609  1.0000
  C   C370      1.0  0.029845025153378835  0.6933108258582489  0.11078164579706917  1.0000
  C   C371      1.0  0.9684673854306218  0.7005894481294028  0.0915189738057367  1.0000
  C   C372      1.0  0.01624831887104361  0.72079243140262  0.05388421135359556  1.0000
  H   H433      1.0  0.988114905606971  0.6572815299477478  0.03802190192794508  1.0000
  H   H434      1.0  0.9963161214417691  0.6366759689503425  0.08049622433366332  1.0000
  H   H435      1.0  0.03326283455536583  0.6509029865009761  0.053597995450567426  1.0000
  H   H436      1.0  0.03083126786545698  0.7198750866344407  0.12380373657461674  1.0000
  H   H437      1.0  0.02152952110476125  0.6737524154321943  0.13149826181486346  1.0000
  H   H438      1.0  0.05761203526742742  0.6867231739559976  0.10309300325004567  1.0000
  H   H439      1.0  0.966798032901432  0.7267675308787863  0.10521131742139178  1.0000
  H   H440      1.0  0.9588443014501373  0.6799559162097785  0.1105244530470153  1.0000
  H   H441      1.0  0.9492643123684534  0.7008471665779554  0.0685377514092409  1.0000
  H   H442      1.0  0.9980853741987515  0.7214005890052184  0.030031383338535056  1.0000
  H   H443      1.0  0.043851907843609705  0.716079108335785  0.04437611326132629  1.0000
  H   H444      1.0  0.015800613767804395  0.7476847445396674  0.06628413581676385  1.0000
  N   N22       1.0  0.24190984931824036  0.7325653146947535  0.4224478718230056  1.0000
  C   C373      1.0  0.27388917949671954  0.7555189167674642  0.42648647567063125  1.0000
  C   C374      1.0  0.22385150458759845  0.7399499648009668  0.3878043295533779  1.0000
  C   C375      1.0  0.21700614850730318  0.7398571489839041  0.45182513971585514  1.0000
  C   C376      1.0  0.2528190230217835  0.6948853415456447  0.42377473194815973  1.0000
  H   H445      1.0  0.288256986938286  0.750329623341659  0.4523374410514754  1.0000
  H   H446      1.0  0.26670227446759776  0.7841572118376475  0.42607234622356366  1.0000
  H   H447      1.0  0.29323483140627205  0.7508708962155838  0.40470495424433983  1.0000
  H   H448      1.0  0.2155292041374796  0.7682092493994059  0.38554512920603323  1.0000
  H   H449      1.0  0.2414668614376007  0.7342755302129136  0.36480653508524563  1.0000
  H   H450      1.0  0.1992996236903719  0.72339211340138  0.3842460282657837  1.0000
  H   H451      1.0  0.1934954286396197  0.7215916771835497  0.450893707044726  1.0000
  H   H452      1.0  0.20699286121825977  0.767603443609565  0.45084129837566395  1.0000
  H   H453      1.0  0.230142507148482  0.7359788577963692  0.4783956917640034  1.0000
  H   H454      1.0  0.22929812973718305  0.6767398842070612  0.4217158105753745  1.0000
  H   H455      1.0  0.2669092831053038  0.6884926739208751  0.44943718706793445  1.0000
  H   H456      1.0  0.271136522022973  0.6881910893785808  0.4016723325945464  1.0000
  N   N23       1.0  0.9368995244462082  0.7394608286539878  0.8553807852608717  1.0000
  C   C377      1.0  0.9688374850783124  0.7167054492058534  0.8589384272016092  1.0000
  C   C378      1.0  0.9176978788477953  0.7399169545989999  0.8896525862798775  1.0000
  C   C379      1.0  0.9130261604140827  0.7252263911463392  0.826942414429033  1.0000
  C   C380      1.0  0.9480006578759685  0.7759938972255157  0.8459285252796098  1.0000
  H   H457      1.0  0.9872565609074425  0.7262960433996458  0.8804621377400974  1.0000
  H   H458      1.0  0.9842228115287609  0.7161352775119696  0.8337339904435194  1.0000
  H   H459      1.0  0.9614194163156126  0.6887730274948043  0.865384350904908  1.0000
  H   H460      1.0  0.8934001619368076  0.7567743858229192  0.8879381708135402  1.0000
  H   H461      1.0  0.9088274363599673  0.7127454830232999  0.8974185999668699  1.0000
  H   H462      1.0  0.9349092010859907  0.7502759760490771  0.9118181549533557  1.0000
  H   H463      1.0  0.9265908757376824  0.7245940354382009  0.8007248406804259  1.0000
  H   H464      1.0  0.8885749220115536  0.7416268981580262  0.8235936174000196  1.0000
  H   H465      1.0  0.9043201000562308  0.697570085099101  0.8330048238223696  1.0000
  H   H466      1.0  0.9661613219765275  0.7876286503948039  0.8666488148652476  1.0000
  H   H467      1.0  0.9246153197795159  0.7939040973551706  0.8426881861657951  1.0000
  H   H468      1.0  0.9625340151511631  0.7765488534433066  0.820184976990518  1.0000
  N   N24       1.0  0.5049749153669634  0.4626005672747298  0.21149675900836662  1.0000
  C   C381      1.0  0.5073626718898008  0.497809952510906  0.22884342881608094  1.0000
  C   C382      1.0  0.5257630647615207  0.43651989772267424  0.2327631975034175  1.0000
  C   C383      1.0  0.519626381420337  0.46497479094181626  0.1751031135609902  1.0000
  C   C384      1.0  0.4671914568710099  0.4510281911896689  0.20910494819830094  1.0000
  H   H469      1.0  0.4923317900970551  0.5182151832539251  0.21327110517328518  1.0000
  H   H470      1.0  0.53561332125375  0.5071223754341176  0.2313575374424491  1.0000
  H   H471      1.0  0.4963173974048487  0.4970904852219355  0.2563114489799053  1.0000
  H   H472      1.0  0.51594602449943  0.4345550071227822  0.26064685713104907  1.0000
  H   H473      1.0  0.523947927970306  0.40942815399502935  0.2208633359192394  1.0000
  H   H474      1.0  0.554618774936634  0.4439293578929768  0.2342742105939836  1.0000
  H   H475      1.0  0.5189821399534968  0.43870226295675263  0.16178831350396738  1.0000
  H   H476      1.0  0.5479232925683148  0.47393503633934464  0.17551313489288264  1.0000
  H   H477      1.0  0.5040792528266959  0.483644494906425  0.15786741711507862  1.0000
  H   H478      1.0  0.46457016965485126  0.42439533941609975  0.1963481044421447  1.0000
  H   H479      1.0  0.4507829704588287  0.46965786550942107  0.1925590549119411  1.0000
  H   H480      1.0  0.45493083614503477  0.44923626542902156  0.23597739377961358  1.0000
  N   N25       1.0  0.483946038626889  0.33531958966664366  0.6348453989679721  1.0000
  C   C385      1.0  0.44601727380660583  0.33894544436611596  0.6239305532918614  1.0000
  C   C386      1.0  0.5067527423173305  0.3537217736011711  0.6086240305765245  1.0000
  C   C387      1.0  0.49340061292932785  0.2972662912172476  0.636268432253692  1.0000
  C   C388      1.0  0.48970612533601154  0.3513359092898173  0.6705533778108638  1.0000
  H   H481      1.0  0.42796822451485245  0.3248744228509106  0.6427540361820305  1.0000
  H   H482      1.0  0.4408176607094011  0.3273893744129287  0.5969177470186398  1.0000
  H   H483      1.0  0.43779553920873476  0.36729689479675465  0.6229544138036185  1.0000
  H   H484      1.0  0.5354931663256118  0.35199125425877903  0.616350390064372  1.0000
  H   H485      1.0  0.5038822511967344  0.34190458066021917  0.5814436441889751  1.0000
  H   H486      1.0  0.5002338659461406  0.38247047573289417  0.6065795486593111  1.0000
  H   H487      1.0  0.5222060475583109  0.29357609536490675  0.6431388687966325  1.0000
  H   H488      1.0  0.48830247893609996  0.28417960542064186  0.6100366591614821  1.0000
  H   H489      1.0  0.47743922514547243  0.2827598277373085  0.6565293324745572  1.0000
  H   H490      1.0  0.5178674525411139  0.3481128081655585  0.6799939133902808  1.0000
  H   H491      1.0  0.4722131317760807  0.33900171970870346  0.6909517947434601  1.0000
  H   H492      1.0  0.4843277632648809  0.3804254174775648  0.6702449088879094  1.0000
  N   N26       1.0  0.7036406254916298  0.4422979873386019  0.49711376490519177  1.0000
  C   C389      1.0  0.7128707245500857  0.47907998772162447  0.5076796245666116  1.0000
  C   C390      1.0  0.7055552910862967  0.4390066019802434  0.45779820331320553  1.0000
  C   C391      1.0  0.6670324776083274  0.4337824011959719  0.5088856543303657  1.0000
  C   C392      1.0  0.729119311259263  0.41735371179349007  0.5141285126381465  1.0000
  H   H493      1.0  0.7098066292682796  0.48297695687612435  0.5369714773873333  1.0000
  H   H494      1.0  0.6953177274146771  0.4987253646048965  0.4938757943759261  1.0000
  H   H495      1.0  0.7409730593574942  0.48588191392877395  0.5008957363427791  1.0000
  H   H496      1.0  0.6985028177598666  0.41171950460910767  0.44868339578793803  1.0000
  H   H497      1.0  0.6869801065238369  0.4577609813678107  0.44399794341411286  1.0000
  H   H498      1.0  0.7328802829568026  0.4451934172965077  0.4480926999722777  1.0000
  H   H499      1.0  0.6647245744973329  0.43615827701629006  0.538506657696796  1.0000
  H   H500      1.0  0.6591834798162346  0.40612081541038964  0.5016482440140938  1.0000
  H   H501      1.0  0.6470860493145738  0.4520911024037284  0.49658351406328255  1.0000
  H   H502      1.0  0.7236995462437888  0.38946663592105524  0.5057938336652024  1.0000
  H   H503      1.0  0.7272698624129033  0.4181098772242005  0.543760687033493  1.0000
  H   H504      1.0  0.7572249478992702  0.42393887193879143  0.5072079807730828  1.0000
  N   N27       1.0  0.29315409508483514  0.23575953561182778  0.4956760984975147  1.0000
  C   C393      1.0  0.3253954884584089  0.2514620320767018  0.5126923801991882  1.0000
  C   C394      1.0  0.26168885925627233  0.24334025650938865  0.5177802103715582  1.0000
  C   C395      1.0  0.29771887982957285  0.19691243153656524  0.49252490342970623  1.0000
  C   C396      1.0  0.28781022176673116  0.25131155588705484  0.45966377843014344  1.0000
  H   H505      1.0  0.3496625627139169  0.2464142385125556  0.49671698553305993  1.0000
  H   H506      1.0  0.3302476317162114  0.24015487663070662  0.5398341772717001  1.0000
  H   H507      1.0  0.3228274419058492  0.28072393839969784  0.515893836741746  1.0000
  H   H508      1.0  0.2571110222516792  0.2724462250383559  0.5201709366553292  1.0000
  H   H509      1.0  0.23693203145382402  0.23169877549719825  0.5057146728943139  1.0000
  H   H510      1.0  0.2649051947967086  0.23249510081993863  0.5453819766542496  1.0000
  H   H511      1.0  0.2736805508491966  0.18404132820949923  0.48028031614889033  1.0000
  H   H512      1.0  0.30258489544298744  0.18429269432357798  0.519117264741499  1.0000
  H   H513      1.0  0.32093071495762016  0.19026472694091856  0.4755349691482457  1.0000
  H   H514      1.0  0.31101317676744417  0.2461732872510668  0.44217679563763906  1.0000
  H   H515      1.0  0.28395770860601116  0.28059815782427255  0.46105542267126814  1.0000
  H   H516      1.0  0.26353509399825686  0.24013250430342414  0.446138857820767  1.0000
  N   N28       1.0  0.21226325765847318  0.17108715989795464  0.9796490672613407  1.0000
  C   C397      1.0  0.2066741520721323  0.15793560411277952  0.01644159872174078  1.0000
  C   C398      1.0  0.18334934508822429  0.157714180459682  0.9559394688921811  1.0000
  C   C399      1.0  0.24702321321898887  0.158368958979052  0.9666090108818329  1.0000
  C   C400      1.0  0.2118489432147744  0.21037885083315166  0.9794247883600821  1.0000
  H   H517      1.0  0.22797706762200232  0.16759406762245987  0.03511982579649886  1.0000
  H   H518      1.0  0.20709938815554851  0.12835898103346954  0.017584169073305844  1.0000
  H   H519      1.0  0.18049304659843746  0.1667334211026994  0.02692747292487563  1.0000
  H   H520      1.0  0.18713041495647245  0.16662517980106006  0.9279175371879391  1.0000
  H   H521      1.0  0.18229956378704648  0.1283369214482959  0.9552655603742809  1.0000
  H   H522      1.0  0.1566997694590592  0.16707999427303322  0.9646004472347506  1.0000
  H   H523      1.0  0.26954051618940583  0.16817439426263658  0.9836999046734982  1.0000
  H   H524      1.0  0.25182082637124636  0.16734680971216775  0.9386681921893678  1.0000
  H   H525      1.0  0.24827796911360073  0.12880980127472297  0.9666981010017425  1.0000
  H   H526      1.0  0.21616161030344513  0.22113778954120678  0.9520408969165189  1.0000
  H   H527      1.0  0.23299744642282882  0.22168620365082203  0.9972908564056644  1.0000
  H   H528      1.0  0.18568755476402113  0.22088992362921545  0.9884345608464264  1.0000
  N   N29       1.0  0.9189356972963876  0.5118890120468658  0.9876484628686333  1.0000
  C   C401      1.0  0.9428078564461773  0.48425977598844616  0.002569891339350816  1.0000
  C   C402      1.0  0.9130795873667803  0.5395757082693835  0.014897140987635282  1.0000
  C   C403      1.0  0.8842966916984346  0.49567776377122597  0.977199581064591  1.0000
  C   C404      1.0  0.9354914191668549  0.5279938453833627  0.9557949794640345  1.0000
  H   H529      1.0  0.9318823169488  0.47231503396912905  0.027379019123151327  1.0000
  H   H530      1.0  0.9697750798573166  0.495258830355353  0.009219420118108834  1.0000
  H   H531      1.0  0.9466062810106766  0.46228292416449873  0.9831635478276217  1.0000
  H   H532      1.0  0.938644298168376  0.5523835269982159  0.023503223919628224  1.0000
  H   H533      1.0  0.8952818132671526  0.5609784415577382  0.0044887639215811515  1.0000
  H   H534      1.0  0.9004420875992588  0.5285002890698232  0.039273442467701924  1.0000
  H   H535      1.0  0.8656854386327337  0.5159066671277586  0.9658252885835317  1.0000
  H   H536      1.0  0.8710369809230983  0.4831296943424051  0.0005287317078097598  1.0000
  H   H537      1.0  0.8877608235184952  0.47475502743238374  0.9565090809082643  1.0000
  H   H538      1.0  0.9182052061074749  0.5489544451693764  0.9437504185293348  1.0000
  H   H539      1.0  0.9401156956765041  0.5078139509036547  0.9346936290378126  1.0000
  H   H540      1.0  0.961878139425645  0.5403721222474925  0.9623931053445778  1.0000
  N   N30       1.0  0.5049538628248742  0.1450755958609944  0.7062289174695767  1.0000
  C   C405      1.0  0.5362571399302856  0.12830409542643073  0.6896718596432553  1.0000
  C   C406      1.0  0.4722597116362703  0.13508668976268856  0.685961136569244  1.0000
  C   C407      1.0  0.5093740153823104  0.1841252493414034  0.7055818994300583  1.0000
  C   C408      1.0  0.5018608666571079  0.1328412390122966  0.7436586569258781  1.0000
  H   H541      1.0  0.5394180524903691  0.13715126181271886  0.6614467911309669  1.0000
  H   H542      1.0  0.5338566301923555  0.09885252533745703  0.6896381701796169  1.0000
  H   H543      1.0  0.5614302113133379  0.13534877379390986  0.7042355517843615  1.0000
  H   H544      1.0  0.4674917693186437  0.10588615386498423  0.6863967906692539  1.0000
  H   H545      1.0  0.44813774016944613  0.1478043916488414  0.6972817823997188  1.0000
  H   H546      1.0  0.47400457103603844  0.14330310148889946  0.6574554168097839  1.0000
  H   H547      1.0  0.5333499092796178  0.19258465812270287  0.7214273982148708  1.0000
  H   H548      1.0  0.48583992312901625  0.19768559718230216  0.7170545873468774  1.0000
  H   H549      1.0  0.512744495495713  0.19414771727342695  0.6777828968467663  1.0000
  H   H550      1.0  0.47840601790479786  0.1449634377929545  0.7568286978492784  1.0000
  H   H551      1.0  0.5260600572184763  0.14007773227000375  0.7597938338702193  1.0000
  H   H552      1.0  0.49867148926875043  0.10347948934430562  0.7451599379435407  1.0000
  N   N31       1.0  0.230310379000468  0.6559168408989872  0.2196384179814999  1.0000
  C   C409      1.0  0.21070798681992978  0.6254288406544036  0.23496157100111045  1.0000
  C   C410      1.0  0.25446824616980146  0.671218182173705  0.24724390275837632  1.0000
  C   C411      1.0  0.20453874764094748  0.6831896410080123  0.20757328435534253  1.0000
  C   C412      1.0  0.2514901641397946  0.6438849676942618  0.18890464571258814  1.0000
  H   H553      1.0  0.19202581143043945  0.6132577957976877  0.21502860960767842  1.0000
  H   H554      1.0  0.1943759348554883  0.633632202720207  0.25802777087533285  1.0000
  H   H555      1.0  0.2292462046584576  0.6043949175704316  0.2447403535004578  1.0000
  H   H556      1.0  0.27408302132220425  0.6512347122270308  0.2571713893192643  1.0000
  H   H557      1.0  0.26964299917457957  0.6943592837631384  0.23666196931071273  1.0000
  H   H558      1.0  0.23927697136976808  0.680754758643673  0.27070024998486397  1.0000
  H   H559      1.0  0.21828490189077418  0.7068030392959911  0.19609768175508707  1.0000
  H   H560      1.0  0.18817471400639757  0.6927727919720377  0.2301880374086393  1.0000
  H   H561      1.0  0.1857504866066174  0.6725827714668582  0.18681696568153192  1.0000
  H   H562      1.0  0.2713801706300293  0.6233816146608464  0.19704115427563115  1.0000
  H   H563      1.0  0.2664541698570706  0.6662151169720865  0.17648009691410602  1.0000
  H   H564      1.0  0.23423350350168912  0.6318251185579128  0.16760058256958502  1.0000
  N   N32       1.0  0.5143497812037212  0.7054844177360927  0.430927868862878  1.0000
  C   C413      1.0  0.49131772232762816  0.736996999426533  0.43447840518218545  1.0000
  C   C414      1.0  0.5437900259120348  0.7136962819118445  0.4062621754922422  1.0000
  C   C415      1.0  0.4930598951500287  0.6753882429404174  0.41665212697105425  1.0000
  C   C416      1.0  0.529291592362558  0.6957872680576352  0.4664033521452659  1.0000
  H   H565      1.0  0.47997847601030186  0.7455601081183129  0.40821400492116566  1.0000
  H   H566      1.0  0.5065604848894659  0.7598845183764182  0.4458995792290695  1.0000
  H   H567      1.0  0.46853949064591915  0.7316253513403107  0.4525746536999531  1.0000
  H   H568      1.0  0.5335865705907122  0.722476768040375  0.37962483627493804  1.0000
  H   H569      1.0  0.5614811640873962  0.7351625202926879  0.4170381130633639  1.0000
  H   H570      1.0  0.5608218910213761  0.6900202597901622  0.4018621735450587  1.0000
  H   H571      1.0  0.48137150101871023  0.6816982889645508  0.38987121901596544  1.0000
  H   H572      1.0  0.47070024128250953  0.6684333609428937  0.43475249216973794  1.0000
  H   H573      1.0  0.5098326096366894  0.6511896571562708  0.4137368150443343  1.0000
  H   H574      1.0  0.5459553052489651  0.6714121232109652  0.4648749071101222  1.0000
  H   H575      1.0  0.5078661760976965  0.6907382800556576  0.4861346140265942  1.0000
  H   H576      1.0  0.5464556186793293  0.717483730543525  0.477536039260741  1.0000
  N   N33       1.0  0.4831471694919804  0.740260201546853  0.6484818324836644  1.0000
  C   C417      1.0  0.506543938489318  0.7188638026840111  0.6722514023199122  1.0000
  C   C418      1.0  0.459774543658122  0.762776349403913  0.6703752838968166  1.0000
  C   C419      1.0  0.4609030368779088  0.7163800452527959  0.6260219147421671  1.0000
  C   C420      1.0  0.5052877945549372  0.7629353360389751  0.6252023719336149  1.0000
  H   H577      1.0  0.5237736585060528  0.7360240186550543  0.6895750910049324  1.0000
  H   H578      1.0  0.5242922047224102  0.7012218470831845  0.6566643882932482  1.0000
  H   H579      1.0  0.49067267949322035  0.701564791354173  0.6903287201358105  1.0000
  H   H580      1.0  0.44121797644340904  0.7787161770027616  0.6532986839297423  1.0000
  H   H581      1.0  0.4431621478274334  0.7463904797870315  0.688664021508608  1.0000
  H   H582      1.0  0.47561422522417984  0.781469389379209  0.6873856035118167  1.0000
  H   H583      1.0  0.4427033921958559  0.7315415905804967  0.6078538717730041  1.0000
  H   H584      1.0  0.44384906848851174  0.6990589344713684  0.6426320097089697  1.0000
  H   H585      1.0  0.477547161796987  0.6986977243128792  0.6093382515923463  1.0000
  H   H586      1.0  0.5220975320116203  0.7818141804422251  0.6410150913173057  1.0000
  H   H587      1.0  0.48853744781775177  0.7788136712963082  0.6062390444665945  1.0000
  H   H588      1.0  0.5235621571961281  0.7467033941236423  0.6086857760974059  1.0000
  N   N34       1.0  0.9473717030141017  0.9511174971657825  0.5191410982482564  1.0000
  C   C421      1.0  0.9174311891921878  0.9520253648809305  0.49292929261558593  1.0000
  C   C422      1.0  0.9569902893641873  0.9877736126105988  0.5297678483875193  1.0000
  C   C423      1.0  0.9785849486922745  0.934075192743714  0.502701397487798  1.0000
  C   C424      1.0  0.9366593549023162  0.9306514089654383  0.5510790076462742  1.0000
  H   H589      1.0  0.9084754023405842  0.9248309435473101  0.48530233432576414  1.0000
  H   H590      1.0  0.9252398244831186  0.9659579367384821  0.467864054034283  1.0000
  H   H591      1.0  0.893912146220225  0.9662053348646978  0.5037793212453278  1.0000
  H   H592      1.0  0.9648979207188736  0.003964909048732812  0.5061819602960124  1.0000
  H   H593      1.0  0.9341245154489546  0.0015194349240583715  0.5423941751428565  1.0000
  H   H594      1.0  0.9797344414907788  0.9880391833981464  0.5492461039316032  1.0000
  H   H595      1.0  0.9722761253187  0.9064209281291454  0.4941476813084242  1.0000
  H   H596      1.0  0.0016609381037515636  0.9328290788602804  0.5218294041513235  1.0000
  H   H597      1.0  0.9874685374380371  0.9490482194999446  0.47861117525299296  1.0000
  H   H598      1.0  0.9590372036935818  0.9285949200739784  0.5709404635452396  1.0000
  H   H599      1.0  0.9284058158044903  0.9030887134959311  0.5440212676358375  1.0000
  H   H600      1.0  0.9138104653087152  0.9433020867582772  0.5648279937691743  1.0000
  N   N35       1.0  0.43659285063768605  0.9853460363973783  0.3914109526427327  1.0000
  C   C425      1.0  0.4139122543592591  0.958315494489407  0.40882255474919876  1.0000
  C   C426      1.0  0.4141621331257405  0.015119363640590855  0.37860202262526094  1.0000
  C   C427      1.0  0.4548495263462546  0.9691303739467576  0.36073734729751544  1.0000
  C   C428      1.0  0.46350225907157844  0.9986959016807252  0.4174876865223109  1.0000
  H   H601      1.0  0.43017949666690725  0.9355337108248117  0.4188578663898046  1.0000
  H   H602      1.0  0.39345654434045746  0.9474652249666334  0.3898400761897618  1.0000
  H   H603      1.0  0.39967785516726895  0.9696270366942831  0.4320904266780085  1.0000
  H   H604      1.0  0.4001640434701788  0.028320651935750174  0.4009775953167252  1.0000
  H   H605      1.0  0.43045054577607755  0.03569166176595551  0.3649119010054041  1.0000
  H   H606      1.0  0.3936516222242208  0.006035591258142015  0.3587338903864112  1.0000
  H   H607      1.0  0.43548068184082434  0.9605094886129291  0.33958214081080035  1.0000
  H   H608      1.0  0.4706280119848496  0.9454506917162909  0.3691625967725774  1.0000
  H   H609      1.0  0.4735166552682199  0.9883367824829927  0.34797341827528416  1.0000
  H   H610      1.0  0.48178134767065817  0.01841344909483933  0.4050317005063588  1.0000
  H   H611      1.0  0.4803694548977178  0.976718229690874  0.42819198063353947  1.0000
  H   H612      1.0  0.4507567132015094  0.011825788576780294  0.4406437170088493  1.0000
  N   N36       1.0  0.5274073550781357  0.1543881854480374  0.47848066292479113  1.0000
  C   C429      1.0  0.5396857942895691  0.11731948876584887  0.4825955991576694  1.0000
  C   C430      1.0  0.49206367360323316  0.1583113146433025  0.49510350324363345  1.0000
  C   C431      1.0  0.5245975228884736  0.16324961178503594  0.44001260838169604  1.0000
  C   C432      1.0  0.5533011054246975  0.17865762469079938  0.49617099356902034  1.0000
  H   H613      1.0  0.5663083706449166  0.11343509173460248  0.4702839023616032  1.0000
  H   H614      1.0  0.5209523045094905  0.09832765799043118  0.46918376154795505  1.0000
  H   H615      1.0  0.5419866030394143  0.10962086785328812  0.5113036593085982  1.0000
  H   H616      1.0  0.4818770932745501  0.18589181327574858  0.49203757085324396  1.0000
  H   H617      1.0  0.4718450767688147  0.14023516433741143  0.48259163046183184  1.0000
  H   H618      1.0  0.49325797307831853  0.1522768267145784  0.5242907424908406  1.0000
  H   H619      1.0  0.5150513878483413  0.19093566354126237  0.4356641516369694  1.0000
  H   H620      1.0  0.5053780156488896  0.14534964214629442  0.42581584313446424  1.0000
  H   H621      1.0  0.5507899611512953  0.16068895044127618  0.42658245524477356  1.0000
  H   H622      1.0  0.5557124369631101  0.1730239243947422  0.5253941592738389  1.0000
  H   H623      1.0  0.5450684310788446  0.20690812515989537  0.4931804640766211  1.0000
  H   H624      1.0  0.5803884113128995  0.1761750961847881  0.48459163832413493  1.0000
  N   N37       1.0  0.4792241050645568  0.4612656345417459  0.9664140481957258  1.0000
  C   C433      1.0  0.5118798396579978  0.4500942069124186  0.9859905898452295  1.0000
  C   C434      1.0  0.4614608702165377  0.42978674144857454  0.9504521058892536  1.0000
  C   C435      1.0  0.48876165299365176  0.48658052093640924  0.937784566108404  1.0000
  C   C436      1.0  0.4545840815232017  0.4785251878893468  0.9914456216028728  1.0000
  H   H625      1.0  0.5254926982997983  0.4729864476362088  0.9993108001299227  1.0000
  H   H626      1.0  0.5314619675199549  0.43753892754722945  0.9679122447084094  1.0000
  H   H627      1.0  0.5056652959932306  0.4303525901159579  0.007276756095655257  1.0000
  H   H628      1.0  0.4366202440521934  0.43731443890584254  0.9355611945183449  1.0000
  H   H629      1.0  0.47923612499154694  0.416042282459761  0.9313622688157167  1.0000
  H   H630      1.0  0.45376413262696097  0.41021728813889763  0.9714117479345371  1.0000
  H   H631      1.0  0.4647619918852934  0.49466056573107836  0.921902263952222  1.0000
  H   H632      1.0  0.5079880587976917  0.4748216078998574  0.9187762198423041  1.0000
  H   H633      1.0  0.5011311687342739  0.5112205607365913  0.9489500006838851  1.0000
  H   H634      1.0  0.4294873401355946  0.4868759812019585  0.9776275111055757  1.0000
  H   H635      1.0  0.4666695396298261  0.5027384775158013  0.0038407818143704198  1.0000
  H   H636      1.0  0.44699117394788995  0.46022534848940655  0.013520307116096753  1.0000
  N   N38       1.0  0.9716193067830875  0.7935379870295846  0.2891740160895755  1.0000
  C   C437      1.0  0.9861747941085295  0.8182078982176142  0.2621932008363743  1.0000
  C   C438      1.0  0.9732747816314622  0.7567083797853525  0.27563856136025766  1.0000
  C   C439      1.0  0.934089773211043  0.8029048800794107  0.2961867564728251  1.0000
  C   C440      1.0  0.9929661337463339  0.7964102873452507  0.32263167283670446  1.0000
  H   H637      1.0  0.014229502595585641  0.8114867965899563  0.2557683781871338  1.0000
  H   H638      1.0  0.9864020509105177  0.8461654087039681  0.27196041436111473  1.0000
  H   H639      1.0  0.9703116148969431  0.8174625335056201  0.23683987647863547  1.0000
  H   H640      1.0  0.0010743593409774377  0.7492616760444624  0.26852831260505283  1.0000
  H   H641      1.0  0.9638389795325915  0.7372055246657777  0.2958315654236934  1.0000
  H   H642      1.0  0.9562835030839155  0.7532115246387778  0.25121297358326355  1.0000
  H   H643      1.0  0.9173391333429277  0.8010103555480965  0.27134157588833174  1.0000
  H   H644      1.0  0.9319743601448317  0.830611974572204  0.3063238612718999  1.0000
  H   H645      1.0  0.9221630047329775  0.7848424795019004  0.3164073928609066  1.0000
  H   H646      1.0  0.9826300761483782  0.7785294568381466  0.34384670178856824  1.0000
  H   H647      1.0  0.9930266261815864  0.8240783184651579  0.3331902897344423  1.0000
  H   H648      1.0  0.02140014878779506  0.7893026963849883  0.3181847568095062  1.0000
  N   N39       1.0  0.5002733916274958  0.9908333773878666  0.9400174279522155  1.0000
  C   C441      1.0  0.47643570042874184  0.019292612422704636  0.9267552026703347  1.0000
  C   C442      1.0  0.5167408723117706  0.001821446181481834  0.974448506332021  1.0000
  C   C443      1.0  0.5285948822603304  0.9844930634925291  0.9136581721841744  1.0000
  C   C444      1.0  0.479271236559083  0.9579177121793149  0.9452596650674228  1.0000
  H   H649      1.0  0.46354862026887045  0.011920240014773542  0.900778082568078  1.0000
  H   H650      1.0  0.4914525999508092  0.04457592683312339  0.9226160281194107  1.0000
  H   H651      1.0  0.45474525588430553  0.024744621002621647  0.9460606646288531  1.0000
  H   H652      1.0  0.5325597350471676  0.026739257213857615  0.9714601860843964  1.0000
  H   H653      1.0  0.4961817358660441  0.0067311764547359765  0.9950025292868697  1.0000
  H   H654      1.0  0.5350127845997273  0.9810089002140551  0.9853382089991856  1.0000
  H   H655      1.0  0.5479853777535872  0.9642201497871856  0.9234052206646708  1.0000
  H   H656      1.0  0.5441102271247222  0.009201244881418935  0.9082280317456075  1.0000
  H   H657      1.0  0.5173293262909582  0.9749473934636019  0.8876974717489562  1.0000
  H   H658      1.0  0.45737438237210043  0.9620043508881807  0.9646516637653878  1.0000
  H   H659      1.0  0.4962162494576859  0.9360210469963962  0.9559052136034613  1.0000
  H   H660      1.0  0.46683553366679237  0.9484443852427912  0.9197851997178431  1.0000
  N   N40       1.0  0.7091978675525076  0.9514206243859223  0.6724459360016036  1.0000
  C   C445      1.0  0.7136887084489942  0.9304785983714897  0.6394029592411684  1.0000
  C   C446      1.0  0.7442174823760751  0.956076696894298  0.6907067934326212  1.0000
  C   C447      1.0  0.6845598787867324  0.9324626278616749  0.6965417254070215  1.0000
  C   C448      1.0  0.6940739616288149  0.9865570705645629  0.6633345552230497  1.0000
  H   H661      1.0  0.7255541209767594  0.9040124031542677  0.6451637851529893  1.0000
  H   H662      1.0  0.7315935151407837  0.9442629431575262  0.6202718969256372  1.0000
  H   H663      1.0  0.6876409968202796  0.9258689032689371  0.6253220872773313  1.0000
  H   H664      1.0  0.7415015027035621  0.9703918406034875  0.7165389170372124  1.0000
  H   H665      1.0  0.7571369798346492  0.9301353221194378  0.6966606309393436  1.0000
  H   H666      1.0  0.7631985435093092  0.971603875675534  0.6740974889485424  1.0000
  H   H667      1.0  0.6951722620140632  0.9059135270838289  0.7041991878289949  1.0000
  H   H668      1.0  0.6579031530060457  0.9283295256238726  0.6835476620531463  1.0000
  H   H669      1.0  0.6804107825515665  0.9477227664571757  0.7216643684160632  1.0000
  H   H670      1.0  0.7120087149883745  0.001971682115528006  0.6455622310313309  1.0000
  H   H671      1.0  0.6900207857255519  0.002923183535115337  0.6877081211211805  1.0000
  H   H672      1.0  0.667845786728013  0.9839634718979152  0.6491507642590314  1.0000
  N   N41       1.0  0.07769438466381651  0.6894789389891665  0.6717433039051043  1.0000
  C   C449      1.0  0.04727463969309631  0.6642602282553683  0.6715019046046445  1.0000
  C   C450      1.0  0.06489121182395219  0.7253292587747254  0.6809756265809863  1.0000
  C   C451      1.0  0.09406322321575411  0.6904703016010786  0.6360003721081593  1.0000
  C   C452      1.0  0.10463948039824111  0.6779870098590819  0.698587243870319  1.0000
  H   H673      1.0  0.05579059203200565  0.6370084535663296  0.6640274515025664  1.0000
  H   H674      1.0  0.026072889330661875  0.672595864275732  0.652101977262976  1.0000
  H   H675      1.0  0.034906042025803385  0.6623555821556729  0.6983951321765332  1.0000
  H   H676      1.0  0.050282750078715965  0.7251783605142875  0.706559535902685  1.0000
  H   H677      1.0  0.0874738976252496  0.7444711695432816  0.683900300438142  1.0000
  H   H678      1.0  0.04646377473212282  0.7361128183938481  0.6600245303759478  1.0000
  H   H679      1.0  0.07484036378512315  0.7001146509930125  0.6151886486726647  1.0000
  H   H680      1.0  0.10353802699317649  0.6637918488168197  0.6277538818845904  1.0000
  H   H681      1.0  0.11743064281391291  0.7088753496233984  0.6355809476188388  1.0000
  H   H682      1.0  0.09337589201453267  0.6775464025244675  0.7259630000166866  1.0000
  H   H683      1.0  0.12812943915026964  0.6962639712395092  0.6992149117561874  1.0000
  H   H684      1.0  0.11447262433022298  0.6507792919731435  0.6928578712719605  1.0000
  N   N42       1.0  0.2244210554948625  0.42861112148438446  0.15681766681369513  1.0000
  C   C453      1.0  0.2627896210860921  0.4202554832180536  0.1611177324564521  1.0000
  C   C454      1.0  0.22047797162558144  0.46491045061877884  0.1423196618039282  1.0000
  C   C455      1.0  0.20699999890564602  0.42645582701007717  0.19200309722443243  1.0000
  C   C456      1.0  0.2074228486881246  0.40304185878160453  0.13179308837585735  1.0000
  H   H685      1.0  0.2768592621142746  0.42171536306398627  0.13511415368800384  1.0000
  H   H686      1.0  0.2668266457877488  0.39311672371965456  0.17221892434322505  1.0000
  H   H687      1.0  0.27640808011223617  0.4392227674762065  0.17971185673902745  1.0000
  H   H688      1.0  0.1918766833945563  0.4719926148059036  0.1382027444601741  1.0000
  H   H689      1.0  0.23269462398384053  0.4848657277770739  0.16057856528107362  1.0000
  H   H690      1.0  0.23389687672771542  0.4677566719171653  0.1161564462750233  1.0000
  H   H691      1.0  0.17805145352654916  0.43283700825254  0.18980415129291894  1.0000
  H   H692      1.0  0.21933451425857797  0.4454825403286052  0.211463710118454  1.0000
  H   H693      1.0  0.20944661123194055  0.3994355558266701  0.203872061501021  1.0000
  H   H694      1.0  0.17841214045780796  0.40863391040132835  0.1279589018045304  1.0000
  H   H695      1.0  0.20991404724857757  0.37526015133226986  0.14165189507146314  1.0000
  H   H696      1.0  0.21973965783853963  0.40441078869450536  0.10485441000179208  1.0000
  N   N43       1.0  0.17218595982739537  0.953681717914119  0.8765055017787133  1.0000
  C   C457      1.0  0.16942373423274742  0.9873816873365272  0.8563941725630545  1.0000
  C   C458      1.0  0.20533928114877792  0.9539831772333318  0.8985208202014908  1.0000
  C   C459      1.0  0.17294814981478868  0.9236269097889372  0.8511243435168565  1.0000
  C   C460      1.0  0.1409854176948994  0.949975972652191  0.900005143089772  1.0000
  H   H697      1.0  0.14457976193373887  0.9885275193455756  0.839687635811744  1.0000
  H   H698      1.0  0.1924175276992886  0.9911020871528476  0.8381915060839824  1.0000
  H   H699      1.0  0.16949232203447737  0.010584180553036449  0.8748166829826944  1.0000
  H   H700      1.0  0.20898537244963872  0.9286485374385626  0.9134529192116436  1.0000
  H   H701      1.0  0.22937310492855606  0.9582777752555663  0.8817668356659115  1.0000
  H   H702      1.0  0.20523552041491555  0.9759085732397901  0.9184973507736763  1.0000
  H   H703      1.0  0.14895432023967828  0.9234501750501543  0.8330718948673762  1.0000
  H   H704      1.0  0.17379414802857376  0.897646997403401  0.8653261240877739  1.0000
  H   H705      1.0  0.19682465311023847  0.9250908387857927  0.8337934218513198  1.0000
  H   H706      1.0  0.14230453110799354  0.9250179579086346  0.9159630126306914  1.0000
  H   H707      1.0  0.11555270282488733  0.9495551479105587  0.8841671645349916  1.0000
  H   H708      1.0  0.1395192944992959  0.9725416482426719  0.9191845676316586  1.0000
  N   N44       1.0  0.19042097823013793  0.4333039530483872  0.4844450165102498  1.0000
  C   C461      1.0  0.1594803612849436  0.4123234087503377  0.47122100721357074  1.0000
  C   C462      1.0  0.20165581081531117  0.4200034718477302  0.5200536327238368  1.0000
  C   C463      1.0  0.18036517341062508  0.47111460751308065  0.4872097450342801  1.0000
  C   C464      1.0  0.22026105143580543  0.4297391593271657  0.4592878926764835  1.0000
  H   H709      1.0  0.1362466460790044  0.41472729764749683  0.4892462843631968  1.0000
  H   H710      1.0  0.16601624652470676  0.3835515293451629  0.4694659894620771  1.0000
  H   H711      1.0  0.150745967177108  0.4211557755724471  0.44407761891863534  1.0000
  H   H712      1.0  0.22401221842696054  0.43617696751370766  0.5314829468657598  1.0000
  H   H713      1.0  0.17918577528966348  0.42062426416915033  0.5392908012950813  1.0000
  H   H714      1.0  0.21102122961397166  0.39206647782946413  0.5185204481817804  1.0000
  H   H715      1.0  0.20331679143822273  0.4877409074008186  0.4967550563756314  1.0000
  H   H716      1.0  0.15799647267456615  0.4748344286805039  0.5061008581453015  1.0000
  H   H717      1.0  0.17202291741091177  0.48207024539114013  0.46075388879979906  1.0000
  H   H718      1.0  0.2441338074980978  0.4452505258058417  0.4683601080751994  1.0000
  H   H719      1.0  0.2127326521130913  0.4398170215869576  0.432252219681613  1.0000
  H   H720      1.0  0.2284248679869973  0.40153330234456464  0.4562709364596859  1.0000
  N   N45       1.0  0.6548580627335079  0.723039461740905  0.9415171913456527  1.0000
  C   C465      1.0  0.6404779514914895  0.746478711892472  0.9130184197472392  1.0000
  C   C466      1.0  0.6941989636842352  0.7266729442839885  0.9435017126997572  1.0000
  C   C467      1.0  0.6449854433834469  0.6857823726213131  0.9335312528417509  1.0000
  C   C468      1.0  0.6397427575286094  0.7333751544101341  0.9762059017064348  1.0000
  H   H721      1.0  0.6475421558842407  0.7748188673492729  0.9180975607499986  1.0000
  H   H722      1.0  0.6107881571176424  0.744755890355899  0.9111352671371369  1.0000
  H   H723      1.0  0.6510542553207063  0.7392463597929309  0.8863617164978281  1.0000
  H   H724      1.0  0.7068034114413768  0.7188171588750251  0.9179656004020751  1.0000
  H   H725      1.0  0.7024422320509788  0.7545888170392072  0.9493554818537814  1.0000
  H   H726      1.0  0.7059181454432764  0.7099004135740796  0.965248053795407  1.0000
  H   H727      1.0  0.6551978068949202  0.6673644200288503  0.9545911627138005  1.0000
  H   H728      1.0  0.6558859829704877  0.6770337966654844  0.9074670462697229  1.0000
  H   H729      1.0  0.6154314489967071  0.6822478427761804  0.9318106893261181  1.0000
  H   H730      1.0  0.650160583868148  0.7165773744511545  0.9985074965633013  1.0000
  H   H731      1.0  0.6102106029979425  0.7312705702352248  0.9760885880093675  1.0000
  H   H732      1.0  0.6464309678663034  0.7613649216215715  0.9827295659779036  1.0000
  N   N46       1.0  0.4508316018875949  0.18663491043766345  0.19041603060627432  1.0000
  C   C469      1.0  0.42422402659362907  0.15852681470554564  0.1979151126256154  1.0000
  C   C470      1.0  0.45210781472548567  0.2122283950988435  0.22036506820301596  1.0000
  C   C471      1.0  0.4406220088881481  0.205419726372162  0.15706981607534679  1.0000
  C   C472      1.0  0.4864250037004655  0.17048169585608908  0.18616263725134244  1.0000
  H   H733      1.0  0.4215024765373367  0.1396001240496052  0.1751440987482297  1.0000
  H   H734      1.0  0.3972796135188896  0.16982233115770762  0.202478012834699  1.0000
  H   H735      1.0  0.431810475958605  0.14285323333693856  0.22213851439187435  1.0000
  H   H736      1.0  0.46162618038509895  0.19947268559167308  0.24565296552401353  1.0000
  H   H737      1.0  0.4705250334653249  0.23478646395435865  0.21460858767891716  1.0000
  H   H738      1.0  0.42538794087468246  0.2237933151820637  0.22547180164214758  1.0000
  H   H739      1.0  0.4602894805149454  0.22673857749539295  0.15057639153838404  1.0000
  H   H740      1.0  0.4139770605677742  0.21811928386078194  0.15935823913531774  1.0000
  H   H741      1.0  0.4393072480342236  0.18686170948523362  0.1338987354006947  1.0000
  H   H742      1.0  0.5070748292269558  0.19100728864624772  0.1803737764416842  1.0000
  H   H743      1.0  0.4864644274576952  0.15089880785879872  0.16390876543986505  1.0000
  H   H744      1.0  0.49532200535931664  0.15628761092441978  0.2108728427028776  1.0000
  N   N47       1.0  0.4327615267690902  0.6828189745462572  0.9552577428093152  1.0000
  C   C473      1.0  0.4166917619162799  0.7019149583609219  0.9854990684220744  1.0000
  C   C474      1.0  0.4420364726149891  0.7084096672400851  0.926789678662672  1.0000
  C   C475      1.0  0.406977622224141  0.6563749508624936  0.9409591983776683  1.0000
  C   C476      1.0  0.4654214959140961  0.6645035983152354  0.9678513040978506  1.0000
  H   H745      1.0  0.4094842052345486  0.6832430307731298  0.007459172136702108  1.0000
  H   H746      1.0  0.39194486381240473  0.7160608380885428  0.9770046480289438  1.0000
  H   H747      1.0  0.43551636127050797  0.7220751332090233  0.9968994386367205  1.0000
  H   H748      1.0  0.4545323147243034  0.6948100036627854  0.9037242284074297  1.0000
  H   H749      1.0  0.4180963716916804  0.722702210503495  0.9164234874688085  1.0000
  H   H750      1.0  0.46141906284038386  0.7288116059996844  0.9366914000188559  1.0000
  H   H751      1.0  0.3821204616580695  0.6692176418003029  0.9308452041290122  1.0000
  H   H752      1.0  0.39918304652146114  0.6368247139936696  0.9619087144591073  1.0000
  H   H753      1.0  0.4184982490621899  0.6410800529016287  0.9184436307675695  1.0000
  H   H754      1.0  0.47836799902948013  0.6499591598132494  0.9456336167217446  1.0000
  H   H755      1.0  0.45938236210939865  0.6448332667683726  0.9892842273161422  1.0000
  H   H756      1.0  0.4855389382052799  0.6836030944059261  0.9787703438054263  1.0000
  N   N48       1.0  0.1948311408053649  0.1675437395088881  0.6804569447233618  1.0000
  C   C477      1.0  0.20090361868148943  0.1734727711719758  0.6419316288434262  1.0000
  C   C478      1.0  0.19763037655224003  0.20172447794469578  0.699771390963429  1.0000
  C   C479      1.0  0.22197128746150852  0.14274537334793863  0.694777015581213  1.0000
  C   C480      1.0  0.1588128675289091  0.1522063061916621  0.6853585324265846  1.0000
  H   H757      1.0  0.19968432820512616  0.14816617443679903  0.6266743686524627  1.0000
  H   H758      1.0  0.2275036043923513  0.18586758494075478  0.6373468330029501  1.0000
  H   H759      1.0  0.18058073416319442  0.19175399250804895  0.6301545833092204  1.0000
  H   H760      1.0  0.19218259979410401  0.1984360618026316  0.7287867938918704  1.0000
  H   H761      1.0  0.22490826223857763  0.21338513498392814  0.6979178463600859  1.0000
  H   H762      1.0  0.17858712439649604  0.22169739109767547  0.6887814134190059  1.0000
  H   H763      1.0  0.21940581306178752  0.13940820805126544  0.7241697765673447  1.0000
  H   H764      1.0  0.24952018555111644  0.15270087533645257  0.6899208135559934  1.0000
  H   H765      1.0  0.21945560450609847  0.11597115904081833  0.6824394042674138  1.0000
  H   H766      1.0  0.15574603089487926  0.12628588967000315  0.6713319853154442  1.0000
  H   H767      1.0  0.13768630815388683  0.17039744848808813  0.675089707624801  1.0000
  H   H768      1.0  0.15343564679453103  0.1470509172952924  0.714073191272546  1.0000
