data_image0
_chemical_formula_structural       FeS2HFeSHS2H4FeS2FeSCFeSFeS3FeH2SH2CFeSFeSH2FeS2FeS2FeSFeS3HCHC2H5C3HSCHCH2CH3CH2SH2SHCH2CHNC2HC6H5C4H5C2SC5H3C6H4C3H2CH4NC4H14C2HCNH3C4H3NC4H6C2HCSH9CFeC2HCH3CH2CHCHSNC2HSHFeNC2H3CHSH3CSNCH4C2HCH2C2H2C3NSHS2HFeS2FeS2FeSFeS3FeHSHC2HSNFeS2FeSFeS3FeS2FeSFe2SFeS3H6SHCHCSFeSH3CHFeSHSCH2C2HC6H4CHCSCH4C2H3C6H4CH2C4H3C6H4C6H4C6H6C3NH3NC4H12NC4H13SH2NH2FeS2H3CHC2HSC2H4NFeNCH2SH3CHC3FeH4C2HCHCH3NC4H12CH2NC4H3SHNHSCH3FeH3SH2CH2FeH4CNH3C2HCSCH7C2H5SCSC2FeS2FeS2FeSFeS3FeS2HS3H3FeS2FeS2FeS2FeS2FeSFeS3FeCSH2FeCH2CSHSC6HCHC3HFeHCH2CHC5S2HC7H4CHC6H4C2H2C3H3C6H4C6H6C2H3NC4HNH7CFeH3NFeCH2SHNC3H3CH7CH2CH5C2H3FeH4NC4H12NC4H8SH5SC2H5CH8C2SHC2H3SHFe2HCHCFeN2SC3SHCH2CFeHCH3CH4CH5SHC2FeH2FeHSH2S2FeS2FeS2FeSFeS3FeS2FeS2FeSFeS3HSFeHCFe2SCFeH2SC6H4CH2C3SH4C2HC4H2CH3C6H6C6H4CH2NC4H12CHCSH3CHS2NC2SC2HC2HCHC4H5NHNHC2H5CH7NCH2C2H2NHC2HCH3SH7NCH3CHCH3CHC2H2FeH3CHCHSH3C3SNSCHC2H3C3FeS2FeS2FeSFeS3FeS2CHC2NSFeS2FeS2FeSFeS3H6C2HSCH3CSH2C3FeCHC6H4C6H4C2H2C2H3C5H4C2HC2HCNFeH2C2SH7CH7NHCHFeNC4H11NH3CHSH2CHCHC2HCNCHCHC2H3CH4CHNHCH4CH2CH5CHCH2CH6CHSH3CH5SCFeHCHSCSHCSHFeSFeSH2FeS2FeS2FeSFeS3CHSFeS2FeS2FeSFeS3FeS2FeS2FeSFeCS2H2CH3CH2CHC2HC3HCH2SHC6H6C4H4C6H2NHC6H5C3H8SNH2CNHCH2CHC6H4C6H4CH3SNC4H5CH7CHFeH2CH3CH3FeCHNH2CFeHC2H2CH2CH2SHCNC4H17CHCHC3H2CH2FeCHC2H3CHSH3CSHNC4H5NH5CH3NHCFeH3C2SHC2HCHCH3CH2C5SHSH6FeS2FeSHFeHFeS3H2CHS2FeS2FeS2FeCFeS3FeS2FeS2FeSFeS3C4H2C7H4C6H4C6H4C6H5C6NH4C6H4CH5NC4H12CHCH2CHC2H4CHSCH6C2H5SHNHNC4H13C2H2NHCHNHNH3CHCH4FeCH3C2SHNC2H2CH2C4HSH5CH3CHFeH4CNHCSH3CH4CHCHFeSH2CHS2H2CNSCFeS2FeS2FeHFeS3FeS2FeS2FeSFeS4C6H4C6H3CHC2SH2C6H4CHCHC3HFeH4CHC4NCH3SC2HC2H5FeSHCHCHCH2FeCH2NC4H12NC4H14NCH3CNSHCHCH3CSH3CHFeHCH2C3H2CH2SCH3CHSHSHFeH4SH3FeS2FeS2FeSFeS3CSCFeS2FeSHFeSFeS3CH2FeS4HFe2S3HS2FeS2FeS2HSCHFeS2HC6H4C3H3SH3C3NH2FeC6H5C4H3NFeH4FeC6H4C6H4C6H4C2H3SNC4H12NC4H2SH14CH5CH4C3H2NC4H12NC3H2CH6CHNH3CFeHC2FeH5NH2CHCHFeCNHSCHC2H2CH4CNHCH4CHCNHC3FeH4SH2CH2CHCSCH2C2H7CHSH3CHCH2FeCHCFeSHFeS2FeSFeSFeS2C2FeSFeSHSCSH3C4HC2H4C6HCSHC6H4CH2CSFeH2C2H7SHNH3C5H2CHCHNH2CH2C2H5SHC3H2NC4H12CH5SHSHC2SHSH4SHSFeHCFeCHCH2C2H2CH2CFeS2FeS2FeSFeS3HNSH2CFeHSH2SFeHSC2FeSHSC6H5C2H3CH3C4HC5HNCH3C6H4C2HCHCH2CH2CSCHC4H2SC2H5CHSHNH7C2H3SHCFeH4NHSH2CHNHNFeCHCFeH6SHC2H2CH3CHCHSH2SCH3CH5FeSCHC3SH2CSHC2H7CHFeHSH2FeS2FeS2FeSFeS3C2FeHFeSFeS2FeSNFeSFeS3H2SH2FeSCSFeS2FeS2FeSFeS3HSC2H2SCH4C2H3CH2CHC6HC2H4C6H4CNCH2C6H5CH5CHC6H4C6H4C3HC2HSH3C3SCH3CHNC4H12NC4H13SC2HC2HFeS2HNC4H12SCH3CH4CH2S2HNHC3FeCNC4H12NHC3H3NC3H12C4FeNH4CH2CH8CH2CH2CHCHCHCH2FeC2HCHCSCFeS2FeS2FeSFeCS2FeCHCS2CH2FeSHFeS2FeSFeS3CHSHSHFeS2FeS2FeSFeS3C2NH2CH3SH2C6H5S2C6H6C6H4FeC2HCSH3C6H4C3FeHCHCHCHNC4H14C2HCSH2CHCNH4SNC4NFeH2CH9CH2CNH4C2H2SC2H2CH4CH2SH4NHCH2CHCH2CH4CHCH2SCH2C2FeH6FeS2HSHSH5SFeS2FeS2FeSFeS3FeS2FeS2CFeSFeSH3CFeHC6H4C6H6C3H4C6H6C3NC5HC4H2CH7CSH2SHFeNFeH5CH3CH3CH5CHNH6C2HNH2NH2CH9CHC2HC2HNCHCH2SHC2HC2H2SHCHCHFeHCH2C2HC2H2NC2HSCH6CHCH6C2H2SCHCH4CFeSCH4C2SH2CSH3SFeSCFeSFeS2FeSFeHS2NCFeSHC3FeHSNSHSHC3H4C6H3C6H2SHCH2CH4C7HSH3SHSCH5CH2SH2CHNHCHCHCH2FeH2C3SH2CH8CFeH3NFeHCH3CH4SC2NSCH6S2FeHNHSCH2FeS2FeS2FeSFeS3FeHSH2CFeH2S2CFeS2FeS2FeS2FeSFeS3FeS2FeS2FeSFeS3CSCHCH4C2H2NC2HCH2C6H4C6H4C7FeH2C6H4C6H4CNC2HC2HC2H6FeC3H5C3H4CH2NC4H12NHC2H4CH4SH4CFeH3CHCH6SHCNC4H11CHCSCH5C2H4NCH2SH2CHCH5C2HCH2SC2HSNH2CHCHCNC3H5CFeH2C2H5CH2CH3FeCHC2SH4CH2FeH7SC2H7FeS2FeS2FeSFeS3HSHC2H4C2SCFeS2FeS2FeSFeS3HCHSCHSH2CSHCHC2H6NH2CHC6H4C5H3CHC6H4C6H4C4H4CH2CHFeC2HCHCSHCH4NH3CH7CSHCH3CHFeHC2HCHNC4H19CNCH3FeHFeSCSCHSH3CH2CH3C3H2C2H4C2NHNH2C2H3CFeHSFeHSFeSHSH2SHFeS2FeS2FeSFeS3FeS2FeSHFeSFeHS2CHC3FeS2H2FeH2SH3CHC2SCH2C6H5SH5C6H4SC2SC6HNH2C6H4C6H4CHCNHC2SC3HNHC2HCH7CN2CH2SH4C2H2NC4H12SH2C2H3SH5CHCSC2H8CH3CH4CHCHCHC3NCNHCH2FeHCH3FeCH3CH2NHC2H3SH3FeH2SFeS2FeS2FeSFeS3FeCSH2SFeS2FeS2FeSFeS3FeS2FeS2FeSFeS3CNH2CHNC2H3C6H4C2HCHCHC2HC2H2C6H4C3FeH4SC6H4C6H4CH9C6H4C6H4CH10SH3CH3CNC4H12CH3CH4CNC2NCNC4H12CSCSCHSC2FeH3FeH3NHCSH3SCH3SNCNHCH2CFeH7NH2C3H3CH2CH3C2HC2H2CH3CH3CH5FeS2FeS2FeSFeS3HSHS2FeSH3CH2SHFeS2FeS2FeSFeHS2H4NH6CHCH2CHCHFeHSC4HC3HC6H11C6H4C6H4C6H4CHC2H5NC4H14CNH2NH2CHCHC2H2NC5H3CHSHCHCH2SC2H7C2H4NC4H9SH3CH5CHSFeH2CH2CNHCHCH6CNHCH2CH4FeS2FeS2FeSFeS5H2FeS2FeS2FeSFeS3HSHFeS2FeSFeS3C2H4C2H4C4HCHCH3C2H2C6H4C6H7C2H2CH2C6H4C4H7CHCHCH2C2HC2HCHCH3C2H2CH2C2HNHCHNH2FeNC4H4CNCH2CH3FeH2SH3CH5NC2H2CH4CH4NHCHCH3CHSCHNHCHNHCH3NSH2CHCFeSCHCH6CHCSHFeS2FeS2FeSFeS3HFeS6HSHSHSHCFeSCFeS2FeSHFeSFeS3H2SHSH5C2FeH2C6H7CFeCH4SC4HCH2C7H3CH2C6H4C6HSH2C6H4CHC3H2CHFeH3CHN2C2H2NCHNCH4CHCHNH2FeH7CHSH7CH2SFeH4NC4H6CH7CH2C3H2CHCH3C2HCHCHFeH8CFeCSCNCH3CHNHNSHCH5CH5NCSCSHSH2CHC2HCH3CH3CFeS2FeS2FeSFeS3FeS2HCHCNHFeS2FeSHS2FeS2FeS2FeSFeHS2FeS2FeS2FeSFeS3HSHFeHSFeHSHFeSHSHFeC2H2C2SC6H4C6H2CNCSHC6H5C2H2C3H4CHC4NH3C6H4C6H4C6H9C3HCH4CHSC3HCH2CHSH2NH2NC4H13NC4H12NC4H15FeH2C2H4NH6C2H5C2HCH3CH3CFeC2H2SHC2SC2NC2H5SH3NCHFeHCH4CH3CSC2HS2H3FeS2FeS2FeSFeS3CHCH3FeS2HFeSFeHSCHS2FeH2CH3C6H7CH2C6H4C6H7NFeHC2FeCH4CHFeHCSCHSHCNC4HC3H2CH4C3H2FeH2CS3HC5HNH3Fe2H2CHSH2SC2H3CH2FeCH4NS2CH3SHNH3CH3CH2CHSH4CHSHNFeC2H2CHC2HCH2FeCSH7FeC
_chemical_formula_sum              "Fe384 S768 H3072 C1920 N192"
_cell_length_a       85.1279
_cell_length_b       85.226
_cell_length_c       85.458
_cell_angle_alpha    75.0153
_cell_angle_beta     75.0511
_cell_angle_gamma    74.9204

_space_group_name_H-M_alt    "P 1"
_space_group_IT_number       1

loop_
  _space_group_symop_operation_xyz
  'x, y, z'

loop_
  _atom_site_type_symbol
  _atom_site_label
  _atom_site_symmetry_multiplicity
  _atom_site_fract_x
  _atom_site_fract_y
  _atom_site_fract_z
  _atom_site_occupancy
  Fe  Fe1       1.0  0.39637  0.27828  0.09245  1.0000
  S   S1        1.0  0.39358  0.27390  0.06868  1.0000
  S   S2        1.0  0.38708  0.26350  0.11733  1.0000
  H   H1        1.0  0.37793  0.05768  0.23042  1.0000
  Fe  Fe2       1.0  0.42058  0.27471  0.06012  1.0000
  S   S3        1.0  0.43831  0.25653  0.04546  1.0000
  H   H2        1.0  0.48713  0.21026  0.05698  1.0000
  S   S4        1.0  0.42393  0.27617  0.08476  1.0000
  S   S5        1.0  0.14080  0.31264  0.00289  1.0000
  H   H3        1.0  0.47887  0.20411  0.08762  1.0000
  H   H4        1.0  0.30303  0.29484  0.06880  1.0000
  H   H5        1.0  0.43001  0.28249  0.01481  1.0000
  H   H6        1.0  0.44607  0.18667  0.08106  1.0000
  Fe  Fe3       1.0  0.44341  0.18233  0.13516  1.0000
  S   S6        1.0  0.43071  0.18048  0.16179  1.0000
  S   S7        1.0  0.43032  0.19189  0.11396  1.0000
  Fe  Fe4       1.0  0.47729  0.16635  0.14330  1.0000
  S   S8        1.0  0.46743  0.16326  0.17065  1.0000
  C   C1        1.0  0.40188  0.99503  0.18623  1.0000
  Fe  Fe5       1.0  0.44661  0.15486  0.16545  1.0000
  S   S9        1.0  0.43723  0.13199  0.18105  1.0000
  Fe  Fe6       1.0  0.45270  0.18924  0.16402  1.0000
  S   S10       1.0  0.44831  0.21056  0.17684  1.0000
  S   S11       1.0  0.45769  0.15618  0.13854  1.0000
  S   S12       1.0  0.46424  0.19291  0.13693  1.0000
  Fe  Fe7       1.0  0.38915  0.30157  0.06077  1.0000
  H   H7        1.0  0.44872  0.22066  0.05989  1.0000
  H   H8        1.0  0.33683  0.03310  0.18538  1.0000
  S   S13       1.0  0.28119  0.30021  0.02282  1.0000
  H   H9        1.0  0.32114  0.30101  0.05496  1.0000
  H   H10       1.0  0.21305  0.29624  0.00593  1.0000
  C   C2        1.0  0.48828  0.25086  0.03635  1.0000
  Fe  Fe8       1.0  0.27119  0.29650  0.00238  1.0000
  S   S14       1.0  0.24735  0.28707  0.00850  1.0000
  Fe  Fe9       1.0  0.30659  0.29461  0.00696  1.0000
  S   S15       1.0  0.32755  0.27937  0.01990  1.0000
  H   H11       1.0  0.32775  0.04851  0.19776  1.0000
  H   H12       1.0  0.29694  0.02550  0.18225  1.0000
  Fe  Fe10      1.0  0.40165  0.06667  0.16243  1.0000
  S   S16       1.0  0.37450  0.07619  0.16233  1.0000
  S   S17       1.0  0.41918  0.08329  0.14651  1.0000
  Fe  Fe11      1.0  0.39522  0.03618  0.18864  1.0000
  S   S18       1.0  0.36760  0.04356  0.19120  1.0000
  S   S19       1.0  0.40489  0.01370  0.20670  1.0000
  Fe  Fe12      1.0  0.37330  0.04986  0.16357  1.0000
  S   S20       1.0  0.35482  0.04522  0.15134  1.0000
  Fe  Fe13      1.0  0.37107  0.06904  0.18981  1.0000
  S   S21       1.0  0.35466  0.08766  0.20448  1.0000
  S   S22       1.0  0.40102  0.04077  0.16081  1.0000
  S   S23       1.0  0.39813  0.06118  0.19000  1.0000
  H   H13       1.0  0.48379  0.20141  0.16358  1.0000
  C   C3        1.0  0.49429  0.22130  0.16537  1.0000
  H   H14       1.0  0.40871  0.26717  0.03183  1.0000
  C   C4        1.0  0.42026  0.29201  0.00903  1.0000
  C   C5        1.0  0.38352  0.04423  0.23104  1.0000
  H   H15       1.0  0.43535  0.27984  0.15398  1.0000
  H   H16       1.0  0.31911  0.01959  0.17686  1.0000
  H   H17       1.0  0.45191  0.24998  0.12541  1.0000
  H   H18       1.0  0.46499  0.17523  0.07065  1.0000
  H   H19       1.0  0.47172  0.30650  0.07180  1.0000
  C   C6        1.0  0.35397  0.02463  0.15185  1.0000
  C   C7        1.0  0.34125  0.02179  0.14592  1.0000
  C   C8        1.0  0.42657  0.31156  0.11342  1.0000
  H   H20       1.0  0.46593  0.28755  0.09971  1.0000
  S   S24       1.0  0.29677  0.28785  0.98787  1.0000
  C   C9        1.0  0.36564  0.01110  0.15805  1.0000
  H   H21       1.0  0.33223  0.03219  0.14103  1.0000
  C   C10       1.0  0.48018  0.09356  0.15245  1.0000
  H   H22       1.0  0.39725  0.04277  0.22687  1.0000
  H   H23       1.0  0.37549  0.01317  0.16264  1.0000
  C   C11       1.0  0.33665  0.08054  0.21556  1.0000
  H   H24       1.0  0.42202  0.26182  0.00383  1.0000
  H   H25       1.0  0.27752  0.01081  0.23162  1.0000
  H   H26       1.0  0.41433  0.24556  0.15846  1.0000
  C   C12       1.0  0.22013  0.29155  0.99500  1.0000
  H   H27       1.0  0.49039  0.30022  0.05725  1.0000
  H   H28       1.0  0.33458  0.31272  0.00927  1.0000
  S   S25       1.0  0.38990  0.30611  0.08548  1.0000
  H   H29       1.0  0.47428  0.28848  0.06379  1.0000
  H   H30       1.0  0.24495  0.99263  0.03622  1.0000
  S   S26       1.0  0.43492  0.31821  0.07920  1.0000
  H   H31       1.0  0.30842  0.01378  0.19790  1.0000
  C   C13       1.0  0.39926  0.27717  0.02616  1.0000
  H   H32       1.0  0.41472  0.26285  0.13004  1.0000
  H   H33       1.0  0.43641  0.23766  0.13508  1.0000
  C   C14       1.0  0.45676  0.18777  0.07037  1.0000
  H   H34       1.0  0.48804  0.12957  0.12651  1.0000
  N   N1        1.0  0.40623  0.28479  0.00903  1.0000
  C   C15       1.0  0.34031  0.00555  0.14595  1.0000
  C   C16       1.0  0.30688  0.08593  0.22624  1.0000
  H   H35       1.0  0.32692  0.02714  0.20670  1.0000
  C   C17       1.0  0.43326  0.11815  0.17104  1.0000
  C   C18       1.0  0.43350  0.12209  0.15405  1.0000
  C   C19       1.0  0.42990  0.11095  0.14652  1.0000
  C   C20       1.0  0.42544  0.09609  0.15602  1.0000
  C   C21       1.0  0.42562  0.09197  0.17292  1.0000
  C   C22       1.0  0.42961  0.10292  0.18038  1.0000
  H   H36       1.0  0.43601  0.13387  0.14675  1.0000
  H   H37       1.0  0.42987  0.11419  0.13341  1.0000
  H   H38       1.0  0.42280  0.08031  0.18025  1.0000
  H   H39       1.0  0.42959  0.09969  0.19349  1.0000
  H   H40       1.0  0.47539  0.20530  0.04483  1.0000
  C   C23       1.0  0.47487  0.24371  0.17690  1.0000
  C   C24       1.0  0.46199  0.23520  0.17962  1.0000
  C   C25       1.0  0.46506  0.22011  0.17451  1.0000
  C   C26       1.0  0.48127  0.21317  0.16730  1.0000
  H   H41       1.0  0.48434  0.08547  0.14318  1.0000
  H   H42       1.0  0.47236  0.25543  0.18071  1.0000
  H   H43       1.0  0.44962  0.24041  0.18567  1.0000
  H   H44       1.0  0.16309  0.32224  0.01756  1.0000
  H   H45       1.0  0.40017  0.00648  0.17718  1.0000
  C   C27       1.0  0.49032  0.26701  0.03471  1.0000
  C   C28       1.0  0.44381  0.24558  0.13737  1.0000
  S   S27       1.0  0.48490  0.29355  0.17586  1.0000
  C   C29       1.0  0.35910  0.30510  0.03747  1.0000
  C   C30       1.0  0.34107  0.30591  0.01908  1.0000
  C   C31       1.0  0.34010  0.28934  0.02602  1.0000
  C   C32       1.0  0.34895  0.28059  0.03850  1.0000
  C   C33       1.0  0.35823  0.28848  0.04435  1.0000
  H   H46       1.0  0.29763  0.05513  0.17100  1.0000
  H   H47       1.0  0.34824  0.26777  0.04398  1.0000
  H   H48       1.0  0.36453  0.28173  0.05432  1.0000
  C   C34       1.0  0.39742  0.24290  0.11711  1.0000
  C   C35       1.0  0.40103  0.23684  0.10258  1.0000
  C   C36       1.0  0.41065  0.22091  0.10187  1.0000
  C   C37       1.0  0.41714  0.21119  0.11555  1.0000
  C   C38       1.0  0.41341  0.21716  0.13016  1.0000
  C   C39       1.0  0.40323  0.23287  0.13105  1.0000
  H   H49       1.0  0.39623  0.24433  0.09193  1.0000
  H   H50       1.0  0.41327  0.21626  0.09063  1.0000
  H   H51       1.0  0.41831  0.20974  0.14078  1.0000
  H   H52       1.0  0.40019  0.23741  0.14238  1.0000
  C   C40       1.0  0.45833  0.26077  0.04041  1.0000
  C   C41       1.0  0.46043  0.27693  0.03851  1.0000
  C   C42       1.0  0.47644  0.28010  0.03517  1.0000
  H   H53       1.0  0.45170  0.19134  0.05889  1.0000
  H   H54       1.0  0.48648  0.30584  0.09300  1.0000
  C   C43       1.0  0.47229  0.24785  0.03872  1.0000
  H   H55       1.0  0.44979  0.28704  0.03947  1.0000
  H   H56       1.0  0.47803  0.29267  0.03348  1.0000
  H   H57       1.0  0.45185  0.26201  0.15582  1.0000
  H   H58       1.0  0.47075  0.23549  0.03955  1.0000
  N   N2        1.0  0.37533  0.12526  0.16978  1.0000
  C   C44       1.0  0.38503  0.12349  0.15305  1.0000
  C   C45       1.0  0.37388  0.14227  0.17196  1.0000
  C   C46       1.0  0.38388  0.11317  0.18233  1.0000
  C   C47       1.0  0.35858  0.12210  0.17178  1.0000
  H   H59       1.0  0.37864  0.13190  0.14322  1.0000
  H   H60       1.0  0.38716  0.11054  0.15124  1.0000
  H   H61       1.0  0.39745  0.12651  0.15091  1.0000
  H   H62       1.0  0.38635  0.14498  0.17060  1.0000
  H   H63       1.0  0.36759  0.15176  0.16263  1.0000
  H   H64       1.0  0.36664  0.14400  0.18448  1.0000
  H   H65       1.0  0.38596  0.10023  0.18056  1.0000
  H   H66       1.0  0.37650  0.11351  0.19510  1.0000
  H   H67       1.0  0.39619  0.11574  0.18171  1.0000
  H   H68       1.0  0.35099  0.12307  0.18438  1.0000
  H   H69       1.0  0.35928  0.10936  0.17022  1.0000
  H   H70       1.0  0.35170  0.13102  0.16257  1.0000
  H   H71       1.0  0.48138  0.18265  0.08680  1.0000
  H   H72       1.0  0.38860  0.27160  0.02672  1.0000
  C   C48       1.0  0.41217  0.27195  0.99888  1.0000
  C   C49       1.0  0.48103  0.29557  0.06807  1.0000
  H   H73       1.0  0.41354  0.28057  0.13814  1.0000
  C   C50       1.0  0.47981  0.20126  0.05669  1.0000
  N   N3        1.0  0.46583  0.20009  0.07113  1.0000
  H   H74       1.0  0.47076  0.26978  0.09046  1.0000
  H   H75       1.0  0.46238  0.19336  0.09764  1.0000
  H   H76       1.0  0.40188  0.26619  0.99874  1.0000
  C   C51       1.0  0.45437  0.21644  0.07105  1.0000
  C   C52       1.0  0.49107  0.23672  0.16984  1.0000
  C   C53       1.0  0.23749  0.28649  0.99288  1.0000
  C   C54       1.0  0.36494  0.99488  0.15769  1.0000
  H   H77       1.0  0.41531  0.30871  0.11223  1.0000
  H   H78       1.0  0.41605  0.30212  0.01616  1.0000
  H   H79       1.0  0.48868  0.18910  0.05641  1.0000
  N   N4        1.0  0.31012  0.03948  0.19020  1.0000
  C   C55       1.0  0.29625  0.04440  0.20368  1.0000
  C   C56       1.0  0.30957  0.05272  0.17514  1.0000
  C   C57       1.0  0.30860  0.02390  0.18667  1.0000
  C   C58       1.0  0.32610  0.03690  0.19526  1.0000
  H   H80       1.0  0.29626  0.03470  0.21525  1.0000
  H   H81       1.0  0.28398  0.04644  0.20030  1.0000
  H   H82       1.0  0.29705  0.05608  0.20674  1.0000
  H   H83       1.0  0.31102  0.06458  0.17723  1.0000
  H   H84       1.0  0.31976  0.04930  0.16467  1.0000
  H   H85       1.0  0.42624  0.29741  0.99626  1.0000
  C   C59       1.0  0.33743  0.06358  0.22189  1.0000
  C   C60       1.0  0.39316  0.29802  0.00222  1.0000
  H   H86       1.0  0.46634  0.09707  0.15463  1.0000
  C   C61       1.0  0.42232  0.27011  0.13294  1.0000
  S   S28       1.0  0.37070  0.31555  0.04429  1.0000
  H   H87       1.0  0.45074  0.27548  0.13604  1.0000
  H   H88       1.0  0.48766  0.11068  0.12106  1.0000
  H   H89       1.0  0.46788  0.12322  0.16125  1.0000
  H   H90       1.0  0.25133  0.32209  0.03049  1.0000
  H   H91       1.0  0.27298  0.01567  0.20296  1.0000
  H   H92       1.0  0.33775  0.99259  0.19514  1.0000
  H   H93       1.0  0.46084  0.22619  0.07116  1.0000
  H   H94       1.0  0.48178  0.27004  0.10579  1.0000
  H   H95       1.0  0.42978  0.24502  0.16936  1.0000
  C   C62       1.0  0.27999  0.00048  0.22557  1.0000
  Fe  Fe14      1.0  0.47535  0.30553  0.15220  1.0000
  C   C63       1.0  0.44315  0.26965  0.14771  1.0000
  C   C64       1.0  0.47629  0.27775  0.09508  1.0000
  H   H96       1.0  0.38219  0.29306  0.00245  1.0000
  C   C65       1.0  0.42951  0.31046  0.12918  1.0000
  H   H97       1.0  0.30512  0.29765  0.04685  1.0000
  H   H98       1.0  0.48445  0.11187  0.17157  1.0000
  H   H99       1.0  0.48715  0.13000  0.15568  1.0000
  C   C66       1.0  0.42224  0.25316  0.16034  1.0000
  H   H100      1.0  0.41388  0.26340  0.16621  1.0000
  H   H101      1.0  0.45197  0.23741  0.14585  1.0000
  C   C67       1.0  0.32302  0.05779  0.23057  1.0000
  H   H102      1.0  0.34920  0.05496  0.22032  1.0000
  C   C68       1.0  0.47243  0.19480  0.08646  1.0000
  H   H103      1.0  0.99769  0.19601  0.22172  1.0000
  S   S29       1.0  0.41617  0.30215  0.05054  1.0000
  N   N5        1.0  0.48767  0.10842  0.14674  1.0000
  C   C69       1.0  0.48156  0.11881  0.15935  1.0000
  C   C70       1.0  0.48294  0.11803  0.13097  1.0000
  H   H104      1.0  0.42987  0.27551  0.12100  1.0000
  S   S30       1.0  0.44821  0.31116  0.15076  1.0000
  H   H105      1.0  0.42040  0.30692  0.14013  1.0000
  Fe  Fe15      1.0  0.41750  0.30371  0.07605  1.0000
  N   N6        1.0  0.43290  0.25963  0.14459  1.0000
  C   C71       1.0  0.32141  0.09176  0.21789  1.0000
  C   C72       1.0  0.27743  0.00320  0.20936  1.0000
  H   H106      1.0  0.39468  0.28659  0.03406  1.0000
  H   H107      1.0  0.38855  0.30795  0.00961  1.0000
  H   H108      1.0  0.44401  0.21604  0.08209  1.0000
  C   C73       1.0  0.30745  0.30270  0.05666  1.0000
  H   H109      1.0  0.33064  0.00354  0.14107  1.0000
  S   S31       1.0  0.49063  0.28599  0.13823  1.0000
  H   H110      1.0  0.29505  0.09457  0.22784  1.0000
  H   H111      1.0  0.48349  0.08597  0.16431  1.0000
  H   H112      1.0  0.37914  0.04015  0.22185  1.0000
  C   C74       1.0  0.35238  0.99208  0.15149  1.0000
  S   S32       1.0  0.27738  0.99356  0.18107  1.0000
  N   N7        1.0  0.48891  0.28516  0.08186  1.0000
  C   C75       1.0  0.40438  0.99510  0.20175  1.0000
  H   H113      1.0  0.32079  0.10490  0.21300  1.0000
  H   H114      1.0  0.27616  0.31480  0.07133  1.0000
  H   H115      1.0  0.41752  0.27724  0.98584  1.0000
  H   H116      1.0  0.27737  0.31739  0.04958  1.0000
  C   C76       1.0  0.44424  0.31378  0.13085  1.0000
  C   C77       1.0  0.35056  0.31372  0.02474  1.0000
  H   H117      1.0  0.39785  0.30399  0.98922  1.0000
  C   C78       1.0  0.43794  0.31689  0.09921  1.0000
  H   H118      1.0  0.46918  0.12176  0.13238  1.0000
  H   H119      1.0  0.22410  0.99043  0.03784  1.0000
  C   C79       1.0  0.45562  0.31907  0.11663  1.0000
  C   C80       1.0  0.49604  0.29545  0.08852  1.0000
  H   H120      1.0  0.29937  0.31961  0.08108  1.0000
  H   H121      1.0  0.22393  0.32021  0.04866  1.0000
  C   C81       1.0  0.30772  0.06895  0.23260  1.0000
  C   C82       1.0  0.28097  0.32199  0.05893  1.0000
  C   C83       1.0  0.45220  0.32113  0.10090  1.0000
  N   N8        1.0  0.29917  0.32036  0.05580  1.0000
  S   S33       1.0  0.30649  0.32104  0.99377  1.0000
  H   H122      1.0  0.46682  0.32205  0.11780  1.0000
  S   S34       1.0  0.26879  0.32304  0.98916  1.0000
  S   S35       1.0  0.49363  0.32248  0.14251  1.0000
  H   H123      1.0  0.19845  0.29430  0.98503  1.0000
  Fe  Fe16      1.0  0.30144  0.06762  0.37653  1.0000
  S   S36       1.0  0.30348  0.09205  0.38089  1.0000
  S   S37       1.0  0.31638  0.05815  0.35342  1.0000
  Fe  Fe17      1.0  0.27578  0.06132  0.40826  1.0000
  S   S38       1.0  0.27507  0.08507  0.41508  1.0000
  S   S39       1.0  0.26044  0.04300  0.42429  1.0000
  Fe  Fe18      1.0  0.27579  0.09621  0.38825  1.0000
  S   S40       1.0  0.25935  0.12124  0.38353  1.0000
  Fe  Fe19      1.0  0.30272  0.07909  0.40742  1.0000
  S   S41       1.0  0.31550  0.08264  0.42598  1.0000
  S   S42       1.0  0.27359  0.07302  0.38197  1.0000
  S   S43       1.0  0.30358  0.05409  0.40255  1.0000
  Fe  Fe20      1.0  0.30537  0.15960  0.45902  1.0000
  H   H124      1.0  0.36215  0.19504  0.42090  1.0000
  S   S44       1.0  0.31184  0.15614  0.43258  1.0000
  H   H125      1.0  0.04129  0.14294  0.31839  1.0000
  C   C84       1.0  0.08805  0.15677  0.46662  1.0000
  C   C85       1.0  0.26031  0.04614  0.47084  1.0000
  H   H126      1.0  0.29820  0.03271  0.43887  1.0000
  S   S45       1.0  0.15845  0.17068  0.45518  1.0000
  N   N9        1.0  0.25379  0.12318  0.46008  1.0000
  Fe  Fe21      1.0  0.17845  0.13118  0.43742  1.0000
  S   S46       1.0  0.17821  0.15669  0.42167  1.0000
  S   S47       1.0  0.19055  0.10819  0.42755  1.0000
  Fe  Fe22      1.0  0.18526  0.16192  0.44322  1.0000
  S   S48       1.0  0.20763  0.17398  0.43673  1.0000
  Fe  Fe23      1.0  0.15173  0.16270  0.43498  1.0000
  S   S49       1.0  0.13038  0.17779  0.42254  1.0000
  S   S50       1.0  0.18706  0.13584  0.45807  1.0000
  S   S51       1.0  0.15152  0.13661  0.44881  1.0000
  Fe  Fe24      1.0  0.05708  0.15625  0.39938  1.0000
  S   S52       1.0  0.05763  0.15153  0.37445  1.0000
  S   S53       1.0  0.07807  0.14177  0.41258  1.0000
  Fe  Fe25      1.0  0.02565  0.18307  0.39858  1.0000
  S   S54       1.0  0.02406  0.18135  0.37339  1.0000
  Fe  Fe26      1.0  0.01682  0.27594  0.32076  1.0000
  Fe  Fe27      1.0  0.03003  0.15387  0.38268  1.0000
  S   S55       1.0  0.01356  0.13996  0.37702  1.0000
  Fe  Fe28      1.0  0.05159  0.17919  0.36715  1.0000
  S   S56       1.0  0.06406  0.19180  0.34247  1.0000
  S   S57       1.0  0.02988  0.15559  0.40862  1.0000
  S   S58       1.0  0.05272  0.18396  0.39134  1.0000
  H   H127      1.0  0.09057  0.29424  0.31415  1.0000
  H   H128      1.0  0.32617  0.19160  0.45607  1.0000
  H   H129      1.0  0.02597  0.17656  0.33620  1.0000
  H   H130      1.0  0.07699  0.29933  0.29005  1.0000
  H   H131      1.0  0.35630  0.16212  0.45870  1.0000
  H   H132      1.0  0.20160  0.16190  0.47259  1.0000
  S   S59       1.0  0.02972  0.26657  0.34213  1.0000
  H   H133      1.0  0.35557  0.03250  0.24404  1.0000
  C   C86       1.0  0.02951  0.14154  0.34420  1.0000
  H   H134      1.0  0.33227  0.19904  0.43429  1.0000
  C   C87       1.0  0.06747  0.27678  0.31687  1.0000
  S   S60       1.0  0.03126  0.27731  0.29479  1.0000
  Fe  Fe29      1.0  0.29747  0.03555  0.25653  1.0000
  S   S61       1.0  0.27839  0.02216  0.27389  1.0000
  H   H135      1.0  0.03996  0.14386  0.34760  1.0000
  H   H136      1.0  0.29203  0.04941  0.46872  1.0000
  H   H137      1.0  0.10773  0.17513  0.46978  1.0000
  C   C88       1.0  0.38644  0.01650  0.24767  1.0000
  H   H138      1.0  0.26007  0.00504  0.47787  1.0000
  Fe  Fe30      1.0  0.29597  0.01603  0.29138  1.0000
  S   S62       1.0  0.28521  0.02018  0.31759  1.0000
  H   H139      1.0  0.25739  0.14597  0.46347  1.0000
  S   S63       1.0  0.31429  0.03067  0.27426  1.0000
  C   C89       1.0  0.00367  0.23496  0.27655  1.0000
  H   H140      1.0  0.01734  0.24909  0.37544  1.0000
  H   H141      1.0  0.07914  0.14827  0.47122  1.0000
  C   C90       1.0  0.19593  0.07221  0.46737  1.0000
  C   C91       1.0  0.02352  0.20504  0.31413  1.0000
  H   H142      1.0  0.07816  0.29205  0.33481  1.0000
  C   C92       1.0  0.05670  0.21311  0.34140  1.0000
  C   C93       1.0  0.05556  0.21999  0.35494  1.0000
  C   C94       1.0  0.04809  0.23673  0.35474  1.0000
  C   C95       1.0  0.04107  0.24636  0.34134  1.0000
  C   C96       1.0  0.04252  0.23955  0.32767  1.0000
  C   C97       1.0  0.05072  0.22305  0.32753  1.0000
  H   H143      1.0  0.06042  0.21243  0.36559  1.0000
  H   H144      1.0  0.04726  0.24200  0.36524  1.0000
  H   H145      1.0  0.03711  0.24682  0.31728  1.0000
  H   H146      1.0  0.05187  0.21785  0.31691  1.0000
  C   C98       1.0  0.01535  0.13876  0.35632  1.0000
  H   H147      1.0  0.12478  0.15839  0.47429  1.0000
  C   C99       1.0  0.07809  0.29842  0.32169  1.0000
  S   S64       1.0  0.01713  0.13899  0.30219  1.0000
  C   C100      1.0  0.03023  0.14104  0.32768  1.0000
  H   H148      1.0  0.33435  0.17711  0.44253  1.0000
  H   H149      1.0  0.34729  0.17609  0.47262  1.0000
  H   H150      1.0  0.07640  0.31199  0.32097  1.0000
  H   H151      1.0  0.25079  0.10301  0.45112  1.0000
  C   C101      1.0  0.00950  0.21968  0.27150  1.0000
  C   C102      1.0  0.30389  0.02591  0.44975  1.0000
  H   H152      1.0  0.38211  0.03224  0.27242  1.0000
  H   H153      1.0  0.35466  0.04977  0.25285  1.0000
  H   H154      1.0  0.31204  0.01416  0.44663  1.0000
  C   C103      1.0  0.11573  0.16756  0.42038  1.0000
  C   C104      1.0  0.11892  0.15028  0.42242  1.0000
  C   C105      1.0  0.10705  0.14250  0.42050  1.0000
  C   C106      1.0  0.09198  0.15192  0.41633  1.0000
  C   C107      1.0  0.08866  0.16917  0.41461  1.0000
  C   C108      1.0  0.10053  0.17696  0.41652  1.0000
  H   H155      1.0  0.13069  0.14291  0.42508  1.0000
  H   H156      1.0  0.10974  0.12914  0.42183  1.0000
  H   H157      1.0  0.07697  0.17656  0.41177  1.0000
  H   H158      1.0  0.09791  0.19033  0.41505  1.0000
  C   C109      1.0  0.04852  0.30064  0.32610  1.0000
  H   H159      1.0  0.00870  0.24150  0.36247  1.0000
  H   H160      1.0  0.38318  0.00844  0.26003  1.0000
  C   C110      1.0  0.21800  0.17405  0.45213  1.0000
  C   C111      1.0  0.23223  0.18096  0.44742  1.0000
  C   C112      1.0  0.24130  0.18058  0.45918  1.0000
  C   C113      1.0  0.38537  0.03959  0.25964  1.0000
  H   H161      1.0  0.99939  0.25909  0.40027  1.0000
  H   H162      1.0  0.23608  0.18687  0.43467  1.0000
  H   H163      1.0  0.25218  0.18603  0.45545  1.0000
  C   C114      1.0  0.30777  0.04719  0.34382  1.0000
  C   C115      1.0  0.31656  0.04288  0.32866  1.0000
  C   C116      1.0  0.31000  0.03428  0.32065  1.0000
  C   C117      1.0  0.29455  0.02994  0.32773  1.0000
  C   C118      1.0  0.28587  0.03409  0.34297  1.0000
  C   C119      1.0  0.29240  0.04272  0.35095  1.0000
  H   H164      1.0  0.32852  0.04616  0.32314  1.0000
  H   H165      1.0  0.31694  0.03097  0.30905  1.0000
  H   H166      1.0  0.27397  0.03069  0.34861  1.0000
  H   H167      1.0  0.28560  0.04575  0.36271  1.0000
  C   C120      1.0  0.23987  0.11805  0.39508  1.0000
  C   C121      1.0  0.23464  0.10367  0.39542  1.0000
  C   C122      1.0  0.21945  0.10059  0.40539  1.0000
  C   C123      1.0  0.20964  0.11177  0.41522  1.0000
  C   C124      1.0  0.21517  0.12581  0.41533  1.0000
  C   C125      1.0  0.23010  0.12914  0.40503  1.0000
  H   H168      1.0  0.24213  0.09509  0.38771  1.0000
  H   H169      1.0  0.21527  0.08964  0.40536  1.0000
  H   H170      1.0  0.20803  0.13413  0.42340  1.0000
  H   H171      1.0  0.23410  0.14013  0.40509  1.0000
  C   C126      1.0  0.31376  0.10323  0.42774  1.0000
  C   C127      1.0  0.31388  0.10638  0.44302  1.0000
  C   C128      1.0  0.31305  0.12260  0.44464  1.0000
  C   C129      1.0  0.31258  0.13572  0.43087  1.0000
  C   C130      1.0  0.31268  0.13252  0.41553  1.0000
  C   C131      1.0  0.31292  0.11639  0.41403  1.0000
  H   H172      1.0  0.31474  0.09625  0.45364  1.0000
  H   H173      1.0  0.31335  0.12480  0.45646  1.0000
  H   H174      1.0  0.31279  0.14249  0.40474  1.0000
  H   H175      1.0  0.31317  0.11400  0.40213  1.0000
  H   H176      1.0  0.03095  0.17461  0.30674  1.0000
  H   H177      1.0  0.30879  0.06020  0.45976  1.0000
  C   C132      1.0  0.26116  0.05019  0.45367  1.0000
  C   C133      1.0  0.26098  0.03807  0.44537  1.0000
  C   C134      1.0  0.26036  0.02187  0.45419  1.0000
  N   N10       1.0  0.37901  0.03421  0.24779  1.0000
  H   H178      1.0  0.26153  0.06275  0.44691  1.0000
  H   H179      1.0  0.26014  0.01250  0.44782  1.0000
  H   H180      1.0  0.26652  0.11378  0.43806  1.0000
  N   N11       1.0  0.26874  0.16021  0.39750  1.0000
  C   C135      1.0  0.27321  0.14245  0.40522  1.0000
  C   C136      1.0  0.25543  0.16888  0.40917  1.0000
  C   C137      1.0  0.26283  0.16184  0.38221  1.0000
  C   C138      1.0  0.28353  0.16768  0.39341  1.0000
  H   H181      1.0  0.28279  0.13540  0.39652  1.0000
  H   H182      1.0  0.26227  0.13650  0.40887  1.0000
  H   H183      1.0  0.27827  0.14073  0.41643  1.0000
  H   H184      1.0  0.25144  0.18223  0.40361  1.0000
  H   H185      1.0  0.24414  0.16338  0.41288  1.0000
  H   H186      1.0  0.25967  0.16830  0.42062  1.0000
  H   H187      1.0  0.27231  0.15485  0.37339  1.0000
  H   H188      1.0  0.25979  0.17503  0.37577  1.0000
  H   H189      1.0  0.25143  0.15672  0.38491  1.0000
  H   H190      1.0  0.28066  0.18108  0.38754  1.0000
  H   H191      1.0  0.29384  0.16135  0.38469  1.0000
  H   H192      1.0  0.28830  0.16669  0.40470  1.0000
  N   N12       1.0  0.27016  0.07053  0.29448  1.0000
  C   C139      1.0  0.26537  0.08780  0.28552  1.0000
  C   C140      1.0  0.28836  0.06489  0.29002  1.0000
  C   C141      1.0  0.26193  0.05966  0.28978  1.0000
  C   C142      1.0  0.26505  0.06969  0.31253  1.0000
  H   H193      1.0  0.25170  0.09248  0.28853  1.0000
  H   H194      1.0  0.26913  0.08871  0.27186  1.0000
  H   H195      1.0  0.27145  0.09629  0.28876  1.0000
  H   H196      1.0  0.29226  0.05179  0.29625  1.0000
  H   H197      1.0  0.29271  0.06560  0.27644  1.0000
  H   H198      1.0  0.29506  0.07243  0.29383  1.0000
  H   H199      1.0  0.24816  0.06360  0.29278  1.0000
  H   H200      1.0  0.26516  0.04655  0.29649  1.0000
  H   H201      1.0  0.26576  0.05971  0.27627  1.0000
  H   H202      1.0  0.26803  0.05667  0.31953  1.0000
  H   H203      1.0  0.25144  0.07427  0.31633  1.0000
  H   H204      1.0  0.27157  0.07713  0.31672  1.0000
  H   H205      1.0  0.22602  0.03967  0.45626  1.0000
  S   S65       1.0  0.01826  0.24542  0.27843  1.0000
  H   H206      1.0  0.20667  0.03932  0.47094  1.0000
  H   H207      1.0  0.38006  0.05292  0.25997  1.0000
  N   N13       1.0  0.06480  0.29486  0.31574  1.0000
  H   H208      1.0  0.30979  0.02372  0.47969  1.0000
  H   H209      1.0  0.06712  0.26977  0.32987  1.0000
  Fe  Fe31      1.0  0.29380  0.99991  0.26364  1.0000
  S   S66       1.0  0.99754  0.26430  0.31734  1.0000
  S   S67       1.0  0.00217  0.30193  0.31620  1.0000
  H   H210      1.0  0.03812  0.29887  0.32150  1.0000
  H   H211      1.0  0.19216  0.05399  0.44761  1.0000
  H   H212      1.0  0.40022  0.01429  0.24377  1.0000
  C   C143      1.0  0.00245  0.13563  0.33523  1.0000
  H   H213      1.0  0.33410  0.04778  0.44274  1.0000
  C   C144      1.0  0.11395  0.16229  0.46813  1.0000
  C   C145      1.0  0.22231  0.07305  0.44838  1.0000
  H   H214      1.0  0.27862  0.10980  0.46226  1.0000
  S   S68       1.0  0.35335  0.99837  0.25656  1.0000
  C   C146      1.0  0.01815  0.18202  0.30622  1.0000
  C   C147      1.0  0.26025  0.01767  0.47118  1.0000
  H   H215      1.0  0.20087  0.07404  0.47747  1.0000
  H   H216      1.0  0.02351  0.21281  0.30147  1.0000
  H   H217      1.0  0.09204  0.15775  0.45297  1.0000
  H   H218      1.0  0.22844  0.07421  0.45793  1.0000
  N   N14       1.0  0.31321  0.03605  0.45407  1.0000
  Fe  Fe32      1.0  0.32602  0.00737  0.26463  1.0000
  N   N15       1.0  0.01247  0.19311  0.31822  1.0000
  C   C148      1.0  0.30195  0.05173  0.45757  1.0000
  H   H219      1.0  0.26030  0.05552  0.47729  1.0000
  H   H220      1.0  0.37762  0.18397  0.43295  1.0000
  S   S69       1.0  0.28970  0.06160  0.24312  1.0000
  H   H221      1.0  0.36421  0.17307  0.42872  1.0000
  H   H222      1.0  0.29363  0.02254  0.46019  1.0000
  H   H223      1.0  0.32233  0.04672  0.42869  1.0000
  C   C149      1.0  0.01658  0.13835  0.32311  1.0000
  H   H224      1.0  0.23205  0.06720  0.43890  1.0000
  C   C150      1.0  0.11115  0.13404  0.47160  1.0000
  C   C151      1.0  0.21634  0.04681  0.46479  1.0000
  C   C152      1.0  0.01302  0.18310  0.33506  1.0000
  Fe  Fe33      1.0  0.15985  0.14395  0.46814  1.0000
  H   H225      1.0  0.01966  0.21364  0.32290  1.0000
  H   H226      1.0  0.05761  0.27370  0.31253  1.0000
  H   H227      1.0  0.21717  0.08582  0.44210  1.0000
  H   H228      1.0  0.00990  0.17309  0.30868  1.0000
  C   C153      1.0  0.06508  0.30364  0.29835  1.0000
  C   C154      1.0  0.36072  0.03654  0.25273  1.0000
  H   H229      1.0  0.08118  0.16932  0.46874  1.0000
  C   C155      1.0  0.32702  0.03980  0.44009  1.0000
  H   H230      1.0  0.29583  0.05857  0.44699  1.0000
  C   C156      1.0  0.21264  0.16712  0.46879  1.0000
  H   H231      1.0  0.07963  0.27193  0.30922  1.0000
  H   H232      1.0  0.02275  0.21481  0.26851  1.0000
  H   H233      1.0  0.11547  0.13433  0.45809  1.0000
  N   N16       1.0  0.10914  0.16277  0.36414  1.0000
  C   C157      1.0  0.10277  0.15387  0.35517  1.0000
  C   C158      1.0  0.09504  0.17362  0.37294  1.0000
  C   C159      1.0  0.12037  0.17302  0.35226  1.0000
  C   C160      1.0  0.11825  0.15062  0.37626  1.0000
  H   H234      1.0  0.11306  0.14588  0.34798  1.0000
  H   H235      1.0  0.09524  0.16270  0.34639  1.0000
  H   H236      1.0  0.09461  0.14569  0.36390  1.0000
  H   H237      1.0  0.09930  0.18054  0.37992  1.0000
  H   H238      1.0  0.08777  0.18291  0.36425  1.0000
  H   H239      1.0  0.08639  0.16620  0.38199  1.0000
  H   H240      1.0  0.12533  0.17991  0.35871  1.0000
  H   H241      1.0  0.11377  0.18234  0.34303  1.0000
  H   H242      1.0  0.13118  0.16525  0.34535  1.0000
  H   H243      1.0  0.11013  0.14249  0.38520  1.0000
  H   H244      1.0  0.12274  0.15692  0.38367  1.0000
  H   H245      1.0  0.12921  0.14240  0.37009  1.0000
  C   C161      1.0  0.26592  0.11244  0.47002  1.0000
  H   H246      1.0  0.19017  0.08472  0.46092  1.0000
  H   H247      1.0  0.00833  0.19100  0.34448  1.0000
  N   N17       1.0  0.35257  0.18803  0.44699  1.0000
  C   C162      1.0  0.35344  0.20389  0.45044  1.0000
  C   C163      1.0  0.33563  0.18896  0.44484  1.0000
  C   C164      1.0  0.35649  0.17434  0.46099  1.0000
  C   C165      1.0  0.36469  0.18490  0.43171  1.0000
  H   H248      1.0  0.35051  0.21453  0.44018  1.0000
  H   H249      1.0  0.36598  0.20359  0.45232  1.0000
  H   H250      1.0  0.34439  0.20662  0.46189  1.0000
  S   S70       1.0  0.29223  0.18410  0.46603  1.0000
  H   H251      1.0  0.06349  0.31727  0.29703  1.0000
  N   N18       1.0  0.20916  0.06334  0.45578  1.0000
  H   H252      1.0  0.38192  0.01207  0.23877  1.0000
  S   S71       1.0  0.31136  0.01402  0.24473  1.0000
  C   C166      1.0  0.00794  0.24213  0.37550  1.0000
  H   H253      1.0  0.32694  0.03418  0.47257  1.0000
  H   H254      1.0  0.26690  0.11849  0.47971  1.0000
  H   H255      1.0  0.32853  0.01489  0.46674  1.0000
  Fe  Fe34      1.0  0.01528  0.30274  0.28977  1.0000
  H   H256      1.0  0.01832  0.18912  0.29333  1.0000
  H   H257      1.0  0.36895  0.17358  0.46336  1.0000
  H   H258      1.0  0.01171  0.22922  0.38241  1.0000
  S   S72       1.0  0.00689  0.20259  0.41075  1.0000
  H   H259      1.0  0.05486  0.30167  0.29358  1.0000
  H   H260      1.0  0.18581  0.06523  0.47334  1.0000
  C   C167      1.0  0.20210  0.06129  0.44251  1.0000
  H   H261      1.0  0.22751  0.13364  0.46358  1.0000
  H   H262      1.0  0.00540  0.17345  0.33831  1.0000
  Fe  Fe35      1.0  0.01076  0.26759  0.29073  1.0000
  H   H263      1.0  0.04642  0.31404  0.32621  1.0000
  H   H264      1.0  0.33587  0.02831  0.43714  1.0000
  H   H265      1.0  0.39915  0.03795  0.25626  1.0000
  H   H266      1.0  0.04752  0.29369  0.33917  1.0000
  C   C168      1.0  0.00204  0.13537  0.35182  1.0000
  N   N19       1.0  0.10246  0.15069  0.47480  1.0000
  H   H267      1.0  0.03661  0.19851  0.31461  1.0000
  H   H268      1.0  0.35683  0.02901  0.26527  1.0000
  H   H269      1.0  0.00298  0.19885  0.26650  1.0000
  C   C169      1.0  0.99833  0.21061  0.27039  1.0000
  C   C170      1.0  0.31994  0.02679  0.46892  1.0000
  H   H270      1.0  0.23640  0.13099  0.48123  1.0000
  C   C171      1.0  0.23694  0.12535  0.47063  1.0000
  S   S73       1.0  0.32264  0.15305  0.47680  1.0000
  C   C172      1.0  0.26010  0.02980  0.47956  1.0000
  H   H271      1.0  0.21184  0.05482  0.43345  1.0000
  H   H272      1.0  0.19655  0.07351  0.43545  1.0000
  H   H273      1.0  0.24482  0.12318  0.43872  1.0000
  H   H274      1.0  0.27130  0.13848  0.44613  1.0000
  H   H275      1.0  0.24972  0.14784  0.44534  1.0000
  H   H276      1.0  0.23298  0.11329  0.47598  1.0000
  H   H277      1.0  0.11895  0.16290  0.45471  1.0000
  C   C173      1.0  0.25829  0.13958  0.45333  1.0000
  C   C174      1.0  0.25400  0.11548  0.44636  1.0000
  H   H278      1.0  0.12227  0.12918  0.47737  1.0000
  H   H279      1.0  0.10291  0.12492  0.47665  1.0000
  H   H280      1.0  0.32377  0.04468  0.23555  1.0000
  H   H281      1.0  0.26228  0.10038  0.47642  1.0000
  H   H282      1.0  0.22230  0.04781  0.47455  1.0000
  S   S74       1.0  0.30920  0.99204  0.28319  1.0000
  C   C175      1.0  0.23583  0.17384  0.47587  1.0000
  S   S75       1.0  0.28655  0.14606  0.47620  1.0000
  C   C176      1.0  0.22142  0.16721  0.48065  1.0000
  C   C177      1.0  0.43157  0.22024  0.60310  1.0000
  Fe  Fe36      1.0  0.42438  0.22109  0.53289  1.0000
  S   S76       1.0  0.41481  0.22890  0.55718  1.0000
  S   S77       1.0  0.45162  0.21845  0.52068  1.0000
  Fe  Fe37      1.0  0.38993  0.21525  0.53146  1.0000
  S   S78       1.0  0.37797  0.22364  0.55562  1.0000
  S   S79       1.0  0.37877  0.19850  0.52185  1.0000
  Fe  Fe38      1.0  0.39297  0.24367  0.54616  1.0000
  S   S80       1.0  0.38633  0.27008  0.54992  1.0000
  Fe  Fe39      1.0  0.40099  0.20828  0.56419  1.0000
  S   S81       1.0  0.39993  0.19056  0.58866  1.0000
  S   S82       1.0  0.40320  0.23687  0.52102  1.0000
  S   S83       1.0  0.41250  0.19900  0.54087  1.0000
  Fe  Fe40      1.0  0.45857  0.17893  0.65952  1.0000
  S   S84       1.0  0.47396  0.18973  0.63572  1.0000
  S   S85       1.0  0.43553  0.19618  0.66965  1.0000
  H   H283      1.0  0.45901  0.28445  0.53209  1.0000
  S   S86       1.0  0.48458  0.11682  0.67096  1.0000
  S   S87       1.0  0.47315  0.17111  0.60053  1.0000
  S   S88       1.0  0.45667  0.15722  0.65032  1.0000
  H   H284      1.0  0.01166  0.99335  0.72239  1.0000
  H   H285      1.0  0.41952  0.30902  0.51964  1.0000
  H   H286      1.0  0.08650  0.01051  0.68473  1.0000
  Fe  Fe41      1.0  0.40110  0.29259  0.62567  1.0000
  S   S89       1.0  0.40397  0.29243  0.65108  1.0000
  S   S90       1.0  0.38527  0.27640  0.62271  1.0000
  Fe  Fe42      1.0  0.43127  0.28693  0.64089  1.0000
  S   S91       1.0  0.44906  0.26841  0.65541  1.0000
  S   S92       1.0  0.42841  0.28483  0.61633  1.0000
  Fe  Fe43      1.0  0.24116  0.04186  0.51469  1.0000
  S   S93       1.0  0.22678  0.06433  0.50030  1.0000
  S   S94       1.0  0.26035  0.02417  0.50072  1.0000
  Fe  Fe44      1.0  0.22289  0.04991  0.54809  1.0000
  S   S95       1.0  0.20712  0.07307  0.53635  1.0000
  S   S96       1.0  0.21777  0.04660  0.57582  1.0000
  Fe  Fe45      1.0  0.20488  0.05784  0.51968  1.0000
  S   S97       1.0  0.17999  0.05943  0.51454  1.0000
  Fe  Fe46      1.0  0.23052  0.07724  0.51833  1.0000
  S   S98       1.0  0.23417  0.10331  0.51125  1.0000
  S   S99       1.0  0.21877  0.03412  0.53277  1.0000
  S   S100      1.0  0.24677  0.05533  0.53132  1.0000
  Fe  Fe47      1.0  0.42765  0.31216  0.60927  1.0000
  C   C178      1.0  0.42296  0.29130  0.70941  1.0000
  S   S101      1.0  0.30413  0.11573  0.51028  1.0000
  H   H287      1.0  0.22265  0.07897  0.58232  1.0000
  H   H288      1.0  0.20626  0.09718  0.58045  1.0000
  Fe  Fe48      1.0  0.15354  0.00178  0.66941  1.0000
  C   C179      1.0  0.46296  0.31075  0.58400  1.0000
  H   H289      1.0  0.22520  0.11433  0.58202  1.0000
  H   H290      1.0  0.21662  0.10921  0.54338  1.0000
  C   C180      1.0  0.40030  0.30030  0.69486  1.0000
  S   S102      1.0  0.14964  0.02255  0.68247  1.0000
  H   H291      1.0  0.21125  0.12222  0.55824  1.0000
  S   S103      1.0  0.07243  0.04976  0.70224  1.0000
  C   C181      1.0  0.12834  0.03119  0.68734  1.0000
  C   C182      1.0  0.12171  0.03742  0.70184  1.0000
  C   C183      1.0  0.10450  0.04303  0.70653  1.0000
  C   C184      1.0  0.09399  0.04325  0.69627  1.0000
  C   C185      1.0  0.10070  0.03772  0.68141  1.0000
  C   C186      1.0  0.11780  0.03127  0.67717  1.0000
  H   H292      1.0  0.12983  0.03772  0.70957  1.0000
  C   C187      1.0  0.49087  0.23054  0.63253  1.0000
  H   H293      1.0  0.09267  0.03819  0.67327  1.0000
  C   C188      1.0  0.49580  0.29371  0.58467  1.0000
  C   C189      1.0  0.20996  0.02886  0.58705  1.0000
  C   C190      1.0  0.21238  0.01524  0.57981  1.0000
  H   H294      1.0  0.46274  0.31565  0.60754  1.0000
  Fe  Fe49      1.0  0.49565  0.17437  0.64653  1.0000
  H   H295      1.0  0.49582  0.28859  0.56124  1.0000
  C   C191      1.0  0.20083  0.02852  0.60330  1.0000
  H   H296      1.0  0.21965  0.01529  0.56740  1.0000
  H   H297      1.0  0.24482  0.11418  0.56772  1.0000
  C   C192      1.0  0.41966  0.27425  0.69239  1.0000
  H   H298      1.0  0.19895  0.03902  0.60897  1.0000
  C   C193      1.0  0.15555  0.11396  0.50005  1.0000
  C   C194      1.0  0.17277  0.10928  0.49883  1.0000
  C   C195      1.0  0.18027  0.09254  0.50356  1.0000
  C   C196      1.0  0.17061  0.08041  0.50900  1.0000
  C   C197      1.0  0.15340  0.08505  0.51009  1.0000
  S   S104      1.0  0.14607  0.00410  0.64541  1.0000
  S   S105      1.0  0.48035  0.16544  0.67147  1.0000
  H   H299      1.0  0.19354  0.08909  0.50280  1.0000
  C   C198      1.0  0.41803  0.30022  0.53181  1.0000
  C   C199      1.0  0.25342  0.10594  0.51266  1.0000
  C   C200      1.0  0.26713  0.09265  0.51333  1.0000
  C   C201      1.0  0.28266  0.09540  0.51351  1.0000
  C   C202      1.0  0.28444  0.11146  0.51286  1.0000
  C   C203      1.0  0.27055  0.12454  0.51277  1.0000
  C   C204      1.0  0.25513  0.12182  0.51255  1.0000
  H   H300      1.0  0.26596  0.08039  0.51314  1.0000
  H   H301      1.0  0.29342  0.08529  0.51344  1.0000
  H   H302      1.0  0.27175  0.13694  0.51245  1.0000
  H   H303      1.0  0.24462  0.13220  0.51188  1.0000
  C   C205      1.0  0.48332  0.25360  0.52276  1.0000
  H   H304      1.0  0.12285  0.02669  0.66585  1.0000
  C   C206      1.0  0.43905  0.21623  0.66647  1.0000
  C   C207      1.0  0.42666  0.23004  0.66218  1.0000
  C   C208      1.0  0.42975  0.24611  0.65855  1.0000
  C   C209      1.0  0.44492  0.24844  0.66005  1.0000
  C   C210      1.0  0.45704  0.23468  0.66501  1.0000
  C   C211      1.0  0.45429  0.21856  0.66777  1.0000
  H   H305      1.0  0.41477  0.22829  0.66140  1.0000
  H   H306      1.0  0.42030  0.25667  0.65477  1.0000
  H   H307      1.0  0.46867  0.23645  0.66646  1.0000
  H   H308      1.0  0.46383  0.20791  0.67125  1.0000
  C   C212      1.0  0.36180  0.19853  0.51313  1.0000
  C   C213      1.0  0.35089  0.21310  0.50749  1.0000
  H   H309      1.0  0.13253  0.10544  0.50675  1.0000
  H   H310      1.0  0.24935  0.07818  0.56278  1.0000
  C   C214      1.0  0.34614  0.18248  0.50496  1.0000
  C   C215      1.0  0.35931  0.18324  0.51180  1.0000
  C   C216      1.0  0.14276  0.99833  0.72164  1.0000
  H   H311      1.0  0.21247  0.08446  0.56523  1.0000
  H   H312      1.0  0.17135  0.01493  0.55670  1.0000
  H   H313      1.0  0.48456  0.21322  0.55938  1.0000
  C   C217      1.0  0.38542  0.27503  0.60240  1.0000
  C   C218      1.0  0.38093  0.26128  0.59993  1.0000
  C   C219      1.0  0.38158  0.25947  0.58386  1.0000
  C   C220      1.0  0.38580  0.27191  0.57020  1.0000
  C   C221      1.0  0.38971  0.28596  0.57274  1.0000
  C   C222      1.0  0.38999  0.28731  0.58874  1.0000
  H   H314      1.0  0.37697  0.25199  0.61049  1.0000
  H   H315      1.0  0.37828  0.24872  0.58206  1.0000
  H   H316      1.0  0.39254  0.29585  0.56236  1.0000
  H   H317      1.0  0.39324  0.29809  0.59055  1.0000
  C   C223      1.0  0.42040  0.18337  0.59165  1.0000
  C   C224      1.0  0.42353  0.17497  0.60728  1.0000
  C   C225      1.0  0.43980  0.17082  0.61004  1.0000
  C   C226      1.0  0.45296  0.17486  0.59713  1.0000
  C   C227      1.0  0.44987  0.18276  0.58138  1.0000
  C   C228      1.0  0.43362  0.18709  0.57867  1.0000
  H   H318      1.0  0.41335  0.17198  0.61734  1.0000
  H   H319      1.0  0.44214  0.16447  0.62215  1.0000
  H   H320      1.0  0.45995  0.18594  0.57136  1.0000
  H   H321      1.0  0.43138  0.19345  0.56654  1.0000
  H   H322      1.0  0.05544  0.02543  0.66876  1.0000
  H   H323      1.0  0.41532  0.30752  0.54163  1.0000
  C   C229      1.0  0.19634  0.00111  0.60491  1.0000
  C   C230      1.0  0.47243  0.30329  0.57085  1.0000
  H   H324      1.0  0.48953  0.19294  0.57209  1.0000
  H   H325      1.0  0.42493  0.30057  0.66800  1.0000
  H   H326      1.0  0.06687  0.01654  0.70990  1.0000
  N   N20       1.0  0.41784  0.29151  0.69409  1.0000
  C   C231      1.0  0.47302  0.24696  0.53735  1.0000
  C   C232      1.0  0.46281  0.23646  0.53689  1.0000
  C   C233      1.0  0.46323  0.23231  0.52189  1.0000
  C   C234      1.0  0.47399  0.23850  0.50756  1.0000
  H   H327      1.0  0.39600  0.30068  0.68350  1.0000
  N   N21       1.0  0.06096  0.00812  0.69089  1.0000
  H   H328      1.0  0.45472  0.23148  0.54807  1.0000
  H   H329      1.0  0.23082  0.12127  0.54375  1.0000
  H   H330      1.0  0.48131  0.22297  0.63886  1.0000
  H   H331      1.0  0.14493  0.01084  0.72096  1.0000
  H   H332      1.0  0.09942  0.04752  0.71790  1.0000
  H   H333      1.0  0.41995  0.26938  0.55106  1.0000
  H   H334      1.0  0.44739  0.26758  0.52009  1.0000
  C   C235      1.0  0.19393  0.01470  0.61220  1.0000
  Fe  Fe50      1.0  0.47403  0.16698  0.62736  1.0000
  H   H335      1.0  0.18058  0.03094  0.54193  1.0000
  H   H336      1.0  0.35259  0.22496  0.50838  1.0000
  H   H337      1.0  0.49175  0.12982  0.69597  1.0000
  N   N22       1.0  0.48784  0.24017  0.61615  1.0000
  Fe  Fe51      1.0  0.30228  0.14152  0.49482  1.0000
  C   C236      1.0  0.48718  0.22880  0.60599  1.0000
  H   H338      1.0  0.47255  0.25036  0.54883  1.0000
  H   H339      1.0  0.10957  0.00450  0.72824  1.0000
  S   S106      1.0  0.43352  0.31354  0.63294  1.0000
  H   H340      1.0  0.39185  0.29418  0.70560  1.0000
  N   N23       1.0  0.41822  0.22172  0.61796  1.0000
  C   C237      1.0  0.41555  0.23833  0.62171  1.0000
  C   C238      1.0  0.40271  0.21950  0.61487  1.0000
  C   C239      1.0  0.42310  0.20879  0.63212  1.0000
  H   H341      1.0  0.41238  0.24838  0.61107  1.0000
  H   H342      1.0  0.42679  0.24023  0.62472  1.0000
  H   H343      1.0  0.40512  0.24019  0.63248  1.0000
  C   C240      1.0  0.43595  0.27746  0.51987  1.0000
  H   H344      1.0  0.40393  0.20670  0.61319  1.0000
  H   H345      1.0  0.39207  0.22171  0.62535  1.0000
  H   H346      1.0  0.39939  0.22810  0.60344  1.0000
  H   H347      1.0  0.42522  0.19608  0.62977  1.0000
  H   H348      1.0  0.41337  0.20951  0.64361  1.0000
  H   H349      1.0  0.43482  0.20999  0.63476  1.0000
  H   H350      1.0  0.43382  0.20788  0.59997  1.0000
  C   C241      1.0  0.44751  0.29420  0.53110  1.0000
  H   H351      1.0  0.41599  0.27389  0.68092  1.0000
  H   H352      1.0  0.48411  0.06623  0.73198  1.0000
  C   C242      1.0  0.48368  0.24937  0.50791  1.0000
  H   H353      1.0  0.18677  0.01457  0.62468  1.0000
  H   H354      1.0  0.47944  0.20071  0.53885  1.0000
  H   H355      1.0  0.42541  0.27135  0.52130  1.0000
  H   H356      1.0  0.42732  0.31334  0.68041  1.0000
  H   H357      1.0  0.47454  0.23519  0.49598  1.0000
  C   C243      1.0  0.05466  0.02506  0.68204  1.0000
  C   C244      1.0  0.42848  0.30021  0.67971  1.0000
  H   H358      1.0  0.44564  0.30146  0.54081  1.0000
  H   H359      1.0  0.03781  0.00041  0.69507  1.0000
  H   H360      1.0  0.42173  0.30413  0.71107  1.0000
  Fe  Fe52      1.0  0.47976  0.14436  0.66037  1.0000
  H   H361      1.0  0.42760  0.28235  0.55966  1.0000
  H   H362      1.0  0.14591  0.07570  0.51429  1.0000
  H   H363      1.0  0.44166  0.26559  0.55090  1.0000
  H   H364      1.0  0.49140  0.25461  0.49656  1.0000
  N   N24       1.0  0.36275  0.17642  0.57101  1.0000
  C   C245      1.0  0.35813  0.16001  0.57660  1.0000
  C   C246      1.0  0.38023  0.17444  0.56201  1.0000
  C   C247      1.0  0.36084  0.18371  0.58550  1.0000
  C   C248      1.0  0.35188  0.18752  0.55989  1.0000
  H   H365      1.0  0.34498  0.16103  0.58343  1.0000
  H   H366      1.0  0.36615  0.15134  0.58497  1.0000
  H   H367      1.0  0.35951  0.15421  0.56590  1.0000
  H   H368      1.0  0.38395  0.18663  0.55756  1.0000
  H   H369      1.0  0.38892  0.16641  0.57003  1.0000
  H   H370      1.0  0.38223  0.16909  0.55089  1.0000
  H   H371      1.0  0.34782  0.18539  0.59267  1.0000
  H   H372      1.0  0.36431  0.19609  0.58167  1.0000
  H   H373      1.0  0.36909  0.17578  0.59401  1.0000
  H   H374      1.0  0.35525  0.19994  0.55516  1.0000
  H   H375      1.0  0.33857  0.18949  0.56624  1.0000
  H   H376      1.0  0.35304  0.18238  0.54881  1.0000
  N   N25       1.0  0.16599  0.03817  0.56451  1.0000
  C   C249      1.0  0.17432  0.05199  0.56245  1.0000
  C   C250      1.0  0.16187  0.03052  0.58229  1.0000
  C   C251      1.0  0.17720  0.02558  0.55539  1.0000
  C   C252      1.0  0.15061  0.04462  0.55788  1.0000
  H   H377      1.0  0.17713  0.05834  0.54923  1.0000
  H   H378      1.0  0.18628  0.04752  0.56678  1.0000
  H   H379      1.0  0.16645  0.06150  0.56955  1.0000
  H   H380      1.0  0.15329  0.03959  0.58957  1.0000
  H   H381      1.0  0.15588  0.01979  0.58435  1.0000
  H   H382      1.0  0.17323  0.02580  0.58765  1.0000
  H   H383      1.0  0.18898  0.02051  0.56000  1.0000
  H   H384      1.0  0.36765  0.17188  0.51610  1.0000
  S   S107      1.0  0.39995  0.32011  0.61716  1.0000
  H   H385      1.0  0.14395  0.03455  0.55924  1.0000
  H   H386      1.0  0.15339  0.05041  0.54444  1.0000
  H   H387      1.0  0.14192  0.05428  0.56435  1.0000
  H   H388      1.0  0.21705  0.16210  0.49358  1.0000
  H   H389      1.0  0.25358  0.09631  0.54744  1.0000
  S   S108      1.0  0.28906  0.16443  0.50475  1.0000
  C   C253      1.0  0.22170  0.11375  0.55177  1.0000
  C   C254      1.0  0.21717  0.08972  0.57335  1.0000
  H   H390      1.0  0.24168  0.09621  0.58375  1.0000
  H   H391      1.0  0.40687  0.29506  0.53316  1.0000
  H   H392      1.0  0.06196  0.03396  0.68255  1.0000
  H   H393      1.0  0.43754  0.28565  0.50736  1.0000
  H   H394      1.0  0.23964  0.08487  0.54522  1.0000
  C   C255      1.0  0.47193  0.25238  0.61823  1.0000
  H   H395      1.0  0.46704  0.30397  0.56046  1.0000
  H   H396      1.0  0.18027  0.11863  0.49452  1.0000
  H   H397      1.0  0.46914  0.25976  0.60608  1.0000
  H   H398      1.0  0.42826  0.22973  0.59211  1.0000
  H   H399      1.0  0.08035  0.00297  0.66997  1.0000
  H   H400      1.0  0.43280  0.26731  0.69156  1.0000
  H   H401      1.0  0.49537  0.18556  0.52955  1.0000
  H   H402      1.0  0.04630  0.01280  0.71443  1.0000
  C   C256      1.0  0.49482  0.20234  0.56176  1.0000
  C   C257      1.0  0.43046  0.27556  0.54940  1.0000
  S   S109      1.0  0.31924  0.19709  0.48919  1.0000
  H   H403      1.0  0.04147  0.02981  0.68762  1.0000
  C   C258      1.0  0.48876  0.29457  0.57130  1.0000
  C   C259      1.0  0.33789  0.21236  0.50038  1.0000
  H   H404      1.0  0.48493  0.18014  0.55072  1.0000
  H   H405      1.0  0.05222  0.99617  0.67644  1.0000
  H   H406      1.0  0.41520  0.28479  0.72052  1.0000
  S   S110      1.0  0.14619  0.13480  0.49376  1.0000
  H   H407      1.0  0.44350  0.22168  0.60503  1.0000
  Fe  Fe53      1.0  0.27448  0.16972  0.48475  1.0000
  Fe  Fe54      1.0  0.40591  0.31924  0.64175  1.0000
  H   H408      1.0  0.41184  0.26725  0.70300  1.0000
  C   C260      1.0  0.14584  0.10186  0.50585  1.0000
  H   H409      1.0  0.39853  0.31346  0.69581  1.0000
  C   C261      1.0  0.23556  0.10642  0.57479  1.0000
  Fe  Fe55      1.0  0.06520  0.04589  0.72986  1.0000
  N   N26       1.0  0.43300  0.28686  0.53304  1.0000
  N   N27       1.0  0.22951  0.09981  0.56359  1.0000
  S   S111      1.0  0.24640  0.17409  0.49102  1.0000
  C   C262      1.0  0.33539  0.19707  0.49907  1.0000
  C   C263      1.0  0.05940  0.00823  0.70849  1.0000
  C   C264      1.0  0.24366  0.08932  0.55439  1.0000
  S   S112      1.0  0.49370  0.26921  0.52214  1.0000
  H   H410      1.0  0.44181  0.29386  0.67854  1.0000
  C   C265      1.0  0.46993  0.30970  0.59748  1.0000
  H   H411      1.0  0.46136  0.24624  0.62499  1.0000
  H   H412      1.0  0.13722  0.99923  0.71091  1.0000
  C   C266      1.0  0.49007  0.19022  0.54123  1.0000
  Fe  Fe56      1.0  0.30822  0.17668  0.48540  1.0000
  H   H413      1.0  0.43616  0.28477  0.70917  1.0000
  C   C267      1.0  0.05122  0.99664  0.68956  1.0000
  H   H414      1.0  0.06372  0.99561  0.71563  1.0000
  H   H415      1.0  0.49074  0.23882  0.64075  1.0000
  H   H416      1.0  0.09036  0.16204  0.49573  1.0000
  C   C268      1.0  0.20564  0.00137  0.58874  1.0000
  H   H417      1.0  0.44999  0.30264  0.51882  1.0000
  H   H418      1.0  0.47687  0.22206  0.61179  1.0000
  H   H419      1.0  0.32968  0.22375  0.49589  1.0000
  H   H420      1.0  0.49178  0.30063  0.60814  1.0000
  C   C269      1.0  0.07861  0.00256  0.68342  1.0000
  H   H421      1.0  0.20760  0.99085  0.58309  1.0000
  H   H422      1.0  0.48534  0.23564  0.59339  1.0000
  H   H423      1.0  0.10752  0.14503  0.49924  1.0000
  H   H424      1.0  0.34441  0.17061  0.50414  1.0000
  H   H425      1.0  0.47227  0.26144  0.62543  1.0000
  S   S113      1.0  0.44216  0.32051  0.58399  1.0000
  H   H426      1.0  0.08806  0.14105  0.49835  1.0000
  C   C270      1.0  0.09680  0.14966  0.49284  1.0000
  C   C271      1.0  0.48641  0.30131  0.59775  1.0000
  Fe  Fe57      1.0  0.18387  0.29540  0.95572  1.0000
  H   H427      1.0  0.01068  0.19178  0.90917  1.0000
  H   H428      1.0  0.25977  0.30335  0.95165  1.0000
  Fe  Fe58      1.0  0.15085  0.29315  0.94839  1.0000
  H   H429      1.0  0.10290  0.27786  0.88289  1.0000
  S   S114      1.0  0.14387  0.27528  0.93637  1.0000
  H   H430      1.0  0.08831  0.26953  0.90026  1.0000
  H   H431      1.0  0.20004  0.25879  0.93210  1.0000
  S   S115      1.0  0.17337  0.30302  0.93268  1.0000
  S   S116      1.0  0.03858  0.04846  0.74340  1.0000
  Fe  Fe59      1.0  0.06786  0.24415  0.91772  1.0000
  S   S117      1.0  0.08242  0.23914  0.89279  1.0000
  S   S118      1.0  0.07621  0.25595  0.93479  1.0000
  Fe  Fe60      1.0  0.03521  0.23820  0.91144  1.0000
  S   S119      1.0  0.04787  0.23327  0.88634  1.0000
  S   S120      1.0  0.00706  0.24098  0.91735  1.0000
  Fe  Fe61      1.0  0.06885  0.21821  0.89844  1.0000
  S   S121      1.0  0.07843  0.19277  0.89244  1.0000
  Fe  Fe62      1.0  0.05973  0.25465  0.88343  1.0000
  S   S122      1.0  0.05872  0.27515  0.86086  1.0000
  S   S123      1.0  0.05564  0.22186  0.92418  1.0000
  S   S124      1.0  0.04583  0.26074  0.90780  1.0000
  Fe  Fe63      1.0  0.06279  0.17488  0.81613  1.0000
  S   S125      1.0  0.06043  0.17143  0.79166  1.0000
  S   S126      1.0  0.07693  0.19273  0.81870  1.0000
  Fe  Fe64      1.0  0.03703  0.15492  0.83549  1.0000
  S   S127      1.0  0.03233  0.14945  0.81301  1.0000
  S   S128      1.0  0.02161  0.14876  0.86087  1.0000
  Fe  Fe65      1.0  0.05996  0.14485  0.80459  1.0000
  S   S129      1.0  0.07351  0.12425  0.79065  1.0000
  Fe  Fe66      1.0  0.03304  0.17616  0.80198  1.0000
  S   S130      1.0  0.01294  0.19189  0.78865  1.0000
  S   S131      1.0  0.06482  0.14789  0.82831  1.0000
  S   S132      1.0  0.03539  0.18204  0.82515  1.0000
  H   H432      1.0  0.03258  0.15637  0.88840  1.0000
  S   S133      1.0  0.01722  0.26711  0.77608  1.0000
  Fe  Fe67      1.0  0.04754  0.02323  0.75828  1.0000
  H   H433      1.0  0.46948  0.06021  0.76151  1.0000
  C   C272      1.0  0.10072  0.00428  0.78523  1.0000
  Fe  Fe68      1.0  0.04714  0.05873  0.76094  1.0000
  Fe  Fe69      1.0  0.15125  0.30950  0.97654  1.0000
  S   S134      1.0  0.03302  0.08005  0.77368  1.0000
  C   C273      1.0  0.03846  0.16740  0.88438  1.0000
  Fe  Fe70      1.0  0.07864  0.03252  0.76120  1.0000
  H   H434      1.0  0.11637  0.01666  0.73841  1.0000
  H   H435      1.0  0.04720  0.14614  0.77460  1.0000
  S   S135      1.0  0.05324  0.03369  0.77729  1.0000
  C   C274      1.0  0.06188  0.11244  0.78579  1.0000
  C   C275      1.0  0.06884  0.10419  0.77259  1.0000
  C   C276      1.0  0.06013  0.09419  0.76880  1.0000
  C   C277      1.0  0.04434  0.09242  0.77814  1.0000
  C   C278      1.0  0.03732  0.10079  0.79126  1.0000
  C   C279      1.0  0.04611  0.11066  0.79516  1.0000
  H   H436      1.0  0.08103  0.10554  0.76525  1.0000
  H   H437      1.0  0.06554  0.08811  0.75845  1.0000
  H   H438      1.0  0.02514  0.09942  0.79860  1.0000
  H   H439      1.0  0.04080  0.11656  0.80565  1.0000
  C   C280      1.0  0.01424  0.21281  0.78451  1.0000
  H   H440      1.0  0.03752  0.16771  0.77215  1.0000
  H   H441      1.0  0.04037  0.19850  0.86880  1.0000
  C   C281      1.0  0.01588  0.24636  0.77877  1.0000
  C   C282      1.0  0.03047  0.23408  0.77771  1.0000
  C   C283      1.0  0.02964  0.21728  0.78105  1.0000
  S   S136      1.0  0.10153  0.02368  0.77203  1.0000
  H   H442      1.0  0.16260  0.24019  0.94950  1.0000
  H   H443      1.0  0.04243  0.23756  0.77455  1.0000
  H   H444      1.0  0.04095  0.20783  0.78061  1.0000
  H   H445      1.0  0.04107  0.26166  0.79793  1.0000
  C   C284      1.0  0.24650  0.28009  0.97891  1.0000
  C   C285      1.0  0.11409  0.99563  0.79282  1.0000
  H   H446      1.0  0.04372  0.16854  0.87086  1.0000
  C   C286      1.0  0.48181  0.05479  0.76498  1.0000
  C   C287      1.0  0.03820  0.27929  0.85806  1.0000
  C   C288      1.0  0.03391  0.28786  0.84289  1.0000
  C   C289      1.0  0.01784  0.28917  0.84042  1.0000
  H   H447      1.0  0.10687  0.99970  0.75047  1.0000
  H   H448      1.0  0.05023  0.15955  0.75461  1.0000
  C   C290      1.0  0.02623  0.27274  0.87083  1.0000
  H   H449      1.0  0.04308  0.29307  0.83296  1.0000
  H   H450      1.0  0.13969  0.00497  0.75211  1.0000
  H   H451      1.0  0.02914  0.26642  0.88266  1.0000
  C   C291      1.0  0.07745  0.19254  0.83921  1.0000
  C   C292      1.0  0.07669  0.17813  0.85152  1.0000
  C   C293      1.0  0.07762  0.17813  0.86770  1.0000
  C   C294      1.0  0.07850  0.19272  0.87183  1.0000
  C   C295      1.0  0.07892  0.20721  0.85960  1.0000
  C   C296      1.0  0.07879  0.20701  0.84325  1.0000
  H   H452      1.0  0.07596  0.16685  0.84844  1.0000
  H   H453      1.0  0.07764  0.16682  0.87705  1.0000
  H   H454      1.0  0.07987  0.21845  0.86263  1.0000
  H   H455      1.0  0.07985  0.21805  0.83372  1.0000
  H   H456      1.0  0.02034  0.13778  0.78707  1.0000
  H   H457      1.0  0.01459  0.29568  0.82871  1.0000
  C   C297      1.0  0.12475  0.27055  0.93583  1.0000
  C   C298      1.0  0.10967  0.27589  0.94622  1.0000
  C   C299      1.0  0.09507  0.27116  0.94580  1.0000
  C   C300      1.0  0.09520  0.26122  0.93487  1.0000
  C   C301      1.0  0.11022  0.25611  0.92428  1.0000
  C   C302      1.0  0.12487  0.26066  0.92485  1.0000
  H   H458      1.0  0.10931  0.28341  0.95480  1.0000
  H   H459      1.0  0.08356  0.27521  0.95407  1.0000
  H   H460      1.0  0.11064  0.24839  0.91588  1.0000
  H   H461      1.0  0.13643  0.25639  0.91679  1.0000
  C   C303      1.0  0.23816  0.27856  0.96730  1.0000
  H   H462      1.0  0.00325  0.19709  0.88157  1.0000
  H   H463      1.0  0.24519  0.27333  0.95668  1.0000
  N   N28       1.0  0.03996  0.24503  0.82172  1.0000
  C   C304      1.0  0.04960  0.23048  0.81462  1.0000
  C   C305      1.0  0.02199  0.24562  0.82414  1.0000
  C   C306      1.0  0.04403  0.26035  0.81024  1.0000
  C   C307      1.0  0.04420  0.24365  0.83781  1.0000
  H   H464      1.0  0.04672  0.23097  0.80254  1.0000
  H   H465      1.0  0.04691  0.21864  0.82292  1.0000
  H   H466      1.0  0.06322  0.22968  0.81247  1.0000
  H   H467      1.0  0.01435  0.25649  0.82950  1.0000
  H   H468      1.0  0.01842  0.24676  0.81217  1.0000
  H   H469      1.0  0.01846  0.23421  0.83261  1.0000
  H   H470      1.0  0.47910  0.08690  0.74921  1.0000
  H   H471      1.0  0.05747  0.26044  0.80817  1.0000
  H   H472      1.0  0.03684  0.27160  0.81510  1.0000
  H   H473      1.0  0.03632  0.25376  0.84409  1.0000
  H   H474      1.0  0.05738  0.24443  0.83633  1.0000
  H   H475      1.0  0.04240  0.23168  0.84637  1.0000
  C   C308      1.0  0.10139  0.04692  0.80112  1.0000
  H   H476      1.0  0.07673  0.00356  0.78176  1.0000
  C   C309      1.0  0.21184  0.29039  0.98320  1.0000
  S   S137      1.0  0.16239  0.28402  0.97100  1.0000
  H   H477      1.0  0.01332  0.16988  0.91081  1.0000
  H   H478      1.0  0.06159  0.06236  0.79590  1.0000
  H   H479      1.0  0.02041  0.13572  0.75209  1.0000
  C   C310      1.0  0.00613  0.28197  0.85314  1.0000
  H   H480      1.0  0.06321  0.05682  0.82533  1.0000
  S   S138      1.0  0.07353  0.02008  0.74355  1.0000
  S   S139      1.0  0.21079  0.28212  0.95430  1.0000
  N   N29       1.0  0.02611  0.15319  0.76297  1.0000
  C   C311      1.0  0.08462  0.07414  0.80350  1.0000
  C   C312      1.0  0.11544  0.00379  0.73869  1.0000
  S   S140      1.0  0.07306  0.05816  0.74599  1.0000
  C   C313      1.0  0.25548  0.31629  0.95368  1.0000
  C   C314      1.0  0.16928  0.24094  0.95883  1.0000
  H   H481      1.0  0.18036  0.26846  0.94268  1.0000
  C   C315      1.0  0.07620  0.04978  0.82207  1.0000
  C   C316      1.0  0.01034  0.27401  0.86839  1.0000
  H   H482      1.0  0.03784  0.12779  0.76198  1.0000
  C   C317      1.0  0.18711  0.25712  0.93789  1.0000
  H   H483      1.0  0.01423  0.00868  0.74233  1.0000
  C   C318      1.0  0.22081  0.28373  0.96938  1.0000
  C   C319      1.0  0.06339  0.29596  0.89871  1.0000
  C   C320      1.0  0.19556  0.22731  0.94447  1.0000
  C   C321      1.0  0.19504  0.24353  0.96403  1.0000
  H   H484      1.0  0.18876  0.25469  0.96943  1.0000
  H   H485      1.0  0.08031  0.06044  0.78028  1.0000
  H   H486      1.0  0.48450  0.04118  0.76543  1.0000
  H   H487      1.0  0.08308  0.05043  0.83126  1.0000
  H   H488      1.0  0.04473  0.19524  0.88896  1.0000
  N   N30       1.0  0.13190  0.99246  0.73746  1.0000
  H   H489      1.0  0.00656  0.16577  0.74968  1.0000
  N   N31       1.0  0.02634  0.18260  0.88799  1.0000
  H   H490      1.0  0.20875  0.22794  0.93865  1.0000
  C   C322      1.0  0.01976  0.18050  0.90602  1.0000
  C   C323      1.0  0.01254  0.18558  0.87936  1.0000
  H   H491      1.0  0.03992  0.14187  0.74235  1.0000
  H   H492      1.0  0.00665  0.16666  0.83296  1.0000
  H   H493      1.0  0.05668  0.30850  0.90094  1.0000
  H   H494      1.0  0.12483  0.00103  0.79072  1.0000
  H   H495      1.0  0.07630  0.30392  0.86626  1.0000
  C   C324      1.0  0.07468  0.05539  0.79332  1.0000
  H   H496      1.0  0.02989  0.17821  0.91290  1.0000
  H   H497      1.0  0.02576  0.20868  0.88442  1.0000
  H   H498      1.0  0.20816  0.24480  0.95871  1.0000
  H   H499      1.0  0.10269  0.29985  0.89661  1.0000
  H   H500      1.0  0.02624  0.17172  0.74046  1.0000
  H   H501      1.0  0.16842  0.22985  0.96904  1.0000
  H   H502      1.0  0.08802  0.29210  0.91422  1.0000
  N   N32       1.0  0.18675  0.24221  0.95133  1.0000
  C   C325      1.0  0.03127  0.13906  0.75444  1.0000
  H   H503      1.0  0.10916  0.04788  0.80935  1.0000
  H   H504      1.0  0.09054  0.07970  0.79075  1.0000
  C   C326      1.0  0.03608  0.99149  0.74902  1.0000
  C   C327      1.0  0.03462  0.19691  0.88223  1.0000
  H   H505      1.0  0.01045  0.15926  0.78565  1.0000
  H   H506      1.0  0.04901  0.16472  0.89076  1.0000
  N   N33       1.0  0.08108  0.29567  0.89089  1.0000
  H   H507      1.0  0.05691  0.29242  0.89076  1.0000
  C   C328      1.0  0.08917  0.30050  0.90179  1.0000
  C   C329      1.0  0.01777  0.16802  0.75244  1.0000
  H   H508      1.0  0.10755  0.05132  0.78808  1.0000
  C   C330      1.0  0.04091  0.15680  0.76620  1.0000
  H   H509      1.0  0.18960  0.22600  0.93483  1.0000
  H   H510      1.0  0.10154  0.03351  0.80252  1.0000
  H   H511      1.0  0.19554  0.21581  0.95428  1.0000
  S   S141      1.0  0.03601  0.00065  0.76529  1.0000
  H   H512      1.0  0.07185  0.08176  0.80634  1.0000
  H   H513      1.0  0.01714  0.18668  0.86576  1.0000
  H   H514      1.0  0.08344  0.31334  0.90373  1.0000
  H   H515      1.0  0.09170  0.07558  0.81214  1.0000
  H   H516      1.0  0.07436  0.04225  0.79408  1.0000
  H   H517      1.0  0.07563  0.03655  0.82358  1.0000
  H   H518      1.0  0.25791  0.31361  0.92234  1.0000
  N   N34       1.0  0.08423  0.05657  0.80501  1.0000
  C   C331      1.0  0.08230  0.30738  0.87471  1.0000
  H   H519      1.0  0.18092  0.25667  0.92805  1.0000
  H   H520      1.0  0.08382  0.27487  0.87990  1.0000
  H   H521      1.0  0.19505  0.23252  0.97440  1.0000
  C   C332      1.0  0.08942  0.27875  0.88835  1.0000
  H   H522      1.0  0.23279  0.30772  0.94174  1.0000
  C   C333      1.0  0.08694  0.99719  0.78785  1.0000
  H   H523      1.0  0.25984  0.27583  0.97736  1.0000
  H   H524      1.0  0.16220  0.25205  0.96402  1.0000
  H   H525      1.0  0.06205  0.28710  0.91090  1.0000
  C   C334      1.0  0.13933  0.99222  0.75138  1.0000
  H   H526      1.0  0.00588  0.17512  0.88370  1.0000
  C   C335      1.0  0.02330  0.99751  0.74015  1.0000
  C   C336      1.0  0.01449  0.14892  0.77881  1.0000
  H   H527      1.0  0.01369  0.17885  0.75865  1.0000
  H   H528      1.0  0.09549  0.30742  0.86845  1.0000
  Fe  Fe71      1.0  0.29489  0.31486  0.97595  1.0000
  H   H529      1.0  0.48071  0.05645  0.77775  1.0000
  H   H530      1.0  0.24861  0.31567  0.96675  1.0000
  H   H531      1.0  0.00313  0.14618  0.77686  1.0000
  C   C337      1.0  0.49114  0.08061  0.75302  1.0000
  H   H532      1.0  0.49046  0.08294  0.76542  1.0000
  C   C338      1.0  0.00045  0.24188  0.78237  1.0000
  H   H533      1.0  0.99857  0.21343  0.94321  1.0000
  S   S142      1.0  0.13772  0.31786  0.95535  1.0000
  H   H534      1.0  0.00152  0.26845  0.87838  1.0000
  H   H535      1.0  0.07604  0.32029  0.87610  1.0000
  H   H536      1.0  0.22297  0.31929  0.95771  1.0000
  C   C339      1.0  0.00091  0.15770  0.85933  1.0000
  C   C340      1.0  0.22985  0.32031  0.94462  1.0000
  C   C341      1.0  0.99970  0.22513  0.78480  1.0000
  S   S143      1.0  0.17365  0.32008  0.96291  1.0000
  N   N35       1.0  0.49498  0.06263  0.75313  1.0000
  S   S144      1.0  0.99916  0.30105  0.80158  1.0000
  C   C342      1.0  0.49591  0.06022  0.73637  1.0000
  H   H537      1.0  0.26680  0.32113  0.95235  1.0000
  C   C343      1.0  0.99704  0.16587  0.84392  1.0000
  C   C344      1.0  0.99689  0.22509  0.91801  1.0000
  H   H538      1.0  0.03367  0.56406  0.13738  1.0000
  H   H539      1.0  0.16731  0.36797  0.98980  1.0000
  H   H540      1.0  0.15207  0.38642  0.98505  1.0000
  C   C345      1.0  0.01598  0.59362  0.19752  1.0000
  C   C346      1.0  0.00859  0.61496  0.17395  1.0000
  C   C347      1.0  0.03957  0.57660  0.16056  1.0000
  Fe  Fe72      1.0  0.18426  0.40049  0.03160  1.0000
  S   S145      1.0  0.18381  0.37561  0.02777  1.0000
  S   S146      1.0  0.20034  0.41696  0.01362  1.0000
  Fe  Fe73      1.0  0.15963  0.39777  0.06426  1.0000
  S   S147      1.0  0.15614  0.37280  0.06325  1.0000
  S   S148      1.0  0.14624  0.41044  0.08568  1.0000
  Fe  Fe74      1.0  0.18382  0.36737  0.05492  1.0000
  S   S149      1.0  0.19961  0.34379  0.06568  1.0000
  Fe  Fe75      1.0  0.15624  0.38305  0.03623  1.0000
  S   S150      1.0  0.13839  0.38057  0.02200  1.0000
  S   S151      1.0  0.18734  0.39143  0.05784  1.0000
  S   S152      1.0  0.15665  0.40880  0.03810  1.0000
  Fe  Fe76      1.0  0.05497  0.52816  0.21043  1.0000
  S   S153      1.0  0.01389  0.65620  0.07864  1.0000
  S   S154      1.0  0.06081  0.51264  0.19139  1.0000
  C   C348      1.0  0.14934  0.51972  0.21763  1.0000
  H   H541      1.0  0.14618  0.45665  0.05323  1.0000
  C   C349      1.0  0.00354  0.65196  0.18895  1.0000
  C   C350      1.0  0.00445  0.60234  0.18756  1.0000
  N   N36       1.0  0.23432  0.37301  0.98996  1.0000
  S   S155      1.0  0.05714  0.55472  0.20481  1.0000
  Fe  Fe77      1.0  0.14719  0.47410  0.16438  1.0000
  S   S156      1.0  0.17447  0.46285  0.16094  1.0000
  S   S157      1.0  0.13769  0.50151  0.16218  1.0000
  Fe  Fe78      1.0  0.13743  0.44073  0.17544  1.0000
  S   S158      1.0  0.16377  0.42673  0.17298  1.0000
  S   S159      1.0  0.11668  0.42707  0.18566  1.0000
  Fe  Fe79      1.0  0.16726  0.44566  0.18516  1.0000
  S   S160      1.0  0.17921  0.43775  0.20751  1.0000
  Fe  Fe80      1.0  0.16806  0.44511  0.14909  1.0000
  S   S161      1.0  0.18422  0.43553  0.12655  1.0000
  S   S162      1.0  0.14049  0.45824  0.18938  1.0000
  S   S163      1.0  0.14125  0.45792  0.15066  1.0000
  H   H542      1.0  0.49345  0.36406  0.20709  1.0000
  H   H543      1.0  0.18957  0.43848  0.05918  1.0000
  H   H544      1.0  0.18657  0.47047  0.19486  1.0000
  H   H545      1.0  0.22093  0.38376  0.01104  1.0000
  H   H546      1.0  0.14075  0.52467  0.17977  1.0000
  H   H547      1.0  0.27433  0.33519  0.05820  1.0000
  C   C351      1.0  0.06714  0.47101  0.21772  1.0000
  C   C352      1.0  0.02581  0.56135  0.14998  1.0000
  H   H548      1.0  0.17229  0.41325  0.00284  1.0000
  S   S164      1.0  0.27042  0.34792  0.02091  1.0000
  C   C353      1.0  0.11850  0.41633  0.20580  1.0000
  H   H549      1.0  0.16867  0.43979  0.02546  1.0000
  H   H550      1.0  0.14293  0.42053  0.20359  1.0000
  H   H551      1.0  0.04614  0.57651  0.17030  1.0000
  C   C354      1.0  0.10625  0.40229  0.23298  1.0000
  S   S165      1.0  0.02965  0.63506  0.15402  1.0000
  H   H552      1.0  0.02023  0.54480  0.18179  1.0000
  H   H553      1.0  0.19556  0.41633  0.18438  1.0000
  C   C355      1.0  0.03576  0.61017  0.18036  1.0000
  C   C356      1.0  0.03165  0.59753  0.19390  1.0000
  C   C357      1.0  0.18158  0.41675  0.99208  1.0000
  Fe  Fe81      1.0  0.06748  0.54767  0.22793  1.0000
  C   C358      1.0  0.09409  0.45481  0.20817  1.0000
  H   H554      1.0  0.04051  0.59101  0.20169  1.0000
  C   C359      1.0  0.08177  0.51050  0.18161  1.0000
  C   C360      1.0  0.09061  0.52246  0.18092  1.0000
  C   C361      1.0  0.10764  0.52015  0.17391  1.0000
  C   C362      1.0  0.11602  0.50543  0.16854  1.0000
  C   C363      1.0  0.10714  0.49354  0.16912  1.0000
  C   C364      1.0  0.08993  0.49630  0.17521  1.0000
  H   H555      1.0  0.08435  0.53353  0.18570  1.0000
  H   H556      1.0  0.11434  0.52961  0.17302  1.0000
  H   H557      1.0  0.11348  0.48225  0.16478  1.0000
  H   H558      1.0  0.08306  0.48717  0.17545  1.0000
  C   C365      1.0  0.15718  0.41727  0.09677  1.0000
  C   C366      1.0  0.14846  0.42317  0.11112  1.0000
  C   C367      1.0  0.15670  0.42856  0.12040  1.0000
  C   C368      1.0  0.17372  0.42839  0.11526  1.0000
  C   C369      1.0  0.18249  0.42245  0.10090  1.0000
  C   C370      1.0  0.17427  0.41682  0.09173  1.0000
  H   H559      1.0  0.13525  0.42353  0.11517  1.0000
  H   H560      1.0  0.14982  0.43283  0.13155  1.0000
  H   H561      1.0  0.19568  0.42219  0.09688  1.0000
  H   H562      1.0  0.18117  0.41228  0.08075  1.0000
  C   C371      1.0  0.13955  0.36143  0.01692  1.0000
  C   C372      1.0  0.15256  0.34777  0.01977  1.0000
  H   H563      1.0  0.18677  0.49236  0.20903  1.0000
  H   H564      1.0  0.17643  0.34517  0.12857  1.0000
  C   C373      1.0  0.12796  0.34532  0.00465  1.0000
  C   C374      1.0  0.12733  0.36015  0.00929  1.0000
  H   H565      1.0  0.16200  0.34860  0.02572  1.0000
  H   H566      1.0  0.04679  0.53486  0.16377  1.0000
  H   H567      1.0  0.11720  0.37063  0.00713  1.0000
  C   C375      1.0  0.21994  0.34417  0.05465  1.0000
  C   C376      1.0  0.22657  0.35819  0.05236  1.0000
  C   C377      1.0  0.24240  0.35901  0.04250  1.0000
  C   C378      1.0  0.25139  0.34602  0.03453  1.0000
  C   C379      1.0  0.10527  0.40972  0.21649  1.0000
  H   H568      1.0  0.31715  0.32561  0.06632  1.0000
  H   H569      1.0  0.21953  0.36839  0.05823  1.0000
  H   H570      1.0  0.24746  0.36991  0.04069  1.0000
  H   H571      1.0  0.05699  0.54638  0.17138  1.0000
  C   C380      1.0  0.13396  0.40736  0.22789  1.0000
  C   C381      1.0  0.15322  0.33289  0.01504  1.0000
  H   H572      1.0  0.04786  0.61329  0.17770  1.0000
  C   C382      1.0  0.16563  0.34592  0.12314  1.0000
  C   C383      1.0  0.30345  0.32669  0.06839  1.0000
  H   H573      1.0  0.01461  0.64276  0.19260  1.0000
  C   C384      1.0  0.18266  0.48117  0.21622  1.0000
  N   N37       1.0  0.08402  0.46400  0.22109  1.0000
  Fe  Fe82      1.0  0.01033  0.65019  0.13935  1.0000
  H   H574      1.0  0.08828  0.44475  0.20755  1.0000
  H   H575      1.0  0.13488  0.36006  0.11716  1.0000
  C   C385      1.0  0.15773  0.44750  0.05557  1.0000
  C   C386      1.0  0.14093  0.33165  0.00744  1.0000
  S   S166      1.0  0.06776  0.52065  0.23178  1.0000
  H   H576      1.0  0.19879  0.44158  0.03737  1.0000
  H   H577      1.0  0.49369  0.34248  0.19216  1.0000
  H   H578      1.0  0.01432  0.57129  0.15052  1.0000
  H   H579      1.0  0.09234  0.48670  0.20908  1.0000
  H   H580      1.0  0.15021  0.38749  0.11896  1.0000
  H   H581      1.0  0.18141  0.45477  0.01673  1.0000
  H   H582      1.0  0.23106  0.34888  0.98963  1.0000
  C   C387      1.0  0.22915  0.33095  0.04714  1.0000
  H   H583      1.0  0.15557  0.34174  0.13341  1.0000
  H   H584      1.0  0.12130  0.53996  0.20904  1.0000
  H   H585      1.0  0.10678  0.44896  0.21055  1.0000
  H   H586      1.0  0.16961  0.33687  0.11478  1.0000
  H   H587      1.0  0.15584  0.43508  0.05552  1.0000
  H   H588      1.0  0.18568  0.47165  0.03458  1.0000
  H   H589      1.0  0.15894  0.44711  0.06835  1.0000
  N   N38       1.0  0.17251  0.45168  0.04312  1.0000
  H   H590      1.0  0.26079  0.36422  0.98725  1.0000
  C   C388      1.0  0.17032  0.45201  0.02641  1.0000
  H   H591      1.0  0.14108  0.37603  0.10005  1.0000
  Fe  Fe83      1.0  0.28046  0.32620  0.00839  1.0000
  N   N39       1.0  0.21830  0.42260  0.16902  1.0000
  C   C389      1.0  0.21564  0.43834  0.17454  1.0000
  C   C390      1.0  0.20915  0.41108  0.18198  1.0000
  C   C391      1.0  0.23623  0.41503  0.16604  1.0000
  C   C392      1.0  0.21215  0.42595  0.15356  1.0000
  H   H592      1.0  0.20226  0.44443  0.17680  1.0000
  H   H593      1.0  0.22241  0.44734  0.16515  1.0000
  H   H594      1.0  0.21978  0.43626  0.18640  1.0000
  H   H595      1.0  0.21098  0.39899  0.17836  1.0000
  H   H596      1.0  0.21312  0.40861  0.19398  1.0000
  H   H597      1.0  0.23868  0.40312  0.16186  1.0000
  H   H598      1.0  0.24126  0.41235  0.17748  1.0000
  H   H599      1.0  0.24349  0.42341  0.15631  1.0000
  H   H600      1.0  0.21389  0.41441  0.14895  1.0000
  H   H601      1.0  0.21854  0.43478  0.14349  1.0000
  H   H602      1.0  0.19864  0.43153  0.15540  1.0000
  N   N40       1.0  0.14008  0.51799  0.20594  1.0000
  H   H603      1.0  0.09418  0.41054  0.21209  1.0000
  H   H604      1.0  0.00293  0.64685  0.22142  1.0000
  H   H605      1.0  0.18616  0.42650  0.04636  1.0000
  C   C393      1.0  0.13277  0.41525  0.21159  1.0000
  H   H606      1.0  0.29832  0.34335  0.03778  1.0000
  S   S167      1.0  0.01058  0.57796  0.21447  1.0000
  H   H607      1.0  0.15402  0.49368  0.20286  1.0000
  H   H608      1.0  0.16578  0.37518  0.13031  1.0000
  C   C394      1.0  0.17798  0.45395  0.21738  1.0000
  H   H609      1.0  0.15926  0.46146  0.02316  1.0000
  C   C395      1.0  0.19633  0.41979  0.99387  1.0000
  H   H610      1.0  0.17630  0.46830  0.05627  1.0000
  C   C396      1.0  0.18260  0.46875  0.20817  1.0000
  C   C397      1.0  0.14553  0.36340  0.10721  1.0000
  H   H611      1.0  0.99968  0.62167  0.16626  1.0000
  C   C398      1.0  0.17461  0.46815  0.04381  1.0000
  N   N41       1.0  0.03478  0.56055  0.16294  1.0000
  C   C399      1.0  0.04989  0.54724  0.16181  1.0000
  H   H612      1.0  0.14464  0.51349  0.23055  1.0000
  C   C400      1.0  0.23320  0.38281  0.00231  1.0000
  H   H613      1.0  0.16987  0.38056  0.09338  1.0000
  C   C401      1.0  0.18742  0.43905  0.04672  1.0000
  C   C402      1.0  0.02426  0.61891  0.17040  1.0000
  H   H614      1.0  0.24295  0.37711  0.00978  1.0000
  H   H615      1.0  0.23483  0.39570  0.99629  1.0000
  H   H616      1.0  0.00137  0.64883  0.17795  1.0000
  C   C403      1.0  0.15507  0.37466  0.12539  1.0000
  H   H617      1.0  0.14871  0.35459  0.09869  1.0000
  H   H618      1.0  0.09562  0.46302  0.19567  1.0000
  H   H619      1.0  0.03007  0.55651  0.18949  1.0000
  H   H620      1.0  0.16357  0.47799  0.04116  1.0000
  C   C404      1.0  0.12252  0.52639  0.21033  1.0000
  H   H621      1.0  0.20937  0.38465  0.98679  1.0000
  N   N42       1.0  0.15996  0.36293  0.11405  1.0000
  H   H622      1.0  0.14508  0.37117  0.13610  1.0000
  C   C405      1.0  0.17363  0.36775  0.10040  1.0000
  H   H623      1.0  0.17746  0.35931  0.09146  1.0000
  H   H624      1.0  0.16065  0.51959  0.18520  1.0000
  H   H625      1.0  0.14689  0.53915  0.18778  1.0000
  H   H626      1.0  0.10487  0.47270  0.22296  1.0000
  C   C406      1.0  0.14741  0.52572  0.18894  1.0000
  H   H627      1.0  0.18483  0.36737  0.10502  1.0000
  H   H628      1.0  0.35125  0.32655  0.01925  1.0000
  C   C407      1.0  0.02384  0.55699  0.17940  1.0000
  H   H629      1.0  0.02205  0.54940  0.15141  1.0000
  H   H630      1.0  0.24002  0.34941  0.00613  1.0000
  H   H631      1.0  0.06753  0.47808  0.20477  1.0000
  H   H632      1.0  0.11825  0.34435  0.99911  1.0000
  H   H633      1.0  0.01226  0.56675  0.18073  1.0000
  C   C408      1.0  0.24477  0.33198  0.03692  1.0000
  H   H634      1.0  0.05842  0.54940  0.14954  1.0000
  C   C409      1.0  0.14102  0.50022  0.20684  1.0000
  H   H635      1.0  0.05984  0.47976  0.22590  1.0000
  H   H636      1.0  0.08482  0.48444  0.23099  1.0000
  C   C410      1.0  0.30489  0.33009  0.03918  1.0000
  H   H637      1.0  0.02849  0.58696  0.16112  1.0000
  H   H638      1.0  0.16277  0.51412  0.21435  1.0000
  H   H639      1.0  0.04798  0.57963  0.14836  1.0000
  H   H640      1.0  0.11488  0.52487  0.20229  1.0000
  H   H641      1.0  0.29747  0.34002  0.06800  1.0000
  H   H642      1.0  0.13367  0.49856  0.19854  1.0000
  C   C411      1.0  0.23069  0.35651  0.99852  1.0000
  H   H643      1.0  0.06011  0.46110  0.21959  1.0000
  S   S168      1.0  0.09128  0.55397  0.22857  1.0000
  H   H644      1.0  0.21826  0.35755  0.00698  1.0000
  H   H645      1.0  0.31843  0.32978  0.03668  1.0000
  H   H646      1.0  0.13631  0.49380  0.21965  1.0000
  C   C412      1.0  0.09189  0.47756  0.22105  1.0000
  H   H647      1.0  0.14839  0.53298  0.21766  1.0000
  H   H648      1.0  0.30254  0.32519  0.02931  1.0000
  H   H649      1.0  0.11678  0.52141  0.22335  1.0000
  H   H650      1.0  0.46069  0.32593  0.08998  1.0000
  H   H651      1.0  0.14513  0.40644  0.23214  1.0000
  S   S169      1.0  0.02941  0.53204  0.22604  1.0000
  C   C413      1.0  0.17751  0.47916  0.23347  1.0000
  Fe  Fe84      1.0  0.03228  0.55831  0.22208  1.0000
  H   H652      1.0  0.10490  0.47992  0.30514  1.0000
  C   C414      1.0  0.41610  0.62335  0.39391  1.0000
  H   H653      1.0  0.01840  0.32901  0.30873  1.0000
  S   S170      1.0  0.17031  0.60441  0.46850  1.0000
  C   C415      1.0  0.22838  0.62240  0.39698  1.0000
  S   S171      1.0  0.28846  0.60594  0.43417  1.0000
  H   H654      1.0  0.22106  0.65124  0.42222  1.0000
  C   C416      1.0  0.02767  0.33614  0.30189  1.0000
  S   S172      1.0  0.32786  0.60884  0.42311  1.0000
  H   H655      1.0  0.28450  0.55961  0.45353  1.0000
  Fe  Fe85      1.0  0.30966  0.60135  0.41297  1.0000
  S   S173      1.0  0.31729  0.57713  0.40420  1.0000
  Fe  Fe86      1.0  0.30599  0.61574  0.44285  1.0000
  S   S174      1.0  0.31008  0.60934  0.46873  1.0000
  H   H656      1.0  0.29868  0.54990  0.43740  1.0000
  H   H657      1.0  0.02931  0.49804  0.24578  1.0000
  Fe  Fe87      1.0  0.20968  0.57282  0.39437  1.0000
  S   S175      1.0  0.19575  0.55242  0.40740  1.0000
  S   S176      1.0  0.19922  0.60010  0.39351  1.0000
  Fe  Fe88      1.0  0.24280  0.54900  0.38999  1.0000
  S   S177      1.0  0.23162  0.52678  0.40314  1.0000
  S   S178      1.0  0.27025  0.54598  0.37938  1.0000
  Fe  Fe89      1.0  0.21185  0.53848  0.38786  1.0000
  S   S179      1.0  0.20144  0.52092  0.37865  1.0000
  Fe  Fe90      1.0  0.21662  0.54272  0.42129  1.0000
  S   S180      1.0  0.21136  0.53630  0.44931  1.0000
  S   S181      1.0  0.22414  0.55991  0.37354  1.0000
  S   S182      1.0  0.22952  0.56379  0.40926  1.0000
  C   C417      1.0  0.09670  0.48641  0.29613  1.0000
  H   H658      1.0  0.15499  0.52065  0.32910  1.0000
  S   S183      1.0  0.03714  0.50926  0.27148  1.0000
  Fe  Fe91      1.0  0.06202  0.41972  0.27489  1.0000
  S   S184      1.0  0.08607  0.42489  0.27612  1.0000
  S   S185      1.0  0.04491  0.43751  0.25924  1.0000
  Fe  Fe92      1.0  0.06627  0.38649  0.29858  1.0000
  S   S186      1.0  0.09081  0.38860  0.30249  1.0000
  S   S187      1.0  0.05208  0.36609  0.31203  1.0000
  Fe  Fe93      1.0  0.07897  0.41528  0.30328  1.0000
  S   S188      1.0  0.08242  0.42892  0.32107  1.0000
  Fe  Fe94      1.0  0.09620  0.39812  0.27503  1.0000
  S   S189      1.0  0.12165  0.39257  0.25947  1.0000
  S   S190      1.0  0.05380  0.41235  0.30227  1.0000
  S   S191      1.0  0.07282  0.39378  0.27094  1.0000
  Fe  Fe95      1.0  0.13755  0.50778  0.29483  1.0000
  S   S192      1.0  0.16079  0.51668  0.28106  1.0000
  S   S193      1.0  0.11184  0.52371  0.29797  1.0000
  Fe  Fe96      1.0  0.15568  0.47253  0.30341  1.0000
  S   S194      1.0  0.18083  0.47839  0.29063  1.0000
  S   S195      1.0  0.15160  0.44676  0.31594  1.0000
  Fe  Fe97      1.0  0.17225  0.50086  0.30254  1.0000
  S   S196      1.0  0.18860  0.51410  0.31022  1.0000
  Fe  Fe98      1.0  0.16744  0.49368  0.27044  1.0000
  C   C418      1.0  0.24915  0.63204  0.37385  1.0000
  S   S197      1.0  0.14818  0.49354  0.31707  1.0000
  S   S198      1.0  0.14306  0.48628  0.28244  1.0000
  H   H659      1.0  0.31654  0.56305  0.47370  1.0000
  H   H660      1.0  0.07525  0.46593  0.30345  1.0000
  C   C419      1.0  0.24830  0.54525  0.47515  1.0000
  H   H661      1.0  0.99877  0.41850  0.29891  1.0000
  H   H662      1.0  0.31281  0.52811  0.45711  1.0000
  H   H663      1.0  0.03498  0.40596  0.26646  1.0000
  C   C420      1.0  0.47746  0.64585  0.37856  1.0000
  H   H664      1.0  0.07221  0.51113  0.28593  1.0000
  H   H665      1.0  0.15679  0.42689  0.29194  1.0000
  C   C421      1.0  0.23988  0.60716  0.37498  1.0000
  H   H666      1.0  0.16883  0.46272  0.25603  1.0000
  C   C422      1.0  0.04531  0.35484  0.30126  1.0000
  C   C423      1.0  0.03328  0.34544  0.30992  1.0000
  H   H667      1.0  0.23756  0.59724  0.47691  1.0000
  C   C424      1.0  0.04581  0.34585  0.27631  1.0000
  C   C425      1.0  0.05155  0.35504  0.28439  1.0000
  C   C426      1.0  0.41692  0.64297  0.36777  1.0000
  H   H668      1.0  0.06095  0.36209  0.27760  1.0000
  C   C427      1.0  0.17268  0.46442  0.24271  1.0000
  H   H669      1.0  0.15398  0.56357  0.30401  1.0000
  H   H670      1.0  0.48103  0.63896  0.39010  1.0000
  S   S199      1.0  0.29841  0.64208  0.42980  1.0000
  H   H671      1.0  0.00906  0.37550  0.29066  1.0000
  C   C428      1.0  0.10224  0.43302  0.31866  1.0000
  C   C429      1.0  0.10967  0.44258  0.30398  1.0000
  C   C430      1.0  0.12455  0.44742  0.30315  1.0000
  C   C431      1.0  0.13229  0.44221  0.31681  1.0000
  C   C432      1.0  0.12507  0.43224  0.33121  1.0000
  C   C433      1.0  0.10993  0.42801  0.33226  1.0000
  H   H672      1.0  0.10372  0.44655  0.29345  1.0000
  H   H673      1.0  0.13017  0.45491  0.29189  1.0000
  H   H674      1.0  0.13102  0.42806  0.34176  1.0000
  H   H675      1.0  0.10417  0.42080  0.34370  1.0000
  H   H676      1.0  0.30658  0.57901  0.45908  1.0000
  H   H677      1.0  0.16706  0.55227  0.31857  1.0000
  C   C434      1.0  0.11833  0.53436  0.26422  1.0000
  C   C435      1.0  0.10616  0.53257  0.27873  1.0000
  C   C436      1.0  0.08933  0.53762  0.27785  1.0000
  C   C437      1.0  0.08468  0.54388  0.26244  1.0000
  H   H678      1.0  0.36240  0.64579  0.44337  1.0000
  H   H679      1.0  0.13135  0.53063  0.26479  1.0000
  H   H680      1.0  0.07986  0.53658  0.28904  1.0000
  H   H681      1.0  0.26508  0.54608  0.45135  1.0000
  C   C438      1.0  0.03810  0.48935  0.26861  1.0000
  C   C439      1.0  0.04361  0.47537  0.28021  1.0000
  C   C440      1.0  0.04560  0.45939  0.27743  1.0000
  C   C441      1.0  0.04137  0.45736  0.26341  1.0000
  C   C442      1.0  0.03511  0.47130  0.25223  1.0000
  C   C443      1.0  0.03383  0.48730  0.25463  1.0000
  H   H682      1.0  0.04659  0.47685  0.29122  1.0000
  H   H683      1.0  0.05031  0.44868  0.28620  1.0000
  N   N43       1.0  0.22808  0.59859  0.45547  1.0000
  H   H684      1.0  0.26040  0.61436  0.40079  1.0000
  C   C444      1.0  0.19717  0.51999  0.35957  1.0000
  C   C445      1.0  0.18904  0.50762  0.35940  1.0000
  C   C446      1.0  0.18614  0.50571  0.34451  1.0000
  C   C447      1.0  0.19154  0.51607  0.32950  1.0000
  C   C448      1.0  0.19966  0.52846  0.32966  1.0000
  C   C449      1.0  0.20238  0.53050  0.34459  1.0000
  H   H685      1.0  0.18506  0.49932  0.37088  1.0000
  H   H686      1.0  0.18000  0.49603  0.34463  1.0000
  H   H687      1.0  0.20393  0.53654  0.31813  1.0000
  H   H688      1.0  0.20867  0.54006  0.34446  1.0000
  H   H689      1.0  0.32901  0.54690  0.43463  1.0000
  C   C450      1.0  0.25283  0.54463  0.45828  1.0000
  C   C451      1.0  0.24157  0.54197  0.45024  1.0000
  C   C452      1.0  0.22578  0.53965  0.45907  1.0000
  H   H690      1.0  0.25096  0.60318  0.36553  1.0000
  H   H691      1.0  0.08448  0.49272  0.32664  1.0000
  H   H692      1.0  0.24525  0.54136  0.43728  1.0000
  H   H693      1.0  0.14286  0.56183  0.34066  1.0000
  H   H694      1.0  0.21798  0.62968  0.39073  1.0000
  H   H695      1.0  0.07524  0.45894  0.24747  1.0000
  H   H696      1.0  0.20351  0.60632  0.46928  1.0000
  H   H697      1.0  0.28086  0.59645  0.47352  1.0000
  S   S200      1.0  0.30327  0.62648  0.39694  1.0000
  N   N44       1.0  0.40804  0.63964  0.38522  1.0000
  H   H698      1.0  0.22393  0.61150  0.40564  1.0000
  H   H699      1.0  0.29726  0.57123  0.43698  1.0000
  C   C453      1.0  0.24252  0.64740  0.43278  1.0000
  N   N45       1.0  0.07904  0.48962  0.30455  1.0000
  H   H700      1.0  0.09602  0.39720  0.24113  1.0000
  C   C454      1.0  0.35080  0.64844  0.42286  1.0000
  H   H701      1.0  0.43023  0.64300  0.36684  1.0000
  H   H702      1.0  0.07167  0.54754  0.26182  1.0000
  C   C455      1.0  0.08302  0.45252  0.23740  1.0000
  H   H703      1.0  0.26066  0.62857  0.36464  1.0000
  C   C456      1.0  0.30345  0.56932  0.39748  1.0000
  C   C457      1.0  0.31010  0.55908  0.38593  1.0000
  C   C458      1.0  0.29975  0.55215  0.38052  1.0000
  C   C459      1.0  0.28262  0.55499  0.38687  1.0000
  C   C460      1.0  0.27591  0.56491  0.39879  1.0000
  C   C461      1.0  0.28629  0.57224  0.40397  1.0000
  H   H704      1.0  0.32335  0.55662  0.38100  1.0000
  H   H705      1.0  0.30509  0.54445  0.37139  1.0000
  H   H706      1.0  0.26281  0.56682  0.40406  1.0000
  H   H707      1.0  0.28110  0.57986  0.41315  1.0000
  C   C462      1.0  0.17802  0.60421  0.44748  1.0000
  C   C463      1.0  0.17885  0.61875  0.43529  1.0000
  C   C464      1.0  0.18519  0.61768  0.41855  1.0000
  C   C465      1.0  0.19088  0.60209  0.41417  1.0000
  C   C466      1.0  0.19038  0.58776  0.42654  1.0000
  C   C467      1.0  0.18381  0.58878  0.44303  1.0000
  H   H708      1.0  0.17432  0.63075  0.43868  1.0000
  H   H709      1.0  0.18553  0.62886  0.40906  1.0000
  H   H710      1.0  0.19496  0.57572  0.42355  1.0000
  H   H711      1.0  0.18337  0.57747  0.45233  1.0000
  C   C468      1.0  0.24808  0.64751  0.44679  1.0000
  H   H712      1.0  0.20828  0.61913  0.44919  1.0000
  H   H713      1.0  0.12335  0.55604  0.34325  1.0000
  H   H714      1.0  0.17115  0.42591  0.27266  1.0000
  S   S201      1.0  0.17711  0.49549  0.24287  1.0000
  N   N46       1.0  0.15388  0.40963  0.27903  1.0000
  C   C469      1.0  0.15809  0.42538  0.27910  1.0000
  C   C470      1.0  0.13633  0.40967  0.28736  1.0000
  C   C471      1.0  0.16475  0.39559  0.28793  1.0000
  C   C472      1.0  0.15635  0.40785  0.26176  1.0000
  H   H715      1.0  0.16973  0.44024  0.24183  1.0000
  H   H716      1.0  0.34416  0.63855  0.42895  1.0000
  H   H717      1.0  0.16939  0.57062  0.48160  1.0000
  H   H718      1.0  0.12769  0.41995  0.28088  1.0000
  H   H719      1.0  0.13278  0.39790  0.28759  1.0000
  C   C473      1.0  0.22136  0.53996  0.47600  1.0000
  H   H720      1.0  0.16185  0.38350  0.28816  1.0000
  H   H721      1.0  0.16315  0.39663  0.30102  1.0000
  H   H722      1.0  0.17809  0.39515  0.28200  1.0000
  H   H723      1.0  0.15371  0.39588  0.26125  1.0000
  H   H724      1.0  0.16932  0.40824  0.25489  1.0000
  H   H725      1.0  0.14789  0.41796  0.25487  1.0000
  H   H726      1.0  0.00310  0.39651  0.26525  1.0000
  C   C474      1.0  0.21394  0.65504  0.44725  1.0000
  H   H727      1.0  0.23946  0.63996  0.36696  1.0000
  Fe  Fe99      1.0  0.31943  0.63462  0.40928  1.0000
  H   H728      1.0  0.08141  0.46619  0.32190  1.0000
  H   H729      1.0  0.23364  0.57738  0.44422  1.0000
  C   C475      1.0  0.24129  0.60625  0.44348  1.0000
  H   H730      1.0  0.13752  0.52636  0.34498  1.0000
  H   H731      1.0  0.06058  0.47562  0.31910  1.0000
  H   H732      1.0  0.05080  0.34593  0.26329  1.0000
  C   C476      1.0  0.22544  0.65120  0.43303  1.0000
  H   H733      1.0  0.41139  0.65539  0.36100  1.0000
  H   H734      1.0  0.25198  0.63983  0.38103  1.0000
  H   H735      1.0  0.10084  0.49817  0.28949  1.0000
  Fe  Fe100     1.0  0.28299  0.63163  0.41888  1.0000
  C   C477      1.0  0.25678  0.60707  0.39372  1.0000
  H   H736      1.0  0.25268  0.59615  0.40264  1.0000
  N   N47       1.0  0.31017  0.55429  0.45513  1.0000
  H   H737      1.0  0.23589  0.59572  0.38296  1.0000
  H   H738      1.0  0.32694  0.56778  0.43651  1.0000
  C   C478      1.0  0.32647  0.55494  0.44378  1.0000
  Fe  Fe101     1.0  0.18048  0.65366  0.48259  1.0000
  H   H739      1.0  0.42931  0.62306  0.39371  1.0000
  C   C479      1.0  0.11366  0.54144  0.24891  1.0000
  C   C480      1.0  0.09684  0.54594  0.24795  1.0000
  H   H740      1.0  0.22531  0.58212  0.47931  1.0000
  H   H741      1.0  0.33679  0.55094  0.45063  1.0000
  C   C481      1.0  0.00235  0.40643  0.27188  1.0000
  H   H742      1.0  0.41655  0.63349  0.36111  1.0000
  H   H743      1.0  0.03880  0.39092  0.28484  1.0000
  C   C482      1.0  0.23657  0.65164  0.46092  1.0000
  H   H744      1.0  0.22958  0.61419  0.36849  1.0000
  H   H745      1.0  0.20936  0.53768  0.48297  1.0000
  S   S202      1.0  0.04278  0.55368  0.24491  1.0000
  H   H746      1.0  0.05530  0.50165  0.29814  1.0000
  C   C483      1.0  0.03046  0.39544  0.27581  1.0000
  N   N48       1.0  0.25238  0.50595  0.35912  1.0000
  C   C484      1.0  0.24678  0.52412  0.35742  1.0000
  C   C485      1.0  0.27053  0.50192  0.35285  1.0000
  C   C486      1.0  0.24376  0.50002  0.34951  1.0000
  C   C487      1.0  0.24843  0.49778  0.37675  1.0000
  H   H747      1.0  0.25284  0.52900  0.36475  1.0000
  H   H748      1.0  0.23312  0.52762  0.36185  1.0000
  H   H749      1.0  0.24970  0.53076  0.34432  1.0000
  H   H750      1.0  0.27730  0.50652  0.35974  1.0000
  H   H751      1.0  0.27529  0.48828  0.35416  1.0000
  H   H752      1.0  0.27392  0.50777  0.33953  1.0000
  H   H753      1.0  0.24587  0.50638  0.33624  1.0000
  H   H754      1.0  0.23007  0.50243  0.35437  1.0000
  H   H755      1.0  0.24798  0.48642  0.35013  1.0000
  H   H756      1.0  0.25220  0.48403  0.37850  1.0000
  H   H757      1.0  0.23482  0.50083  0.38196  1.0000
  H   H758      1.0  0.25488  0.50181  0.38436  1.0000
  H   H759      1.0  0.15685  0.53229  0.34298  1.0000
  H   H760      1.0  0.06363  0.50221  0.32372  1.0000
  H   H761      1.0  0.38411  0.65159  0.37927  1.0000
  H   H762      1.0  0.01624  0.42489  0.28382  1.0000
  H   H763      1.0  0.49321  0.65372  0.33722  1.0000
  C   C488      1.0  0.48904  0.64549  0.36368  1.0000
  H   H764      1.0  0.12996  0.57145  0.32566  1.0000
  C   C489      1.0  0.22302  0.58739  0.44795  1.0000
  H   H765      1.0  0.23668  0.61434  0.43243  1.0000
  C   C490      1.0  0.03401  0.33618  0.28507  1.0000
  C   C491      1.0  0.21361  0.61170  0.46011  1.0000
  C   C492      1.0  0.07685  0.49944  0.31719  1.0000
  H   H766      1.0  0.08076  0.51150  0.31153  1.0000
  H   H767      1.0  0.09893  0.47860  0.28687  1.0000
  C   C493      1.0  0.07385  0.47368  0.31260  1.0000
  H   H768      1.0  0.21792  0.59425  0.43676  1.0000
  H   H769      1.0  0.29459  0.56585  0.47498  1.0000
  Fe  Fe102     1.0  0.04230  0.52694  0.24714  1.0000
  C   C494      1.0  0.27903  0.60366  0.48278  1.0000
  H   H770      1.0  0.07012  0.49203  0.28247  1.0000
  C   C495      1.0  0.23450  0.58902  0.47039  1.0000
  C   C496      1.0  0.06875  0.49900  0.29227  1.0000
  H   H771      1.0  0.21320  0.58120  0.45675  1.0000
  H   H772      1.0  0.26822  0.60241  0.38497  1.0000
  H   H773      1.0  0.13394  0.41112  0.30041  1.0000
  C   C497      1.0  0.31025  0.53730  0.46511  1.0000
  H   H774      1.0  0.01950  0.40984  0.30233  1.0000
  S   S203      1.0  0.25660  0.64142  0.41528  1.0000
  H   H775      1.0  0.24597  0.61410  0.44909  1.0000
  H   H776      1.0  0.16350  0.54219  0.30423  1.0000
  H   H777      1.0  0.29799  0.53642  0.47362  1.0000
  C   C498      1.0  0.29704  0.55893  0.44537  1.0000
  S   S204      1.0  0.33769  0.65123  0.39547  1.0000
  H   H778      1.0  0.02828  0.34534  0.32294  1.0000
  N   N49       1.0  0.14282  0.54636  0.32441  1.0000
  C   C499      1.0  0.13124  0.54376  0.31551  1.0000
  C   C500      1.0  0.15745  0.55138  0.31230  1.0000
  C   C501      1.0  0.14824  0.53075  0.33589  1.0000
  C   C502      1.0  0.13436  0.55952  0.33391  1.0000
  H   H779      1.0  0.12005  0.53985  0.32416  1.0000
  H   H780      1.0  0.13728  0.53386  0.30828  1.0000
  H   H781      1.0  0.12692  0.55519  0.30661  1.0000
  H   H782      1.0  0.14986  0.43630  0.27286  1.0000
  H   H783      1.0  0.25213  0.59672  0.43916  1.0000
  N   N50       1.0  0.24354  0.61718  0.38487  1.0000
  H   H784      1.0  0.23061  0.63028  0.40440  1.0000
  H   H785      1.0  0.03165  0.46977  0.24147  1.0000
  H   H786      1.0  0.12309  0.54333  0.23781  1.0000
  H   H787      1.0  0.00615  0.41725  0.26242  1.0000
  H   H788      1.0  0.41592  0.61314  0.38810  1.0000
  C   C503      1.0  0.30681  0.56605  0.46623  1.0000
  H   H789      1.0  0.24606  0.57978  0.46716  1.0000
  H   H790      1.0  0.03196  0.38524  0.26928  1.0000
  H   H791      1.0  0.01555  0.38158  0.30617  1.0000
  N   N51       1.0  0.01306  0.40052  0.28424  1.0000
  H   H792      1.0  0.40966  0.62055  0.40713  1.0000
  C   C504      1.0  0.12060  0.40109  0.23869  1.0000
  Fe  Fe103     1.0  0.16475  0.62832  0.47693  1.0000
  H   H793      1.0  0.38337  0.63751  0.39893  1.0000
  H   H794      1.0  0.24094  0.65185  0.47167  1.0000
  H   H795      1.0  0.21702  0.62049  0.46568  1.0000
  C   C505      1.0  0.39052  0.63956  0.38592  1.0000
  C   C506      1.0  0.29103  0.61230  0.48247  1.0000
  S   S205      1.0  0.16695  0.65409  0.46305  1.0000
  H   H796      1.0  0.09555  0.44702  0.24035  1.0000
  C   C507      1.0  0.00779  0.38613  0.29656  1.0000
  C   C508      1.0  0.21948  0.65538  0.46118  1.0000
  H   H797      1.0  0.38947  0.62963  0.38021  1.0000
  C   C509      1.0  0.01180  0.41404  0.29270  1.0000
  H   H798      1.0  0.42173  0.65334  0.39263  1.0000
  C   C510      1.0  0.40867  0.65274  0.39332  1.0000
  H   H799      1.0  0.40244  0.65052  0.40664  1.0000
  H   H800      1.0  0.26125  0.64449  0.44673  1.0000
  H   H801      1.0  0.45269  0.65587  0.39017  1.0000
  C   C511      1.0  0.17316  0.45174  0.23468  1.0000
  H   H802      1.0  0.31985  0.53339  0.47284  1.0000
  H   H803      1.0  0.07736  0.44199  0.23775  1.0000
  C   C512      1.0  0.23249  0.54297  0.48398  1.0000
  C   C513      1.0  0.48435  0.65420  0.34876  1.0000
  C   C514      1.0  0.36117  0.65255  0.43100  1.0000
  C   C515      1.0  0.46143  0.65557  0.37861  1.0000
  C   C516      1.0  0.34926  0.65697  0.40678  1.0000
  S   S206      1.0  0.02791  0.32390  0.27483  1.0000
  H   H804      1.0  0.19215  0.63092  0.54786  1.0000
  S   S207      1.0  0.39487  0.33552  0.66089  1.0000
  H   H805      1.0  0.42884  0.36755  0.70486  1.0000
  H   H806      1.0  0.33392  0.47300  0.71475  1.0000
  H   H807      1.0  0.42769  0.60956  0.68155  1.0000
  H   H808      1.0  0.16121  0.54482  0.52376  1.0000
  H   H809      1.0  0.38843  0.60172  0.67615  1.0000
  H   H810      1.0  0.34503  0.38348  0.67302  1.0000
  Fe  Fe104     1.0  0.22294  0.55879  0.53931  1.0000
  S   S208      1.0  0.24375  0.53709  0.53412  1.0000
  S   S209      1.0  0.19615  0.55725  0.54939  1.0000
  Fe  Fe105     1.0  0.24531  0.58308  0.52846  1.0000
  S   S210      1.0  0.26809  0.56391  0.52198  1.0000
  H   H811      1.0  0.33158  0.50363  0.70560  1.0000
  Fe  Fe106     1.0  0.25218  0.55465  0.51058  1.0000
  H   H812      1.0  0.27266  0.62891  0.51660  1.0000
  Fe  Fe107     1.0  0.25788  0.54825  0.54599  1.0000
  S   S211      1.0  0.27562  0.53337  0.56275  1.0000
  S   S212      1.0  0.23030  0.57545  0.51482  1.0000
  S   S213      1.0  0.23623  0.56825  0.55328  1.0000
  H   H813      1.0  0.35200  0.46027  0.72193  1.0000
  H   H814      1.0  0.20153  0.63672  0.50994  1.0000
  C   C517      1.0  0.41735  0.60956  0.69260  1.0000
  H   H815      1.0  0.09107  0.64062  0.55557  1.0000
  S   S214      1.0  0.36940  0.58006  0.70548  1.0000
  S   S215      1.0  0.41513  0.56308  0.71548  1.0000
  Fe  Fe108     1.0  0.41021  0.41444  0.68025  1.0000
  S   S216      1.0  0.39106  0.40551  0.70182  1.0000
  S   S217      1.0  0.42288  0.39772  0.66177  1.0000
  Fe  Fe109     1.0  0.40549  0.44797  0.69109  1.0000
  S   S218      1.0  0.38635  0.44059  0.71332  1.0000
  S   S219      1.0  0.40724  0.47514  0.68533  1.0000
  Fe  Fe110     1.0  0.40346  0.41566  0.71594  1.0000
  C   C518      1.0  0.39813  0.62924  0.67686  1.0000
  Fe  Fe111     1.0  0.37640  0.43142  0.69642  1.0000
  S   S220      1.0  0.34927  0.43838  0.69620  1.0000
  S   S221      1.0  0.42363  0.42343  0.69480  1.0000
  S   S222      1.0  0.39462  0.43997  0.67376  1.0000
  Fe  Fe112     1.0  0.31174  0.53692  0.66320  1.0000
  S   S223      1.0  0.33828  0.52336  0.66026  1.0000
  S   S224      1.0  0.29385  0.53913  0.68727  1.0000
  Fe  Fe113     1.0  0.31387  0.55130  0.62678  1.0000
  S   S225      1.0  0.34097  0.53976  0.62011  1.0000
  S   S226      1.0  0.29656  0.56742  0.60999  1.0000
  Fe  Fe114     1.0  0.33391  0.51719  0.63800  1.0000
  S   S227      1.0  0.34615  0.49270  0.63107  1.0000
  Fe  Fe115     1.0  0.34387  0.54671  0.64275  1.0000
  S   S228      1.0  0.36799  0.55239  0.64386  1.0000
  S   S229      1.0  0.30664  0.52795  0.64291  1.0000
  S   S230      1.0  0.31758  0.56099  0.64746  1.0000
  C   C519      1.0  0.30015  0.49150  0.71253  1.0000
  C   C520      1.0  0.29908  0.50555  0.69963  1.0000
  C   C521      1.0  0.29663  0.52133  0.70295  1.0000
  C   C522      1.0  0.34103  0.50246  0.71294  1.0000
  H   H816      1.0  0.30150  0.47933  0.71007  1.0000
  H   H817      1.0  0.29962  0.50420  0.68724  1.0000
  C   C523      1.0  0.21967  0.64376  0.53773  1.0000
  C   C524      1.0  0.34669  0.45262  0.67777  1.0000
  C   C525      1.0  0.33462  0.46731  0.67795  1.0000
  C   C526      1.0  0.33405  0.47960  0.66346  1.0000
  C   C527      1.0  0.34514  0.47685  0.64871  1.0000
  C   C528      1.0  0.35653  0.46176  0.64835  1.0000
  C   C529      1.0  0.35749  0.44980  0.66294  1.0000
  H   H818      1.0  0.32616  0.46945  0.68940  1.0000
  H   H819      1.0  0.32512  0.49122  0.66373  1.0000
  H   H820      1.0  0.36509  0.45964  0.63694  1.0000
  H   H821      1.0  0.36671  0.43842  0.66272  1.0000
  C   C530      1.0  0.36887  0.57065  0.68953  1.0000
  C   C531      1.0  0.38323  0.56107  0.68160  1.0000
  C   C532      1.0  0.38284  0.55536  0.66767  1.0000
  C   C533      1.0  0.36800  0.55873  0.66196  1.0000
  C   C534      1.0  0.35352  0.56771  0.67033  1.0000
  C   C535      1.0  0.35405  0.57391  0.68387  1.0000
  H   H822      1.0  0.39473  0.55850  0.68586  1.0000
  H   H823      1.0  0.39409  0.54844  0.66124  1.0000
  H   H824      1.0  0.34204  0.57040  0.66601  1.0000
  H   H825      1.0  0.34291  0.58133  0.68994  1.0000
  C   C536      1.0  0.42071  0.50188  0.71896  1.0000
  C   C537      1.0  0.41026  0.51055  0.70794  1.0000
  C   C538      1.0  0.40585  0.50212  0.69809  1.0000
  C   C539      1.0  0.41148  0.48487  0.69940  1.0000
  C   C540      1.0  0.42124  0.47606  0.71104  1.0000
  C   C541      1.0  0.42600  0.48457  0.72063  1.0000
  H   H826      1.0  0.25637  0.59602  0.49652  1.0000
  H   H827      1.0  0.39819  0.50915  0.68931  1.0000
  H   H828      1.0  0.42568  0.46279  0.71220  1.0000
  H   H829      1.0  0.38587  0.63201  0.67322  1.0000
  C   C542      1.0  0.28034  0.54267  0.57674  1.0000
  C   C543      1.0  0.27308  0.55914  0.57803  1.0000
  C   C544      1.0  0.27804  0.56658  0.58838  1.0000
  C   C545      1.0  0.29023  0.55759  0.59754  1.0000
  C   C546      1.0  0.29726  0.54104  0.59649  1.0000
  C   C547      1.0  0.29235  0.53363  0.58610  1.0000
  H   H830      1.0  0.26380  0.56621  0.57091  1.0000
  H   H831      1.0  0.27247  0.57936  0.58922  1.0000
  H   H832      1.0  0.30667  0.53398  0.60348  1.0000
  H   H833      1.0  0.29804  0.52089  0.58515  1.0000
  H   H834      1.0  0.40867  0.48652  0.62780  1.0000
  C   C548      1.0  0.16152  0.60816  0.54280  1.0000
  C   C549      1.0  0.15526  0.59428  0.55241  1.0000
  C   C550      1.0  0.16600  0.57864  0.55484  1.0000
  C   C551      1.0  0.18304  0.57701  0.54808  1.0000
  C   C552      1.0  0.18934  0.59110  0.53931  1.0000
  C   C553      1.0  0.17856  0.60654  0.53636  1.0000
  N   N52       1.0  0.20634  0.64654  0.52854  1.0000
  H   H835      1.0  0.16108  0.56779  0.56178  1.0000
  H   H836      1.0  0.20247  0.59010  0.53455  1.0000
  H   H837      1.0  0.18344  0.61721  0.52909  1.0000
  H   H838      1.0  0.39483  0.50494  0.66501  1.0000
  C   C554      1.0  0.40388  0.35191  0.66132  1.0000
  C   C555      1.0  0.41558  0.35820  0.64797  1.0000
  C   C556      1.0  0.42148  0.37209  0.64835  1.0000
  C   C557      1.0  0.41573  0.37982  0.66203  1.0000
  C   C558      1.0  0.40439  0.37318  0.67555  1.0000
  C   C559      1.0  0.39847  0.35935  0.67518  1.0000
  H   H839      1.0  0.41983  0.35262  0.63718  1.0000
  H   H840      1.0  0.43034  0.37703  0.63785  1.0000
  H   H841      1.0  0.40010  0.37866  0.68632  1.0000
  H   H842      1.0  0.38945  0.35455  0.68559  1.0000
  C   C560      1.0  0.36707  0.40180  0.67104  1.0000
  H   H843      1.0  0.15730  0.58910  0.50160  1.0000
  H   H844      1.0  0.29777  0.62861  0.49396  1.0000
  H   H845      1.0  0.35188  0.48537  0.68878  1.0000
  H   H846      1.0  0.34954  0.42604  0.65088  1.0000
  H   H847      1.0  0.36874  0.51722  0.63342  1.0000
  N   N53       1.0  0.25908  0.55547  0.65443  1.0000
  C   C561      1.0  0.26126  0.54018  0.66736  1.0000
  C   C562      1.0  0.27139  0.56525  0.65360  1.0000
  C   C563      1.0  0.24215  0.56548  0.65858  1.0000
  C   C564      1.0  0.26151  0.55104  0.63820  1.0000
  H   H848      1.0  0.27395  0.53238  0.66475  1.0000
  H   H849      1.0  0.25222  0.53243  0.66839  1.0000
  H   H850      1.0  0.25971  0.54309  0.67974  1.0000
  H   H851      1.0  0.28423  0.55811  0.65035  1.0000
  H   H852      1.0  0.27021  0.57688  0.64396  1.0000
  H   H853      1.0  0.27023  0.56854  0.66571  1.0000
  H   H854      1.0  0.23252  0.55847  0.65934  1.0000
  H   H855      1.0  0.24012  0.57711  0.64907  1.0000
  H   H856      1.0  0.23997  0.56905  0.67073  1.0000
  H   H857      1.0  0.25240  0.54373  0.63826  1.0000
  H   H858      1.0  0.27415  0.54348  0.63466  1.0000
  H   H859      1.0  0.26025  0.56230  0.62812  1.0000
  C   C565      1.0  0.36109  0.48442  0.69632  1.0000
  H   H860      1.0  0.36798  0.38587  0.63810  1.0000
  C   C566      1.0  0.29581  0.52298  0.71906  1.0000
  H   H861      1.0  0.22899  0.54316  0.49705  1.0000
  H   H862      1.0  0.45831  0.35307  0.70264  1.0000
  C   C567      1.0  0.36536  0.48541  0.72288  1.0000
  H   H863      1.0  0.09744  0.65384  0.56503  1.0000
  C   C568      1.0  0.35869  0.41605  0.64519  1.0000
  C   C569      1.0  0.34411  0.39548  0.66387  1.0000
  H   H864      1.0  0.39489  0.52277  0.64844  1.0000
  H   H865      1.0  0.38640  0.47999  0.66210  1.0000
  H   H866      1.0  0.46437  0.37185  0.69028  1.0000
  H   H867      1.0  0.37313  0.37465  0.65751  1.0000
  C   C570      1.0  0.29753  0.50886  0.73183  1.0000
  H   H868      1.0  0.18793  0.58142  0.49266  1.0000
  S   S231      1.0  0.17994  0.62722  0.49501  1.0000
  C   C571      1.0  0.40072  0.59984  0.67948  1.0000
  H   H869      1.0  0.23172  0.64535  0.52911  1.0000
  H   H870      1.0  0.38821  0.52231  0.62228  1.0000
  H   H871      1.0  0.37424  0.47321  0.72387  1.0000
  H   H872      1.0  0.15814  0.55543  0.49479  1.0000
  H   H873      1.0  0.33875  0.39413  0.65382  1.0000
  H   H874      1.0  0.43406  0.47774  0.72914  1.0000
  C   C572      1.0  0.10027  0.64844  0.55381  1.0000
  C   C573      1.0  0.37213  0.38704  0.64900  1.0000
  H   H875      1.0  0.37073  0.42021  0.64038  1.0000
  H   H876      1.0  0.36870  0.38995  0.68032  1.0000
  H   H877      1.0  0.21304  0.62167  0.52411  1.0000
  H   H878      1.0  0.14206  0.59547  0.55745  1.0000
  H   H879      1.0  0.14610  0.57394  0.51518  1.0000
  S   S232      1.0  0.24781  0.60908  0.52594  1.0000
  H   H880      1.0  0.22296  0.63645  0.50819  1.0000
  N   N54       1.0  0.36051  0.40009  0.65727  1.0000
  H   H881      1.0  0.41795  0.61901  0.69920  1.0000
  N   N55       1.0  0.30486  0.58033  0.53589  1.0000
  C   C574      1.0  0.30609  0.56239  0.54295  1.0000
  C   C575      1.0  0.28812  0.58955  0.54233  1.0000
  C   C576      1.0  0.30775  0.58323  0.51764  1.0000
  C   C577      1.0  0.31750  0.58618  0.54068  1.0000
  H   H882      1.0  0.30478  0.55971  0.55663  1.0000
  H   H883      1.0  0.31828  0.55493  0.53788  1.0000
  H   H884      1.0  0.29621  0.55763  0.54036  1.0000
  H   H885      1.0  0.28564  0.58791  0.55603  1.0000
  H   H886      1.0  0.28661  0.60309  0.53698  1.0000
  H   H887      1.0  0.27819  0.58526  0.53928  1.0000
  H   H888      1.0  0.30787  0.59650  0.51188  1.0000
  H   H889      1.0  0.29785  0.57993  0.51354  1.0000
  H   H890      1.0  0.31990  0.57585  0.51236  1.0000
  H   H891      1.0  0.31689  0.59971  0.53563  1.0000
  H   H892      1.0  0.33029  0.57951  0.53600  1.0000
  H   H893      1.0  0.31567  0.58412  0.55440  1.0000
  H   H894      1.0  0.19876  0.56054  0.49918  1.0000
  C   C578      1.0  0.46130  0.36482  0.70325  1.0000
  C   C579      1.0  0.38781  0.61256  0.70312  1.0000
  H   H895      1.0  0.35423  0.41510  0.63439  1.0000
  H   H896      1.0  0.37940  0.40542  0.66654  1.0000
  N   N56       1.0  0.17218  0.56450  0.50691  1.0000
  H   H897      1.0  0.35852  0.41142  0.67768  1.0000
  C   C580      1.0  0.26304  0.61232  0.50810  1.0000
  H   H898      1.0  0.33508  0.40506  0.67026  1.0000
  N   N57       1.0  0.35278  0.48624  0.71341  1.0000
  H   H899      1.0  0.15971  0.58197  0.52262  1.0000
  N   N58       1.0  0.40102  0.61280  0.68800  1.0000
  H   H900      1.0  0.40605  0.52387  0.70656  1.0000
  H   H901      1.0  0.22177  0.63088  0.54525  1.0000
  H   H902      1.0  0.38233  0.50424  0.61996  1.0000
  C   C581      1.0  0.16991  0.55987  0.49223  1.0000
  H   H903      1.0  0.36972  0.47217  0.69615  1.0000
  C   C582      1.0  0.38201  0.51176  0.62897  1.0000
  H   H904      1.0  0.36850  0.49414  0.69010  1.0000
  H   H905      1.0  0.41353  0.48676  0.64700  1.0000
  H   H906      1.0  0.37559  0.51734  0.65992  1.0000
  H   H907      1.0  0.11597  0.64525  0.52312  1.0000
  Fe  Fe116     1.0  0.38730  0.56722  0.72247  1.0000
  C   C583      1.0  0.21116  0.63481  0.51724  1.0000
  H   H908      1.0  0.38488  0.38968  0.64461  1.0000
  H   H909      1.0  0.38147  0.47985  0.64296  1.0000
  H   H910      1.0  0.41446  0.50449  0.63022  1.0000
  C   C584      1.0  0.10357  0.65383  0.52412  1.0000
  C   C585      1.0  0.26515  0.60346  0.49577  1.0000
  S   S233      1.0  0.14810  0.62731  0.53784  1.0000
  H   H911      1.0  0.41043  0.59965  0.66795  1.0000
  N   N59       1.0  0.38977  0.50159  0.64292  1.0000
  C   C586      1.0  0.38092  0.48796  0.65149  1.0000
  C   C587      1.0  0.40740  0.49453  0.63667  1.0000
  H   H912      1.0  0.36756  0.49283  0.65631  1.0000
  H   H913      1.0  0.37528  0.61472  0.70023  1.0000
  C   C588      1.0  0.28851  0.62181  0.49435  1.0000
  H   H914      1.0  0.11278  0.64004  0.55328  1.0000
  H   H915      1.0  0.40281  0.58726  0.68753  1.0000
  C   C589      1.0  0.27434  0.62201  0.50709  1.0000
  C   C590      1.0  0.18794  0.57032  0.50294  1.0000
  C   C591      1.0  0.38872  0.51209  0.65460  1.0000
  C   C592      1.0  0.34362  0.47273  0.72145  1.0000
  H   H916      1.0  0.34752  0.51298  0.70729  1.0000
  S   S234      1.0  0.14068  0.63610  0.49381  1.0000
  H   H917      1.0  0.29388  0.53519  0.72167  1.0000
  H   H918      1.0  0.37277  0.49519  0.71703  1.0000
  H   H919      1.0  0.17382  0.55305  0.53216  1.0000
  H   H920      1.0  0.39822  0.63931  0.68291  1.0000
  H   H921      1.0  0.41985  0.59730  0.70113  1.0000
  C   C593      1.0  0.15819  0.57794  0.51181  1.0000
  H   H922      1.0  0.38964  0.60030  0.71170  1.0000
  H   H923      1.0  0.18351  0.53972  0.51771  1.0000
  H   H924      1.0  0.38765  0.62208  0.70997  1.0000
  C   C594      1.0  0.17269  0.54987  0.52072  1.0000
  H   H925      1.0  0.19006  0.57376  0.51382  1.0000
  Fe  Fe117     1.0  0.15605  0.63744  0.51076  1.0000
  H   H926      1.0  0.40787  0.62986  0.66530  1.0000
  H   H927      1.0  0.47271  0.36154  0.70850  1.0000
  H   H928      1.0  0.18667  0.65249  0.54901  1.0000
  H   H929      1.0  0.44148  0.39790  0.72116  1.0000
  C   C595      1.0  0.29947  0.49312  0.72861  1.0000
  N   N60       1.0  0.44728  0.37468  0.71325  1.0000
  H   H930      1.0  0.45483  0.39781  0.70112  1.0000
  C   C596      1.0  0.45183  0.39012  0.71376  1.0000
  S   S235      1.0  0.42789  0.51244  0.73024  1.0000
  H   H931      1.0  0.09420  0.64653  0.52487  1.0000
  H   H932      1.0  0.46284  0.38745  0.71950  1.0000
  H   H933      1.0  0.18041  0.64571  0.53375  1.0000
  C   C597      1.0  0.43254  0.37886  0.70569  1.0000
  H   H934      1.0  0.21665  0.65251  0.54624  1.0000
  H   H935      1.0  0.33416  0.50410  0.72558  1.0000
  H   H936      1.0  0.42166  0.38606  0.71310  1.0000
  H   H937      1.0  0.43488  0.38646  0.69292  1.0000
  C   C598      1.0  0.19071  0.64381  0.54032  1.0000
  H   H938      1.0  0.18029  0.54985  0.48807  1.0000
  C   C599      1.0  0.44339  0.36496  0.73030  1.0000
  H   H939      1.0  0.43971  0.35331  0.73046  1.0000
  Fe  Fe118     1.0  0.41392  0.53842  0.73324  1.0000
  S   S236      1.0  0.26238  0.54945  0.48475  1.0000
  H   H940      1.0  0.25266  0.36393  0.96994  1.0000
  H   H941      1.0  0.44684  0.57834  0.75762  1.0000
  C   C600      1.0  0.20820  0.42443  0.97981  1.0000
  H   H942      1.0  0.14670  0.39646  0.95685  1.0000
  S   S237      1.0  0.46473  0.61953  0.77677  1.0000
  S   S238      1.0  0.45594  0.63568  0.81583  1.0000
  H   H943      1.0  0.37976  0.49952  0.76459  1.0000
  H   H944      1.0  0.21962  0.42684  0.98113  1.0000
  C   C601      1.0  0.22220  0.38180  0.97931  1.0000
  N   N61       1.0  0.24508  0.32676  0.94187  1.0000
  S   S239      1.0  0.37286  0.55057  0.78539  1.0000
  C   C602      1.0  0.45156  0.61347  0.76708  1.0000
  Fe  Fe119     1.0  0.31605  0.49486  0.78951  1.0000
  S   S240      1.0  0.29715  0.48003  0.79111  1.0000
  S   S241      1.0  0.31053  0.51742  0.80057  1.0000
  Fe  Fe120     1.0  0.34482  0.47049  0.77447  1.0000
  S   S242      1.0  0.32897  0.45318  0.77480  1.0000
  S   S243      1.0  0.37211  0.46863  0.76459  1.0000
  Fe  Fe121     1.0  0.31132  0.47642  0.76569  1.0000
  H   H945      1.0  0.39859  0.50206  0.79823  1.0000
  Fe  Fe122     1.0  0.31614  0.45804  0.80008  1.0000
  S   S244      1.0  0.31117  0.43753  0.82228  1.0000
  S   S245      1.0  0.32831  0.49341  0.76324  1.0000
  S   S246      1.0  0.33391  0.47319  0.80054  1.0000
  Fe  Fe123     1.0  0.23686  0.42734  0.89306  1.0000
  S   S247      1.0  0.25505  0.40310  0.89728  1.0000
  S   S248      1.0  0.24032  0.44686  0.86960  1.0000
  Fe  Fe124     1.0  0.21253  0.41745  0.92503  1.0000
  S   S249      1.0  0.22872  0.39252  0.93173  1.0000
  S   S250      1.0  0.18804  0.42195  0.94270  1.0000
  Fe  Fe125     1.0  0.24933  0.40642  0.92345  1.0000
  S   S251      1.0  0.26791  0.40029  0.93955  1.0000
  Fe  Fe126     1.0  0.23266  0.39161  0.90508  1.0000
  S   S252      1.0  0.23293  0.36764  0.89844  1.0000
  S   S253      1.0  0.23288  0.43167  0.91879  1.0000
  S   S254      1.0  0.21475  0.41557  0.89883  1.0000
  S   S255      1.0  0.41521  0.54826  0.75498  1.0000
  C   C603      1.0  0.21287  0.36327  0.90460  1.0000
  C   C604      1.0  0.21079  0.34684  0.90824  1.0000
  C   C605      1.0  0.19487  0.34325  0.91459  1.0000
  C   C606      1.0  0.17872  0.41831  0.97626  1.0000
  C   C607      1.0  0.18296  0.37261  0.91191  1.0000
  C   C608      1.0  0.19890  0.37611  0.90641  1.0000
  H   H946      1.0  0.22148  0.33685  0.90648  1.0000
  H   H947      1.0  0.30964  0.47682  0.84692  1.0000
  H   H948      1.0  0.17222  0.38268  0.91300  1.0000
  H   H949      1.0  0.20026  0.38882  0.90336  1.0000
  C   C609      1.0  0.27846  0.37957  0.94078  1.0000
  C   C610      1.0  0.28664  0.37165  0.95385  1.0000
  C   C611      1.0  0.29338  0.35458  0.95612  1.0000
  C   C612      1.0  0.29274  0.34559  0.94482  1.0000
  C   C613      1.0  0.28543  0.35370  0.93120  1.0000
  C   C614      1.0  0.27790  0.37060  0.92942  1.0000
  H   H950      1.0  0.28724  0.37859  0.96258  1.0000
  H   H951      1.0  0.18416  0.35325  0.96770  1.0000
  H   H952      1.0  0.27175  0.37665  0.91922  1.0000
  C   C615      1.0  0.19094  0.42213  0.96222  1.0000
  H   H953      1.0  0.40153  0.46652  0.77874  1.0000
  C   C616      1.0  0.15113  0.36343  0.96889  1.0000
  C   C617      1.0  0.20564  0.42530  0.96401  1.0000
  S   S256      1.0  0.16097  0.35216  0.92528  1.0000
  H   H954      1.0  0.15800  0.38533  0.94081  1.0000
  H   H955      1.0  0.21506  0.42841  0.95322  1.0000
  C   C618      1.0  0.29125  0.43970  0.83500  1.0000
  C   C619      1.0  0.27744  0.45008  0.82908  1.0000
  C   C620      1.0  0.26177  0.45210  0.83975  1.0000
  C   C621      1.0  0.25988  0.44371  0.85634  1.0000
  C   C622      1.0  0.27366  0.43319  0.86218  1.0000
  C   C623      1.0  0.28928  0.43110  0.85150  1.0000
  H   H956      1.0  0.27881  0.45647  0.81626  1.0000
  H   H957      1.0  0.25111  0.46020  0.83515  1.0000
  H   H958      1.0  0.27245  0.42705  0.87505  1.0000
  H   H959      1.0  0.29997  0.42312  0.85615  1.0000
  C   C624      1.0  0.18092  0.35617  0.91639  1.0000
  H   H960      1.0  0.39833  0.48794  0.75380  1.0000
  C   C625      1.0  0.24049  0.34403  0.94437  1.0000
  H   H961      1.0  0.26395  0.48746  0.86222  1.0000
  C   C626      1.0  0.40738  0.43326  0.74529  1.0000
  C   C627      1.0  0.39893  0.44821  0.75016  1.0000
  C   C628      1.0  0.38316  0.44927  0.76047  1.0000
  H   H962      1.0  0.27427  0.48405  0.82641  1.0000
  Fe  Fe127     1.0  0.46136  0.64233  0.78803  1.0000
  H   H963      1.0  0.23285  0.35231  0.93543  1.0000
  H   H964      1.0  0.40423  0.45916  0.74520  1.0000
  H   H965      1.0  0.40165  0.47200  0.79769  1.0000
  H   H966      1.0  0.29365  0.51396  0.83558  1.0000
  C   C629      1.0  0.35551  0.54151  0.78911  1.0000
  H   H967      1.0  0.28206  0.50276  0.81818  1.0000
  C   C630      1.0  0.32892  0.53658  0.80626  1.0000
  C   C631      1.0  0.32790  0.52662  0.79600  1.0000
  C   C632      1.0  0.34077  0.52406  0.78231  1.0000
  C   C633      1.0  0.35442  0.53171  0.77873  1.0000
  N   N62       1.0  0.16360  0.37388  0.96480  1.0000
  C   C634      1.0  0.43064  0.61979  0.75019  1.0000
  H   H968      1.0  0.34008  0.51647  0.77429  1.0000
  H   H969      1.0  0.36416  0.52981  0.76806  1.0000
  H   H970      1.0  0.43287  0.37218  0.73813  1.0000
  S   S257      1.0  0.29970  0.32403  0.94849  1.0000
  C   C635      1.0  0.34280  0.54379  0.80297  1.0000
  C   C636      1.0  0.18009  0.36430  0.95827  1.0000
  H   H971      1.0  0.42449  0.48202  0.76342  1.0000
  C   C637      1.0  0.43962  0.62500  0.75904  1.0000
  C   C638      1.0  0.39358  0.49749  0.76160  1.0000
  H   H972      1.0  0.25449  0.38325  0.97332  1.0000
  H   H973      1.0  0.43775  0.63804  0.75913  1.0000
  H   H974      1.0  0.13859  0.37010  0.97424  1.0000
  H   H975      1.0  0.29921  0.34843  0.96654  1.0000
  H   H976      1.0  0.27494  0.51376  0.85120  1.0000
  Fe  Fe128     1.0  0.38743  0.55353  0.75919  1.0000
  S   S258      1.0  0.38574  0.57901  0.74355  1.0000
  H   H977      1.0  0.28522  0.34684  0.92227  1.0000
  C   C639      1.0  0.38482  0.42008  0.76202  1.0000
  H   H978      1.0  0.17978  0.35967  0.94736  1.0000
  C   C640      1.0  0.27684  0.48080  0.85787  1.0000
  H   H979      1.0  0.16717  0.41625  0.97490  1.0000
  C   C641      1.0  0.28727  0.50610  0.84674  1.0000
  H   H980      1.0  0.28355  0.47758  0.86822  1.0000
  H   H981      1.0  0.29474  0.50322  0.85644  1.0000
  Fe  Fe129     1.0  0.16117  0.32669  0.94132  1.0000
  C   C642      1.0  0.40026  0.41924  0.75106  1.0000
  H   H982      1.0  0.25173  0.34922  0.94248  1.0000
  H   H983      1.0  0.15450  0.35185  0.97803  1.0000
  N   N63       1.0  0.25566  0.39519  0.85032  1.0000
  C   C643      1.0  0.24112  0.40504  0.85975  1.0000
  C   C644      1.0  0.26255  0.40608  0.83493  1.0000
  C   C645      1.0  0.25044  0.38174  0.84624  1.0000
  C   C646      1.0  0.26851  0.38788  0.86043  1.0000
  H   H984      1.0  0.24465  0.41501  0.86345  1.0000
  H   H985      1.0  0.23538  0.39715  0.87126  1.0000
  H   H986      1.0  0.23132  0.41115  0.85239  1.0000
  H   H987      1.0  0.27362  0.39911  0.82750  1.0000
  H   H988      1.0  0.25320  0.41191  0.82700  1.0000
  H   H989      1.0  0.26657  0.41635  0.83769  1.0000
  H   H990      1.0  0.24065  0.38681  0.83872  1.0000
  H   H991      1.0  0.24520  0.37336  0.85770  1.0000
  H   H992      1.0  0.26107  0.37401  0.83910  1.0000
  H   H993      1.0  0.27956  0.38012  0.85382  1.0000
  H   H994      1.0  0.26361  0.37988  0.87233  1.0000
  H   H995      1.0  0.27296  0.39771  0.86347  1.0000
  N   N64       1.0  0.39501  0.58784  0.79106  1.0000
  C   C647      1.0  0.38468  0.58178  0.80721  1.0000
  C   C648      1.0  0.40750  0.57370  0.78541  1.0000
  C   C649      1.0  0.40354  0.60019  0.79276  1.0000
  C   C650      1.0  0.38430  0.59561  0.77881  1.0000
  H   H996      1.0  0.37507  0.59210  0.81185  1.0000
  H   H997      1.0  0.39236  0.57572  0.81674  1.0000
  H   H998      1.0  0.37805  0.57245  0.80625  1.0000
  H   H999      1.0  0.41503  0.57768  0.77292  1.0000
  H   H1000     1.0  0.41622  0.56788  0.79400  1.0000
  H   H1001     1.0  0.40145  0.56391  0.78459  1.0000
  H   H1002     1.0  0.41134  0.60505  0.78075  1.0000
  H   H1003     1.0  0.41191  0.59471  0.80175  1.0000
  H   H1004     1.0  0.39451  0.61102  0.79707  1.0000
  H   H1005     1.0  0.37752  0.58664  0.77744  1.0000
  H   H1006     1.0  0.39175  0.60004  0.76638  1.0000
  H   H1007     1.0  0.37484  0.60646  0.78252  1.0000
  H   H1008     1.0  0.36411  0.43591  0.77479  1.0000
  H   H1009     1.0  0.27592  0.46889  0.85547  1.0000
  N   N65       1.0  0.28551  0.49079  0.84287  1.0000
  C   C651      1.0  0.27581  0.49527  0.82971  1.0000
  H   H1010     1.0  0.34356  0.55133  0.81106  1.0000
  H   H1011     1.0  0.26317  0.50269  0.83358  1.0000
  H   H1012     1.0  0.39548  0.51761  0.77991  1.0000
  C   C652      1.0  0.43307  0.60293  0.74959  1.0000
  N   N66       1.0  0.40054  0.49242  0.77672  1.0000
  S   S259      1.0  0.49328  0.63810  0.83234  1.0000
  H   H1013     1.0  0.30135  0.46971  0.83338  1.0000
  C   C653      1.0  0.39326  0.50515  0.78695  1.0000
  H   H1014     1.0  0.45421  0.36159  0.73643  1.0000
  C   C654      1.0  0.30216  0.48100  0.83713  1.0000
  H   H1015     1.0  0.31903  0.53862  0.81684  1.0000
  H   H1016     1.0  0.46317  0.58754  0.77259  1.0000
  H   H1017     1.0  0.42185  0.62895  0.74363  1.0000
  C   C655      1.0  0.37624  0.43515  0.76671  1.0000
  S   S260      1.0  0.48273  0.65434  0.78684  1.0000
  H   H1018     1.0  0.30926  0.48840  0.82622  1.0000
  H   H1019     1.0  0.38281  0.47721  0.78999  1.0000
  H   H1020     1.0  0.42219  0.50289  0.76551  1.0000
  C   C656      1.0  0.25128  0.37097  0.97967  1.0000
  H   H1021     1.0  0.19335  0.33051  0.91790  1.0000
  Fe  Fe130     1.0  0.47583  0.64911  0.81459  1.0000
  H   H1022     1.0  0.41903  0.43283  0.73639  1.0000
  C   C657      1.0  0.45389  0.59659  0.76658  1.0000
  H   H1023     1.0  0.49183  0.59425  0.81498  1.0000
  H   H1024     1.0  0.42462  0.48614  0.78304  1.0000
  C   C658      1.0  0.39651  0.47633  0.78624  1.0000
  C   C659      1.0  0.41877  0.49076  0.77204  1.0000
  C   C660      1.0  0.44460  0.59132  0.75810  1.0000
  H   H1025     1.0  0.24726  0.33451  0.91551  1.0000
  H   H1026     1.0  0.39704  0.50914  0.75378  1.0000
  C   C661      1.0  0.16425  0.37894  0.97987  1.0000
  H   H1027     1.0  0.17380  0.38652  0.97730  1.0000
  H   H1028     1.0  0.37956  0.50633  0.79109  1.0000
  S   S261      1.0  0.42183  0.59727  0.73756  1.0000
  C   C662      1.0  0.25454  0.32640  0.92479  1.0000
  H   H1029     1.0  0.16826  0.39684  0.94850  1.0000
  H   H1030     1.0  0.18966  0.37207  0.95428  1.0000
  H   H1031     1.0  0.15002  0.35965  0.95775  1.0000
  C   C663      1.0  0.15895  0.38879  0.95219  1.0000
  H   H1032     1.0  0.22207  0.37441  0.97039  1.0000
  S   S262      1.0  0.38616  0.54222  0.73876  1.0000
  H   H1033     1.0  0.22118  0.32843  0.93670  1.0000
  S   S263      1.0  0.40837  0.40262  0.74092  1.0000
  H   H1034     1.0  0.37905  0.40941  0.76608  1.0000
  Fe  Fe131     1.0  0.41363  0.57345  0.73791  1.0000
  H   H1035     1.0  0.35943  0.48711  0.73572  1.0000
  H   H1036     1.0  0.48860  0.61617  0.81325  1.0000
  H   H1037     1.0  0.22536  0.39378  0.97185  1.0000
  H   H1038     1.0  0.29689  0.51018  0.74425  1.0000
  S   S264      1.0  0.30093  0.47529  0.74444  1.0000
  H   H1039     1.0  0.26631  0.33078  0.92248  1.0000
  H   H1040     1.0  0.23325  0.34474  0.95710  1.0000
  H   H1041     1.0  0.33725  0.47365  0.73440  1.0000
  Fe  Fe132     1.0  0.23837  0.91720  0.03367  1.0000
  S   S265      1.0  0.24668  0.89001  0.03438  1.0000
  S   S266      1.0  0.23167  0.93387  0.00999  1.0000
  Fe  Fe133     1.0  0.24725  0.91430  0.06740  1.0000
  S   S267      1.0  0.25609  0.88656  0.07046  1.0000
  S   S268      1.0  0.24570  0.92839  0.08762  1.0000
  Fe  Fe134     1.0  0.26817  0.89214  0.04360  1.0000
  S   S269      1.0  0.29320  0.88020  0.03095  1.0000
  Fe  Fe135     1.0  0.23360  0.88697  0.06094  1.0000
  S   S270      1.0  0.21965  0.86608  0.07126  1.0000
  S   S271      1.0  0.26104  0.91974  0.04096  1.0000
  S   S272      1.0  0.22353  0.91430  0.05982  1.0000
  C   C664      1.0  0.12445  0.80173  0.00077  1.0000
  S   S273      1.0  0.28498  0.81204  0.02155  1.0000
  C   C665      1.0  0.13827  0.87966  0.00462  1.0000
  Fe  Fe136     1.0  0.15336  0.84304  0.04031  1.0000
  S   S274      1.0  0.15806  0.81734  0.05595  1.0000
  S   S275      1.0  0.15700  0.86735  0.04336  1.0000
  Fe  Fe137     1.0  0.14480  0.83107  0.01361  1.0000
  S   S276      1.0  0.14969  0.80436  0.02631  1.0000
  H   H1042     1.0  0.19309  0.81236  0.99802  1.0000
  Fe  Fe138     1.0  0.13539  0.81408  0.04900  1.0000
  S   S277      1.0  0.11542  0.80035  0.06471  1.0000
  Fe  Fe139     1.0  0.17179  0.80991  0.03186  1.0000
  S   S278      1.0  0.19709  0.79313  0.03072  1.0000
  S   S279      1.0  0.12925  0.84062  0.03587  1.0000
  S   S280      1.0  0.16841  0.83574  0.01668  1.0000
  C   C666      1.0  0.05957  0.78637  0.08949  1.0000
  H   H1043     1.0  0.32406  0.80798  0.00872  1.0000
  H   H1044     1.0  0.12268  0.79133  0.01163  1.0000
  Fe  Fe140     1.0  0.05115  0.77196  0.03603  1.0000
  S   S281      1.0  0.05946  0.74800  0.05299  1.0000
  S   S282      1.0  0.06785  0.79035  0.02344  1.0000
  S   S283      1.0  0.30601  0.98252  0.14051  1.0000
  S   S284      1.0  0.02063  0.74325  0.06142  1.0000
  H   H1045     1.0  0.34868  0.76889  0.99573  1.0000
  Fe  Fe141     1.0  0.03569  0.75586  0.07017  1.0000
  Fe  Fe142     1.0  0.04388  0.73736  0.04261  1.0000
  S   S285      1.0  0.05309  0.71199  0.03656  1.0000
  S   S286      1.0  0.02806  0.78055  0.05399  1.0000
  S   S287      1.0  0.03786  0.76054  0.02354  1.0000
  H   H1046     1.0  0.40860  0.98016  0.22540  1.0000
  S   S288      1.0  0.41390  0.89866  0.20501  1.0000
  S   S289      1.0  0.37807  0.87810  0.20656  1.0000
  Fe  Fe143     1.0  0.40305  0.92456  0.20923  1.0000
  S   S290      1.0  0.40502  0.94647  0.18818  1.0000
  S   S291      1.0  0.37703  0.92061  0.21922  1.0000
  Fe  Fe144     1.0  0.30137  0.95975  0.13465  1.0000
  S   S292      1.0  0.32521  0.94400  0.14185  1.0000
  S   S293      1.0  0.29814  0.95605  0.10992  1.0000
  H   H1047     1.0  0.36629  0.95874  0.21743  1.0000
  S   S294      1.0  0.31448  0.95816  0.17592  1.0000
  C   C667      1.0  0.15132  0.90162  0.00466  1.0000
  H   H1048     1.0  0.39782  0.84074  0.21167  1.0000
  Fe  Fe145     1.0  0.30940  0.93797  0.16695  1.0000
  S   S295      1.0  0.31216  0.91094  0.17905  1.0000
  S   S296      1.0  0.28537  0.95284  0.15983  1.0000
  H   H1049     1.0  0.25306  0.78873  0.99655  1.0000
  C   C668      1.0  0.35978  0.88768  0.19896  1.0000
  C   C669      1.0  0.35052  0.87773  0.19609  1.0000
  C   C670      1.0  0.33585  0.88498  0.19012  1.0000
  C   C671      1.0  0.33054  0.90226  0.18664  1.0000
  C   C672      1.0  0.33991  0.91228  0.18924  1.0000
  C   C673      1.0  0.35445  0.90498  0.19555  1.0000
  H   H1050     1.0  0.35455  0.86436  0.19870  1.0000
  H   H1051     1.0  0.32864  0.87719  0.18816  1.0000
  H   H1052     1.0  0.33580  0.92561  0.18668  1.0000
  H   H1053     1.0  0.36148  0.91276  0.19768  1.0000
  C   C674      1.0  0.40659  0.96518  0.20942  1.0000
  C   C675      1.0  0.40456  0.96508  0.19372  1.0000
  C   C676      1.0  0.28557  0.97368  0.21010  1.0000
  H   H1054     1.0  0.05183  0.77873  0.09950  1.0000
  H   H1055     1.0  0.28736  0.96325  0.20439  1.0000
  H   H1056     1.0  0.03704  0.65849  0.04738  1.0000
  S   S297      1.0  0.35246  0.97172  0.15024  1.0000
  H   H1057     1.0  0.03974  0.80200  0.11337  1.0000
  H   H1058     1.0  0.32375  0.95377  0.21870  1.0000
  H   H1059     1.0  0.13816  0.86986  0.99824  1.0000
  C   C677      1.0  0.04151  0.69691  0.04802  1.0000
  C   C678      1.0  0.03049  0.69903  0.06296  1.0000
  C   C679      1.0  0.02197  0.68656  0.07237  1.0000
  N   N67       1.0  0.41183  0.83794  0.23020  1.0000
  H   H1060     1.0  0.38286  0.95288  0.16348  1.0000
  H   H1061     1.0  0.02893  0.70999  0.06760  1.0000
  Fe  Fe146     1.0  0.28972  0.81228  0.99453  1.0000
  C   C680      1.0  0.10269  0.79730  0.05292  1.0000
  C   C681      1.0  0.09891  0.80919  0.03897  1.0000
  C   C682      1.0  0.08802  0.80706  0.03017  1.0000
  C   C683      1.0  0.08109  0.79287  0.03505  1.0000
  C   C684      1.0  0.08497  0.78094  0.04895  1.0000
  C   C685      1.0  0.09562  0.78322  0.05794  1.0000
  H   H1062     1.0  0.10411  0.82023  0.03517  1.0000
  H   H1063     1.0  0.08481  0.81655  0.01968  1.0000
  H   H1064     1.0  0.07988  0.76988  0.05273  1.0000
  H   H1065     1.0  0.09857  0.77394  0.06869  1.0000
  H   H1066     1.0  0.00588  0.76775  0.08592  1.0000
  C   C686      1.0  0.06549  0.71550  0.09717  1.0000
  C   C687      1.0  0.22834  0.79061  0.01153  1.0000
  C   C688      1.0  0.21138  0.79722  0.01202  1.0000
  C   C689      1.0  0.20168  0.91025  0.99818  1.0000
  H   H1067     1.0  0.03318  0.71633  0.11064  1.0000
  H   H1068     1.0  0.06022  0.70635  0.07128  1.0000
  H   H1069     1.0  0.23243  0.78278  0.02251  1.0000
  N   N68       1.0  0.12041  0.79889  0.98606  1.0000
  Fe  Fe147     1.0  0.00411  0.66067  0.10440  1.0000
  H   H1070     1.0  0.06020  0.80641  0.10873  1.0000
  H   H1071     1.0  0.41807  0.82743  0.20851  1.0000
  H   H1072     1.0  0.16835  0.86702  0.98844  1.0000
  H   H1073     1.0  0.12580  0.88806  0.00564  1.0000
  Fe  Fe148     1.0  0.32810  0.96589  0.15010  1.0000
  C   C690      1.0  0.26076  0.93528  0.09395  1.0000
  C   C691      1.0  0.27729  0.93403  0.08534  1.0000
  C   C692      1.0  0.28850  0.94038  0.09045  1.0000
  C   C693      1.0  0.28352  0.94777  0.10440  1.0000
  C   C694      1.0  0.26704  0.94882  0.11313  1.0000
  C   C695      1.0  0.25575  0.94276  0.10784  1.0000
  H   H1074     1.0  0.28142  0.92833  0.07465  1.0000
  H   H1075     1.0  0.30117  0.93956  0.08352  1.0000
  H   H1076     1.0  0.26288  0.95470  0.12372  1.0000
  H   H1077     1.0  0.24298  0.94393  0.11455  1.0000
  C   C696      1.0  0.20194  0.86694  0.06373  1.0000
  C   C697      1.0  0.19462  0.85300  0.06841  1.0000
  C   C698      1.0  0.18105  0.85291  0.06196  1.0000
  C   C699      1.0  0.17440  0.86695  0.05114  1.0000
  C   C700      1.0  0.18154  0.88101  0.04663  1.0000
  C   C701      1.0  0.19541  0.88095  0.05277  1.0000
  H   H1078     1.0  0.19952  0.84219  0.07702  1.0000
  H   H1079     1.0  0.17547  0.84212  0.06568  1.0000
  H   H1080     1.0  0.17639  0.89196  0.03835  1.0000
  H   H1081     1.0  0.20093  0.89177  0.04915  1.0000
  C   C702      1.0  0.29165  0.86084  0.02878  1.0000
  C   C703      1.0  0.29993  0.85513  0.01426  1.0000
  C   C704      1.0  0.29768  0.84026  0.01191  1.0000
  C   C705      1.0  0.28781  0.83067  0.02441  1.0000
  C   C706      1.0  0.27999  0.83610  0.03916  1.0000
  C   C707      1.0  0.28154  0.85141  0.04116  1.0000
  H   H1082     1.0  0.30780  0.86238  0.00470  1.0000
  H   H1083     1.0  0.30375  0.83620  0.00049  1.0000
  H   H1084     1.0  0.27250  0.82865  0.04894  1.0000
  H   H1085     1.0  0.27512  0.85580  0.05241  1.0000
  C   C708      1.0  0.22054  0.92696  0.99909  1.0000
  C   C709      1.0  0.21119  0.91476  0.00694  1.0000
  H   H1086     1.0  0.13993  0.87344  0.01740  1.0000
  H   H1087     1.0  0.21072  0.90930  0.01993  1.0000
  H   H1088     1.0  0.06091  0.78200  0.07793  1.0000
  S   S298      1.0  0.03646  0.75347  0.09661  1.0000
  N   N69       1.0  0.28624  0.90524  0.14663  1.0000
  C   C710      1.0  0.29818  0.88939  0.15019  1.0000
  C   C711      1.0  0.29543  0.91875  0.13906  1.0000
  C   C712      1.0  0.27490  0.90877  0.16221  1.0000
  C   C713      1.0  0.27647  0.90415  0.13506  1.0000
  H   H1089     1.0  0.29171  0.87887  0.15592  1.0000
  H   H1090     1.0  0.30567  0.88989  0.15895  1.0000
  H   H1091     1.0  0.30703  0.88649  0.13871  1.0000
  H   H1092     1.0  0.28679  0.93100  0.13714  1.0000
  H   H1093     1.0  0.30358  0.91940  0.14705  1.0000
  H   H1094     1.0  0.30344  0.91717  0.12678  1.0000
  H   H1095     1.0  0.28187  0.90976  0.17118  1.0000
  H   H1096     1.0  0.26774  0.89883  0.16833  1.0000
  H   H1097     1.0  0.26582  0.92075  0.15998  1.0000
  H   H1098     1.0  0.26708  0.91580  0.13249  1.0000
  H   H1099     1.0  0.26967  0.89381  0.14015  1.0000
  H   H1100     1.0  0.28454  0.90214  0.12292  1.0000
  N   N70       1.0  0.38786  0.92978  0.15551  1.0000
  C   C714      1.0  0.39055  0.94678  0.15315  1.0000
  C   C715      1.0  0.39266  0.91965  0.17107  1.0000
  C   C716      1.0  0.39813  0.92228  0.14146  1.0000
  C   C717      1.0  0.37013  0.93044  0.15640  1.0000
  H   H1101     1.0  0.40374  0.94676  0.15275  1.0000
  H   H1102     1.0  0.36401  0.97927  0.20495  1.0000
  S   S299      1.0  0.99870  0.71232  0.12433  1.0000
  H   H1103     1.0  0.10089  0.78625  0.00057  1.0000
  H   H1104     1.0  0.40599  0.91882  0.17079  1.0000
  H   H1105     1.0  0.38536  0.92526  0.18181  1.0000
  H   H1106     1.0  0.39644  0.90943  0.14288  1.0000
  H   H1107     1.0  0.41158  0.92166  0.14042  1.0000
  H   H1108     1.0  0.39477  0.92968  0.12954  1.0000
  H   H1109     1.0  0.40077  0.98002  0.16994  1.0000
  H   H1110     1.0  0.36610  0.93791  0.14481  1.0000
  H   H1111     1.0  0.36202  0.93637  0.16669  1.0000
  H   H1112     1.0  0.05122  0.67972  0.11298  1.0000
  H   H1113     1.0  0.25937  0.94921  0.05750  1.0000
  H   H1114     1.0  0.26180  0.95665  0.03557  1.0000
  H   H1115     1.0  0.40850  0.95372  0.21839  1.0000
  H   H1116     1.0  0.01357  0.68830  0.08394  1.0000
  C   C718      1.0  0.24005  0.79406  0.99686  1.0000
  H   H1117     1.0  0.34266  0.94404  0.22593  1.0000
  H   H1118     1.0  0.32079  0.76476  0.01102  1.0000
  H   H1119     1.0  0.05237  0.68051  0.03090  1.0000
  H   H1120     1.0  0.06096  0.72112  0.10835  1.0000
  H   H1121     1.0  0.33220  0.76954  0.04053  1.0000
  C   C719      1.0  0.16786  0.87710  0.99476  1.0000
  H   H1122     1.0  0.43543  0.82077  0.22973  1.0000
  H   H1123     1.0  0.03602  0.72148  0.08864  1.0000
  H   H1124     1.0  0.24105  0.98012  0.02416  1.0000
  H   H1125     1.0  0.38714  0.95484  0.14150  1.0000
  C   C720      1.0  0.28756  0.97091  0.22648  1.0000
  C   C721      1.0  0.20616  0.80730  0.99779  1.0000
  C   C722      1.0  0.05811  0.68941  0.11228  1.0000
  H   H1126     1.0  0.09412  0.80807  0.99342  1.0000
  H   H1127     1.0  0.02921  0.76993  0.12400  1.0000
  N   N71       1.0  0.22801  0.83332  0.03039  1.0000
  C   C723      1.0  0.22062  0.85072  0.02366  1.0000
  C   C724      1.0  0.21482  0.82356  0.03665  1.0000
  C   C725      1.0  0.23597  0.83278  0.04404  1.0000
  C   C726      1.0  0.24064  0.82623  0.01718  1.0000
  H   H1128     1.0  0.21078  0.85626  0.03324  1.0000
  H   H1129     1.0  0.21475  0.85160  0.01315  1.0000
  H   H1130     1.0  0.23009  0.85860  0.01926  1.0000
  H   H1131     1.0  0.20808  0.82433  0.02684  1.0000
  H   H1132     1.0  0.21996  0.81018  0.04116  1.0000
  H   H1133     1.0  0.20541  0.82810  0.04709  1.0000
  H   H1134     1.0  0.24231  0.81993  0.04893  1.0000
  H   H1135     1.0  0.22675  0.83742  0.05455  1.0000
  H   H1136     1.0  0.24539  0.84071  0.03994  1.0000
  H   H1137     1.0  0.24635  0.81303  0.02179  1.0000
  H   H1138     1.0  0.25093  0.83311  0.01243  1.0000
  H   H1139     1.0  0.23513  0.82652  0.00659  1.0000
  N   N72       1.0  0.05199  0.80427  0.08775  1.0000
  C   C727      1.0  0.04859  0.80900  0.10396  1.0000
  C   C728      1.0  0.06354  0.81399  0.07558  1.0000
  C   C729      1.0  0.03626  0.80769  0.08196  1.0000
  H   H1140     1.0  0.04296  0.82246  0.10312  1.0000
  H   H1141     1.0  0.07212  0.78352  0.09248  1.0000
  C   C730      1.0  0.06193  0.69639  0.08247  1.0000
  H   H1142     1.0  0.05843  0.82758  0.07418  1.0000
  H   H1143     1.0  0.06607  0.81095  0.06315  1.0000
  H   H1144     1.0  0.07577  0.81141  0.07927  1.0000
  H   H1145     1.0  0.02734  0.80036  0.09070  1.0000
  H   H1146     1.0  0.03843  0.80440  0.06967  1.0000
  H   H1147     1.0  0.03005  0.82103  0.08078  1.0000
  C   C731      1.0  0.01901  0.76743  0.10437  1.0000
  H   H1148     1.0  0.34227  0.94677  0.20440  1.0000
  N   N73       1.0  0.05593  0.70307  0.09778  1.0000
  H   H1149     1.0  0.34079  0.80227  0.01960  1.0000
  H   H1150     1.0  0.05334  0.69403  0.12405  1.0000
  H   H1151     1.0  0.35259  0.77250  0.02943  1.0000
  C   C732      1.0  0.40218  0.98003  0.18215  1.0000
  Fe  Fe149     1.0  0.29216  0.97397  0.16639  1.0000
  H   H1152     1.0  0.07142  0.68325  0.11175  1.0000
  C   C733      1.0  0.25730  0.96057  0.04770  1.0000
  C   C734      1.0  0.40669  0.98016  0.21336  1.0000
  Fe  Fe150     1.0  0.38823  0.89436  0.21663  1.0000
  H   H1153     1.0  0.19385  0.90141  0.00458  1.0000
  H   H1154     1.0  0.41058  0.86228  0.21461  1.0000
  H   H1155     1.0  0.15331  0.89599  0.01747  1.0000
  H   H1156     1.0  0.26534  0.96873  0.04830  1.0000
  H   H1157     1.0  0.00392  0.74447  0.02960  1.0000
  N   N74       1.0  0.33362  0.78168  0.01497  1.0000
  H   H1158     1.0  0.13755  0.80316  0.99823  1.0000
  H   H1159     1.0  0.29100  0.95835  0.23325  1.0000
  C   C735      1.0  0.23431  0.97423  0.06607  1.0000
  H   H1160     1.0  0.07537  0.69049  0.08080  1.0000
  C   C736      1.0  0.03813  0.71103  0.09926  1.0000
  H   H1161     1.0  0.31242  0.78627  0.00415  1.0000
  Fe  Fe151     1.0  0.01543  0.76698  0.04315  1.0000
  C   C737      1.0  0.40711  0.83125  0.21815  1.0000
  N   N75       1.0  0.34191  0.96907  0.21200  1.0000
  H   H1162     1.0  0.29464  0.88923  0.98802  1.0000
  S   S300      1.0  0.40994  0.91902  0.23400  1.0000
  C   C738      1.0  0.33546  0.97623  0.22703  1.0000
  H   H1163     1.0  0.11650  0.81333  0.00446  1.0000
  C   C739      1.0  0.03515  0.66982  0.05172  1.0000
  C   C740      1.0  0.34097  0.76956  0.02833  1.0000
  H   H1164     1.0  0.07896  0.70995  0.09629  1.0000
  H   H1165     1.0  0.32165  0.97825  0.23064  1.0000
  C   C741      1.0  0.33749  0.95268  0.21538  1.0000
  H   H1166     1.0  0.30885  0.77747  0.02576  1.0000
  H   H1167     1.0  0.16130  0.90870  0.99837  1.0000
  H   H1168     1.0  0.32024  0.79931  0.03036  1.0000
  H   H1169     1.0  0.23587  0.96337  0.07653  1.0000
  C   C742      1.0  0.01899  0.77430  0.11757  1.0000
  N   N76       1.0  0.15160  0.88881  0.99570  1.0000
  H   H1170     1.0  0.39053  0.90679  0.17352  1.0000
  C   C743      1.0  0.02438  0.67189  0.06680  1.0000
  H   H1171     1.0  0.21597  0.96345  0.05112  1.0000
  H   H1172     1.0  0.34047  0.79031  0.98863  1.0000
  H   H1173     1.0  0.32065  0.98195  0.20124  1.0000
  H   H1174     1.0  0.40145  0.82024  0.22432  1.0000
  C   C744      1.0  0.22940  0.95748  0.04965  1.0000
  H   H1175     1.0  0.35740  0.78452  0.99924  1.0000
  C   C745      1.0  0.04382  0.68226  0.04243  1.0000
  N   N77       1.0  0.23958  0.96900  0.04997  1.0000
  H   H1176     1.0  0.00632  0.79332  0.13164  1.0000
  C   C746      1.0  0.34560  0.78133  0.99901  1.0000
  C   C747      1.0  0.41931  0.85245  0.22139  1.0000
  C   C748      1.0  0.28121  0.89520  0.99043  1.0000
  Fe  Fe152     1.0  0.41797  0.89255  0.23106  1.0000
  H   H1177     1.0  0.33906  0.98832  0.22528  1.0000
  H   H1178     1.0  0.06419  0.72590  0.08628  1.0000
  H   H1179     1.0  0.36756  0.91783  0.15848  1.0000
  H   H1180     1.0  0.34409  0.75673  0.02601  1.0000
  S   S301      1.0  0.28776  0.79040  0.98583  1.0000
  H   H1181     1.0  0.17819  0.88347  0.98776  1.0000
  H   H1182     1.0  0.03044  0.70210  0.09978  1.0000
  C   C749      1.0  0.31828  0.77727  0.01399  1.0000
  H   H1183     1.0  0.42269  0.85806  0.23011  1.0000
  H   H1184     1.0  0.23059  0.94639  0.05989  1.0000
  C   C750      1.0  0.32957  0.79851  0.01858  1.0000
  H   H1185     1.0  0.05508  0.68684  0.08258  1.0000
  C   C751      1.0  0.00610  0.78749  0.12187  1.0000
  S   S302      1.0  0.13471  0.84066  0.99040  1.0000
  C   C752      1.0  0.10302  0.79679  0.98995  1.0000
  H   H1186     1.0  0.28024  0.90883  0.98840  1.0000
  H   H1187     1.0  0.23321  0.95298  0.03780  1.0000
  C   C753      1.0  0.00574  0.77298  0.09618  1.0000
  C   C754      1.0  0.28040  0.98983  0.20150  1.0000
  H   H1188     1.0  0.24180  0.98285  0.06683  1.0000
  H   H1189     1.0  0.43087  0.84902  0.21222  1.0000
  H   H1190     1.0  0.26852  0.86806  0.99644  1.0000
  H   H1191     1.0  0.27610  0.89085  0.00379  1.0000
  H   H1192     1.0  0.17048  0.87127  0.00732  1.0000
  H   H1193     1.0  0.36552  0.96192  0.19603  1.0000
  H   H1194     1.0  0.24859  0.89535  0.99672  1.0000
  C   C755      1.0  0.36020  0.96716  0.20740  1.0000
  H   H1195     1.0  0.22098  0.98056  0.06829  1.0000
  S   S303      1.0  0.02008  0.66817  0.11702  1.0000
  H   H1196     1.0  0.13925  0.91069  0.00559  1.0000
  H   H1197     1.0  0.37428  0.98452  0.16203  1.0000
  H   H1198     1.0  0.33896  0.97501  0.18674  1.0000
  C   C756      1.0  0.23733  0.98372  0.03645  1.0000
  H   H1199     1.0  0.99886  0.67754  0.04606  1.0000
  C   C757      1.0  0.33446  0.98019  0.19821  1.0000
  H   H1200     1.0  0.13042  0.77266  0.99150  1.0000
  H   H1201     1.0  0.00685  0.66440  0.18487  1.0000
  Fe  Fe153     1.0  0.99718  0.68635  0.12525  1.0000
  C   C758      1.0  0.28481  0.98428  0.23425  1.0000
  H   H1202     1.0  0.08709  0.77982  0.47030  1.0000
  C   C759      1.0  0.47396  0.73518  0.40721  1.0000
  Fe  Fe154     1.0  0.40288  0.68500  0.41924  1.0000
  S   S304      1.0  0.40136  0.69950  0.39364  1.0000
  H   H1203     1.0  0.39994  0.84799  0.25197  1.0000
  Fe  Fe155     1.0  0.43666  0.69366  0.41722  1.0000
  S   S305      1.0  0.43761  0.70787  0.39124  1.0000
  S   S306      1.0  0.45855  0.69164  0.42863  1.0000
  Fe  Fe156     1.0  0.41079  0.71846  0.40050  1.0000
  S   S307      1.0  0.39950  0.74570  0.39509  1.0000
  Fe  Fe157     1.0  0.42815  0.68736  0.38730  1.0000
  S   S308      1.0  0.41009  0.70518  0.42693  1.0000
  Fe  Fe158     1.0  0.46056  0.78839  0.34320  1.0000
  S   S309      1.0  0.44336  0.78123  0.33184  1.0000
  S   S310      1.0  0.45041  0.79329  0.36878  1.0000
  C   C760      1.0  0.45683  0.66467  0.36376  1.0000
  C   C761      1.0  0.48911  0.67903  0.39396  1.0000
  Fe  Fe159     1.0  0.45394  0.79725  0.30828  1.0000
  S   S311      1.0  0.43359  0.81257  0.29490  1.0000
  Fe  Fe160     1.0  0.46471  0.76104  0.32485  1.0000
  S   S312      1.0  0.46955  0.80627  0.32032  1.0000
  H   H1204     1.0  0.39073  0.83247  0.24927  1.0000
  S   S313      1.0  0.38378  0.66940  0.43338  1.0000
  C   C762      1.0  0.35789  0.66983  0.39910  1.0000
  S   S314      1.0  0.36870  0.92042  0.26670  1.0000
  H   H1205     1.0  0.06635  0.78189  0.46757  1.0000
  H   H1206     1.0  0.38748  0.85298  0.23657  1.0000
  H   H1207     1.0  0.44537  0.72805  0.44496  1.0000
  C   C763      1.0  0.42258  0.75515  0.45278  1.0000
  C   C764      1.0  0.36497  0.94203  0.26419  1.0000
  C   C765      1.0  0.35360  0.94982  0.27629  1.0000
  C   C766      1.0  0.35025  0.96715  0.27414  1.0000
  H   H1208     1.0  0.48388  0.79219  0.39884  1.0000
  C   C767      1.0  0.37008  0.96885  0.24808  1.0000
  C   C768      1.0  0.37329  0.95153  0.25012  1.0000
  H   H1209     1.0  0.34720  0.94251  0.28723  1.0000
  H   H1210     1.0  0.43493  0.75446  0.45542  1.0000
  H   H1211     1.0  0.48096  0.69924  0.36620  1.0000
  H   H1212     1.0  0.41485  0.72251  0.32655  1.0000
  C   C769      1.0  0.43647  0.83096  0.28052  1.0000
  C   C770      1.0  0.42238  0.84296  0.27711  1.0000
  C   C771      1.0  0.42397  0.85721  0.26474  1.0000
  C   C772      1.0  0.43959  0.85941  0.25537  1.0000
  C   C773      1.0  0.45378  0.84762  0.25905  1.0000
  C   C774      1.0  0.45224  0.83342  0.27170  1.0000
  H   H1213     1.0  0.41018  0.84114  0.28402  1.0000
  C   C775      1.0  0.43451  0.75565  0.42385  1.0000
  S   S315      1.0  0.28694  0.98024  0.25498  1.0000
  H   H1214     1.0  0.46318  0.82416  0.27427  1.0000
  C   C776      1.0  0.41417  0.75840  0.38892  1.0000
  C   C777      1.0  0.40976  0.77426  0.39259  1.0000
  C   C778      1.0  0.42123  0.78474  0.38721  1.0000
  C   C779      1.0  0.43694  0.77950  0.37779  1.0000
  C   C780      1.0  0.44139  0.76358  0.37431  1.0000
  C   C781      1.0  0.43008  0.75302  0.37997  1.0000
  H   H1215     1.0  0.39739  0.77856  0.39933  1.0000
  H   H1216     1.0  0.41765  0.79717  0.38964  1.0000
  H   H1217     1.0  0.45346  0.75950  0.36692  1.0000
  H   H1218     1.0  0.43348  0.74109  0.37658  1.0000
  C   C782      1.0  0.47030  0.70740  0.42190  1.0000
  H   H1219     1.0  0.48861  0.69385  0.43652  1.0000
  H   H1220     1.0  0.43069  0.73400  0.32335  1.0000
  C   C783      1.0  0.46533  0.72221  0.41099  1.0000
  S   S316      1.0  0.39304  0.88612  0.24231  1.0000
  Fe  Fe161     1.0  0.38471  0.91292  0.24363  1.0000
  H   H1221     1.0  0.45454  0.72393  0.40584  1.0000
  H   H1222     1.0  0.41307  0.86639  0.26246  1.0000
  C   C784      1.0  0.36819  0.67395  0.40724  1.0000
  C   C785      1.0  0.47878  0.70478  0.32553  1.0000
  H   H1223     1.0  0.37451  0.68400  0.40122  1.0000
  H   H1224     1.0  0.40245  0.66519  0.38730  1.0000
  H   H1225     1.0  0.38954  0.72689  0.34886  1.0000
  H   H1226     1.0  0.47652  0.68718  0.39574  1.0000
  H   H1227     1.0  0.48762  0.66696  0.39244  1.0000
  H   H1228     1.0  0.34037  0.96782  0.23784  1.0000
  H   H1229     1.0  0.43298  0.72285  0.35255  1.0000
  S   S317      1.0  0.42948  0.67189  0.41262  1.0000
  H   H1230     1.0  0.43379  0.72299  0.43285  1.0000
  N   N78       1.0  0.41086  0.73775  0.34429  1.0000
  H   H1231     1.0  0.48302  0.77753  0.37815  1.0000
  H   H1232     1.0  0.46463  0.67056  0.33724  1.0000
  H   H1233     1.0  0.40874  0.74209  0.42543  1.0000
  C   C786      1.0  0.41705  0.73457  0.32734  1.0000
  C   C787      1.0  0.46817  0.66365  0.34878  1.0000
  C   C788      1.0  0.48312  0.72834  0.30317  1.0000
  C   C789      1.0  0.07368  0.78283  0.47623  1.0000
  C   C790      1.0  0.37006  0.66521  0.42317  1.0000
  H   H1234     1.0  0.40905  0.75690  0.35725  1.0000
  H   H1235     1.0  0.34157  0.97308  0.28361  1.0000
  C   C791      1.0  0.39273  0.73866  0.34918  1.0000
  H   H1236     1.0  0.35660  0.67662  0.38675  1.0000
  C   C792      1.0  0.43259  0.72948  0.44297  1.0000
  H   H1237     1.0  0.38783  0.74085  0.36204  1.0000
  N   N79       1.0  0.42436  0.74715  0.43883  1.0000
  H   H1238     1.0  0.41641  0.76850  0.45005  1.0000
  H   H1239     1.0  0.38209  0.94562  0.24073  1.0000
  C   C793      1.0  0.41924  0.72411  0.35589  1.0000
  H   H1240     1.0  0.47245  0.69971  0.33780  1.0000
  H   H1241     1.0  0.41506  0.72639  0.36868  1.0000
  C   C794      1.0  0.35832  0.97668  0.25995  1.0000
  C   C795      1.0  0.49467  0.71769  0.29355  1.0000
  H   H1242     1.0  0.42867  0.76900  0.42031  1.0000
  H   H1243     1.0  0.47368  0.80869  0.37385  1.0000
  H   H1244     1.0  0.41499  0.74903  0.46430  1.0000
  H   H1245     1.0  0.41667  0.71194  0.35597  1.0000
  H   H1246     1.0  0.42545  0.72267  0.45434  1.0000
  S   S318      1.0  0.47410  0.77623  0.30016  1.0000
  H   H1247     1.0  0.38595  0.74897  0.34084  1.0000
  C   C796      1.0  0.48789  0.73328  0.41395  1.0000
  C   C797      1.0  0.47523  0.72187  0.31918  1.0000
  C   C798      1.0  0.48666  0.80939  0.36727  1.0000
  H   H1248     1.0  0.44716  0.75499  0.42570  1.0000
  H   H1249     1.0  0.41094  0.74455  0.31822  1.0000
  N   N80       1.0  0.41057  0.90041  0.28717  1.0000
  C   C799      1.0  0.40409  0.91841  0.28198  1.0000
  C   C800      1.0  0.39869  0.89104  0.28601  1.0000
  C   C801      1.0  0.41270  0.89673  0.30447  1.0000
  C   C802      1.0  0.42677  0.89543  0.27627  1.0000
  H   H1250     1.0  0.41259  0.92594  0.28287  1.0000
  H   H1251     1.0  0.39164  0.92253  0.28965  1.0000
  H   H1252     1.0  0.40245  0.92165  0.26894  1.0000
  H   H1253     1.0  0.38614  0.89486  0.29366  1.0000
  H   H1254     1.0  0.39702  0.89334  0.27307  1.0000
  H   H1255     1.0  0.40298  0.87742  0.29015  1.0000
  H   H1256     1.0  0.41758  0.88323  0.30877  1.0000
  H   H1257     1.0  0.40067  0.90031  0.31300  1.0000
  H   H1258     1.0  0.42159  0.90360  0.30582  1.0000
  H   H1259     1.0  0.43203  0.88190  0.27979  1.0000
  H   H1260     1.0  0.43608  0.90228  0.27671  1.0000
  H   H1261     1.0  0.42560  0.89794  0.26313  1.0000
  C   C803      1.0  0.40777  0.74829  0.43570  1.0000
  H   H1262     1.0  0.07065  0.79601  0.47753  1.0000
  H   H1263     1.0  0.43604  0.74998  0.41305  1.0000
  H   H1264     1.0  0.40130  0.76142  0.43209  1.0000
  H   H1265     1.0  0.39966  0.74215  0.44676  1.0000
  H   H1266     1.0  0.48733  0.80999  0.35394  1.0000
  S   S319      1.0  0.44151  0.87650  0.23872  1.0000
  H   H1267     1.0  0.46596  0.84930  0.25194  1.0000
  S   S320      1.0  0.48115  0.76680  0.33821  1.0000
  H   H1268     1.0  0.42807  0.75285  0.34258  1.0000
  C   C804      1.0  0.41446  0.75360  0.34490  1.0000
  C   C805      1.0  0.48459  0.70530  0.42816  1.0000
  S   S321      1.0  0.43711  0.67763  0.36389  1.0000
  H   H1269     1.0  0.46970  0.74680  0.39918  1.0000
  S   S322      1.0  0.46101  0.73486  0.33155  1.0000
  H   H1270     1.0  0.40936  0.76408  0.33551  1.0000
  H   H1271     1.0  0.49368  0.67664  0.40562  1.0000
  H   H1272     1.0  0.06709  0.75251  0.48164  1.0000
  H   H1273     1.0  0.48898  0.82127  0.36837  1.0000
  S   S323      1.0  0.12028  0.67960  0.47692  1.0000
  H   H1274     1.0  0.48018  0.74149  0.29810  1.0000
  S   S324      1.0  0.20525  0.66022  0.47906  1.0000
  Fe  Fe162     1.0  0.48893  0.78381  0.31424  1.0000
  H   H1275     1.0  0.42807  0.82990  0.24761  1.0000
  C   C806      1.0  0.49346  0.71812  0.42407  1.0000
  Fe  Fe163     1.0  0.14402  0.66201  0.48178  1.0000
  C   C807      1.0  0.49064  0.69423  0.31610  1.0000
  H   H1276     1.0  0.41873  0.81406  0.24579  1.0000
  C   C808      1.0  0.39684  0.84306  0.24254  1.0000
  H   H1277     1.0  0.49668  0.78009  0.35823  1.0000
  H   H1278     1.0  0.37635  0.97621  0.23710  1.0000
  C   C809      1.0  0.42403  0.82508  0.23867  1.0000
  C   C810      1.0  0.49566  0.77959  0.37156  1.0000
  H   H1279     1.0  0.20080  0.65815  0.44726  1.0000
  H   H1280     1.0  0.49345  0.68107  0.32108  1.0000
  C   C811      1.0  0.49329  0.69055  0.36466  1.0000
  H   H1281     1.0  0.49103  0.71133  0.38427  1.0000
  H   H1282     1.0  0.49138  0.67913  0.36202  1.0000
  C   C812      1.0  0.49655  0.79399  0.39207  1.0000
  Fe  Fe164     1.0  0.03436  0.75338  0.54335  1.0000
  S   S325      1.0  0.02576  0.73677  0.56729  1.0000
  S   S326      1.0  0.01736  0.77727  0.53471  1.0000
  Fe  Fe165     1.0  0.06935  0.73251  0.53861  1.0000
  S   S327      1.0  0.06393  0.71418  0.56235  1.0000
  S   S328      1.0  0.09525  0.73162  0.52339  1.0000
  Fe  Fe166     1.0  0.04027  0.71608  0.55443  1.0000
  S   S329      1.0  0.02907  0.69428  0.55718  1.0000
  Fe  Fe167     1.0  0.05002  0.73656  0.57300  1.0000
  S   S330      1.0  0.04969  0.73855  0.59876  1.0000
  S   S331      1.0  0.04667  0.73274  0.52969  1.0000
  S   S332      1.0  0.05763  0.75479  0.54995  1.0000
  H   H1283     1.0  0.04412  0.77463  0.49206  1.0000
  N   N81       1.0  0.01674  0.71417  0.63916  1.0000
  S   S333      1.0  0.02550  0.81201  0.61014  1.0000
  H   H1284     1.0  0.10366  0.92604  0.71056  1.0000
  H   H1285     1.0  0.19146  0.94890  0.63377  1.0000
  C   C813      1.0  0.00454  0.70331  0.64441  1.0000
  Fe  Fe168     1.0  0.16525  0.96452  0.67448  1.0000
  H   H1286     1.0  0.07139  0.74547  0.50204  1.0000
  S   S334      1.0  0.17541  0.94028  0.69002  1.0000
  H   H1287     1.0  0.08365  0.98958  0.68933  1.0000
  H   H1288     1.0  0.02389  0.83175  0.71109  1.0000
  S   S335      1.0  0.15844  0.96358  0.65126  1.0000
  Fe  Fe169     1.0  0.03644  0.90109  0.71251  1.0000
  H   H1289     1.0  0.02909  0.70629  0.61630  1.0000
  S   S336      1.0  0.02041  0.89256  0.69965  1.0000
  C   C814      1.0  0.22468  0.94210  0.62712  1.0000
  C   C815      1.0  0.22119  0.92507  0.65479  1.0000
  Fe  Fe170     1.0  0.07066  0.90944  0.70420  1.0000
  S   S337      1.0  0.09552  0.90732  0.68696  1.0000
  H   H1290     1.0  0.22672  0.93122  0.62138  1.0000
  S   S338      1.0  0.04739  0.92203  0.69486  1.0000
  C   C816      1.0  0.10589  0.95949  0.66672  1.0000
  C   C817      1.0  0.11897  0.94561  0.66602  1.0000
  C   C818      1.0  0.11573  0.92955  0.67180  1.0000
  C   C819      1.0  0.09946  0.92736  0.67873  1.0000
  C   C820      1.0  0.08645  0.94125  0.67974  1.0000
  C   C821      1.0  0.08962  0.95727  0.67350  1.0000
  H   H1291     1.0  0.13152  0.94721  0.66065  1.0000
  H   H1292     1.0  0.12584  0.91885  0.67104  1.0000
  H   H1293     1.0  0.07387  0.93973  0.68515  1.0000
  H   H1294     1.0  0.07944  0.96792  0.67400  1.0000
  H   H1295     1.0  0.21919  0.95331  0.61856  1.0000
  C   C822      1.0  0.17769  0.95805  0.71160  1.0000
  C   C823      1.0  0.17554  0.94301  0.70963  1.0000
  H   H1296     1.0  0.00953  0.69094  0.65168  1.0000
  H   H1297     1.0  0.08210  0.68228  0.52854  1.0000
  H   H1298     1.0  0.18000  0.96786  0.70091  1.0000
  C   C824      1.0  0.07998  0.77318  0.50353  1.0000
  H   H1299     1.0  0.03880  0.67628  0.61373  1.0000
  H   H1300     1.0  0.23704  0.94375  0.62774  1.0000
  H   H1301     1.0  0.15512  0.98989  0.71984  1.0000
  C   C825      1.0  0.01722  0.87370  0.69670  1.0000
  C   C826      1.0  0.07421  0.75424  0.49009  1.0000
  C   C827      1.0  0.01072  0.84450  0.69143  1.0000
  C   C828      1.0  0.21126  0.95473  0.65067  1.0000
  H   H1302     1.0  0.10381  0.66332  0.51235  1.0000
  C   C829      1.0  0.00533  0.67233  0.60148  1.0000
  C   C830      1.0  0.00688  0.78257  0.70493  1.0000
  C   C831      1.0  0.10200  0.71735  0.51030  1.0000
  C   C832      1.0  0.11901  0.71270  0.50388  1.0000
  C   C833      1.0  0.02180  0.98875  0.72895  1.0000
  H   H1303     1.0  0.19871  0.92681  0.63705  1.0000
  N   N82       1.0  0.21367  0.93993  0.64368  1.0000
  C   C834      1.0  0.09064  0.71070  0.50610  1.0000
  H   H1304     1.0  0.12782  0.71792  0.50701  1.0000
  H   H1305     1.0  0.03659  0.88977  0.66310  1.0000
  H   H1306     1.0  0.07749  0.71421  0.51101  1.0000
  C   C835      1.0  0.04420  0.75907  0.60176  1.0000
  C   C836      1.0  0.03883  0.76197  0.61786  1.0000
  C   C837      1.0  0.03320  0.77824  0.62046  1.0000
  C   C838      1.0  0.03365  0.79170  0.60702  1.0000
  C   C839      1.0  0.03973  0.78884  0.59095  1.0000
  C   C840      1.0  0.04470  0.77254  0.58832  1.0000
  H   H1307     1.0  0.03881  0.75167  0.62835  1.0000
  H   H1308     1.0  0.02866  0.78034  0.63291  1.0000
  H   H1309     1.0  0.04035  0.79920  0.58053  1.0000
  H   H1310     1.0  0.04914  0.77047  0.57591  1.0000
  C   C841      1.0  0.02458  0.68456  0.57808  1.0000
  C   C842      1.0  0.07451  0.89842  0.65877  1.0000
  H   H1311     1.0  0.00435  0.83292  0.56149  1.0000
  C   C843      1.0  0.20386  0.66375  0.51881  1.0000
  H   H1312     1.0  0.05940  0.86739  0.65332  1.0000
  C   C844      1.0  0.19743  0.93792  0.64217  1.0000
  H   H1313     1.0  0.04841  0.78890  0.50189  1.0000
  H   H1314     1.0  0.01582  0.79507  0.57014  1.0000
  C   C845      1.0  0.00529  0.86003  0.68181  1.0000
  H   H1315     1.0  0.07319  0.66534  0.54163  1.0000
  H   H1316     1.0  0.99824  0.73687  0.63805  1.0000
  C   C846      1.0  0.00362  0.80058  0.56645  1.0000
  S   S339      1.0  0.06511  0.92430  0.72371  1.0000
  C   C847      1.0  0.17716  0.96030  0.72744  1.0000
  H   H1317     1.0  0.01581  0.78923  0.70658  1.0000
  C   C848      1.0  0.03286  0.97375  0.72675  1.0000
  C   C849      1.0  0.00929  0.73052  0.63003  1.0000
  C   C850      1.0  0.02305  0.85812  0.70602  1.0000
  C   C851      1.0  0.04600  0.89763  0.66016  1.0000
  H   H1318     1.0  0.10839  0.90703  0.72506  1.0000
  H   H1319     1.0  0.22314  0.91362  0.64996  1.0000
  S   S340      1.0  0.14102  0.98071  0.68336  1.0000
  C   C852      1.0  0.03173  0.70647  0.62834  1.0000
  C   C853      1.0  0.03492  0.68390  0.58868  1.0000
  H   H1320     1.0  0.01833  0.73883  0.62539  1.0000
  H   H1321     1.0  0.08707  0.89122  0.66064  1.0000
  H   H1322     1.0  0.19353  0.66640  0.51212  1.0000
  H   H1323     1.0  0.05672  0.88637  0.68847  1.0000
  H   H1324     1.0  0.13916  0.93200  0.69861  1.0000
  C   C854      1.0  0.06144  0.87795  0.67955  1.0000
  H   H1325     1.0  0.11235  0.68137  0.52534  1.0000
  S   S341      1.0  0.02982  0.96268  0.71334  1.0000
  H   H1326     1.0  0.10977  0.67768  0.54737  1.0000
  N   N83       1.0  0.12366  0.92453  0.72230  1.0000
  H   H1327     1.0  0.04189  0.71338  0.62550  1.0000
  H   H1328     1.0  0.07746  0.78615  0.50531  1.0000
  H   H1329     1.0  0.00616  0.80650  0.55307  1.0000
  H   H1330     1.0  0.07376  0.87046  0.68186  1.0000
  H   H1331     1.0  0.02708  0.70426  0.66101  1.0000
  H   H1332     1.0  0.46580  0.77640  0.72622  1.0000
  H   H1333     1.0  0.18872  0.93648  0.65443  1.0000
  C   C855      1.0  0.03065  0.67708  0.60561  1.0000
  C   C856      1.0  0.05213  0.77592  0.49991  1.0000
  H   H1334     1.0  0.01047  0.72217  0.66229  1.0000
  H   H1335     1.0  0.00915  0.75005  0.52638  1.0000
  H   H1336     1.0  0.01394  0.82142  0.57865  1.0000
  S   S342      1.0  0.10951  0.97972  0.65925  1.0000
  H   H1337     1.0  0.04626  0.90488  0.64728  1.0000
  C   C857      1.0  0.01558  0.67183  0.61210  1.0000
  Fe  Fe171     1.0  0.04080  0.93516  0.71599  1.0000
  H   H1338     1.0  0.23343  0.92618  0.65630  1.0000
  H   H1339     1.0  0.07581  0.90572  0.64585  1.0000
  H   H1340     1.0  0.20570  0.96619  0.64251  1.0000
  H   H1341     1.0  0.12505  0.66358  0.53580  1.0000
  N   N84       1.0  0.09976  0.66156  0.53865  1.0000
  H   H1342     1.0  0.00532  0.72927  0.61907  1.0000
  S   S343      1.0  0.01523  0.79784  0.65925  1.0000
  H   H1343     1.0  0.48782  0.76995  0.71908  1.0000
  H   H1344     1.0  0.08752  0.69437  0.49209  1.0000
  C   C858      1.0  0.00839  0.87451  0.68454  1.0000
  H   H1345     1.0  0.04628  0.68848  0.58383  1.0000
  N   N85       1.0  0.07000  0.77155  0.49243  1.0000
  H   H1346     1.0  0.08064  0.86786  0.65229  1.0000
  N   N86       1.0  0.06255  0.88746  0.66233  1.0000
  Fe  Fe172     1.0  0.13532  0.98169  0.65898  1.0000
  C   C859      1.0  0.08301  0.67245  0.53991  1.0000
  H   H1347     1.0  0.21303  0.92326  0.66737  1.0000
  C   C860      1.0  0.13727  0.91174  0.72865  1.0000
  Fe  Fe173     1.0  0.17006  0.98576  0.63998  1.0000
  H   H1348     1.0  0.99741  0.71474  0.57449  1.0000
  H   H1349     1.0  0.22322  0.95662  0.65209  1.0000
  H   H1350     1.0  0.00547  0.76002  0.73340  1.0000
  H   H1351     1.0  0.06921  0.88252  0.63777  1.0000
  H   H1352     1.0  0.04132  0.90660  0.66859  1.0000
  H   H1353     1.0  0.12476  0.97524  0.72754  1.0000
  S   S344      1.0  0.00595  0.82591  0.68958  1.0000
  H   H1354     1.0  0.07051  0.90744  0.66713  1.0000
  C   C861      1.0  0.12471  0.70111  0.49358  1.0000
  C   C862      1.0  0.11402  0.91675  0.71548  1.0000
  H   H1355     1.0  0.14674  0.90675  0.71848  1.0000
  H   H1356     1.0  0.05270  0.86936  0.68263  1.0000
  C   C863      1.0  0.06823  0.87579  0.65090  1.0000
  H   H1357     1.0  0.17920  0.97179  0.72894  1.0000
  H   H1358     1.0  0.20287  0.95359  0.66312  1.0000
  H   H1359     1.0  0.00371  0.88648  0.67731  1.0000
  C   C864      1.0  0.01966  0.84366  0.70351  1.0000
  H   H1360     1.0  0.13827  0.94341  0.71381  1.0000
  C   C865      1.0  0.17284  0.93027  0.72349  1.0000
  H   H1361     1.0  0.02978  0.85723  0.71546  1.0000
  S   S345      1.0  0.15775  0.66393  0.50018  1.0000
  H   H1362     1.0  0.20081  0.67300  0.52681  1.0000
  H   H1363     1.0  0.03664  0.69344  0.63422  1.0000
  S   S346      1.0  0.18760  0.98379  0.61548  1.0000
  C   C866      1.0  0.11228  0.67148  0.53675  1.0000
  H   H1364     1.0  0.00204  0.79868  0.59861  1.0000
  H   H1365     1.0  0.12195  0.91071  0.70520  1.0000
  H   H1366     1.0  0.04898  0.76774  0.51222  1.0000
  C   C867      1.0  0.99833  0.77345  0.53392  1.0000
  H   H1367     1.0  0.99828  0.86096  0.67258  1.0000
  H   H1368     1.0  0.00213  0.67861  0.57621  1.0000
  H   H1369     1.0  0.17168  0.91847  0.72192  1.0000
  H   H1370     1.0  0.08771  0.75030  0.48492  1.0000
  H   H1371     1.0  0.00123  0.70102  0.63354  1.0000
  Fe  Fe174     1.0  0.00820  0.81068  0.63491  1.0000
  S   S347      1.0  0.06052  0.88769  0.72081  1.0000
  C   C868      1.0  0.09631  0.69946  0.49542  1.0000
  H   H1372     1.0  0.03055  0.72461  0.65024  1.0000
  C   C869      1.0  0.02142  0.71636  0.65384  1.0000
  C   C870      1.0  0.99778  0.75885  0.52967  1.0000
  C   C871      1.0  0.11337  0.69448  0.48934  1.0000
  S   S348      1.0  0.17857  0.98545  0.66286  1.0000
  H   H1373     1.0  0.09356  0.76932  0.49867  1.0000
  H   H1374     1.0  0.21518  0.66598  0.50923  1.0000
  C   C872      1.0  0.13075  0.93740  0.70914  1.0000
  S   S349      1.0  0.00907  0.66593  0.63356  1.0000
  H   H1375     1.0  0.07718  0.76514  0.51599  1.0000
  C   C873      1.0  0.01007  0.67826  0.58441  1.0000
  C   C874      1.0  0.00183  0.82622  0.57460  1.0000
  H   H1376     1.0  0.12087  0.94724  0.70396  1.0000
  H   H1377     1.0  0.13787  0.69754  0.48865  1.0000
  H   H1378     1.0  0.00265  0.78942  0.69334  1.0000
  H   H1379     1.0  0.05564  0.98373  0.69612  1.0000
  H   H1380     1.0  0.07985  0.67876  0.55054  1.0000
  H   H1381     1.0  0.01369  0.76997  0.70294  1.0000
  H   H1382     1.0  0.99749  0.79015  0.56768  1.0000
  C   C875      1.0  0.47737  0.76831  0.72990  1.0000
  H   H1383     1.0  0.49306  0.79202  0.73035  1.0000
  Fe  Fe175     1.0  0.99727  0.81937  0.66910  1.0000
  H   H1384     1.0  0.10219  0.94196  0.73161  1.0000
  S   S350      1.0  0.02760  0.91563  0.73304  1.0000
  H   H1385     1.0  0.47599  0.75518  0.73246  1.0000
  H   H1386     1.0  0.05465  0.95647  0.73354  1.0000
  Fe  Fe176     1.0  0.39700  0.76258  0.88287  1.0000
  S   S351      1.0  0.38775  0.75047  0.86770  1.0000
  S   S352      1.0  0.38022  0.78425  0.89325  1.0000
  Fe  Fe177     1.0  0.43261  0.74407  0.87329  1.0000
  S   S353      1.0  0.42636  0.73032  0.85736  1.0000
  S   S354      1.0  0.45880  0.74500  0.87294  1.0000
  Fe  Fe178     1.0  0.41033  0.75466  0.84831  1.0000
  S   S355      1.0  0.40825  0.76364  0.82169  1.0000
  Fe  Fe179     1.0  0.40437  0.72721  0.87818  1.0000
  S   S356      1.0  0.39263  0.70493  0.88617  1.0000
  S   S357      1.0  0.41823  0.76878  0.86246  1.0000
  S   S358      1.0  0.41195  0.73894  0.89516  1.0000
  C   C876      1.0  0.01588  0.92394  0.77903  1.0000
  C   C877      1.0  0.12254  0.81331  0.97229  1.0000
  Fe  Fe180     1.0  0.46346  0.67801  0.78871  1.0000
  H   H1387     1.0  0.24717  0.89686  0.97573  1.0000
  Fe  Fe181     1.0  0.43878  0.66048  0.81500  1.0000
  S   S359      1.0  0.46141  0.80578  0.77921  1.0000
  Fe  Fe182     1.0  0.18876  0.91428  0.91032  1.0000
  S   S360      1.0  0.20854  0.89244  0.90411  1.0000
  S   S361      1.0  0.17518  0.93026  0.89015  1.0000
  Fe  Fe183     1.0  0.19530  0.90823  0.94548  1.0000
  S   S362      1.0  0.21524  0.88576  0.94179  1.0000
  N   N87       1.0  0.27218  0.89116  0.97985  1.0000
  Fe  Fe184     1.0  0.22362  0.90101  0.91686  1.0000
  S   S363      1.0  0.25006  0.90208  0.90443  1.0000
  Fe  Fe185     1.0  0.19819  0.87939  0.92945  1.0000
  S   S364      1.0  0.19638  0.85290  0.93332  1.0000
  S   S365      1.0  0.20481  0.92420  0.92121  1.0000
  S   S366      1.0  0.17720  0.90058  0.93510  1.0000
  H   H1388     1.0  0.12904  0.78116  0.97021  1.0000
  H   H1389     1.0  0.24817  0.92028  0.86855  1.0000
  S   S367      1.0  0.33247  0.77425  0.96362  1.0000
  H   H1390     1.0  0.15228  0.98480  0.75015  1.0000
  H   H1391     1.0  0.48385  0.69641  0.86174  1.0000
  Fe  Fe186     1.0  0.29703  0.83272  0.95991  1.0000
  S   S368      1.0  0.30289  0.85743  0.94633  1.0000
  C   C878      1.0  0.36936  0.73599  0.91317  1.0000
  S   S369      1.0  0.29592  0.81261  0.94791  1.0000
  Fe  Fe187     1.0  0.15311  0.91118  0.81402  1.0000
  S   S370      1.0  0.12720  0.90896  0.81442  1.0000
  S   S371      1.0  0.16522  0.89683  0.83577  1.0000
  Fe  Fe188     1.0  0.15527  0.93559  0.78089  1.0000
  S   S372      1.0  0.12939  0.93623  0.77892  1.0000
  S   S373      1.0  0.17013  0.95219  0.76116  1.0000
  Fe  Fe189     1.0  0.12293  0.93656  0.80595  1.0000
  S   S374      1.0  0.09981  0.95264  0.81720  1.0000
  Fe  Fe190     1.0  0.13590  0.90863  0.78734  1.0000
  S   S375      1.0  0.12992  0.89301  0.77274  1.0000
  S   S376      1.0  0.14811  0.93895  0.80716  1.0000
  S   S377      1.0  0.16252  0.90785  0.78760  1.0000
  H   H1392     1.0  0.10694  0.92281  0.74599  1.0000
  S   S378      1.0  0.05575  0.89914  0.76615  1.0000
  C   C879      1.0  0.48931  0.70052  0.82867  1.0000
  C   C880      1.0  0.11258  0.93221  0.73596  1.0000
  H   H1393     1.0  0.20864  0.91083  0.86659  1.0000
  H   H1394     1.0  0.29260  0.89063  0.95887  1.0000
  S   S379      1.0  0.46450  0.70510  0.77757  1.0000
  C   C881      1.0  0.14990  0.85765  0.96125  1.0000
  H   H1395     1.0  0.22006  0.95069  0.84250  1.0000
  H   H1396     1.0  0.37429  0.68780  0.87483  1.0000
  H   H1397     1.0  0.21387  0.81832  0.97206  1.0000
  H   H1398     1.0  0.13552  0.81531  0.96916  1.0000
  C   C882      1.0  0.09989  0.97277  0.80553  1.0000
  C   C883      1.0  0.39143  0.67654  0.85543  1.0000
  H   H1399     1.0  0.99857  0.95310  0.76523  1.0000
  H   H1400     1.0  0.00230  0.92427  0.78183  1.0000
  H   H1401     1.0  0.28686  0.86641  0.98038  1.0000
  C   C884      1.0  0.11381  0.97974  0.80273  1.0000
  H   H1402     1.0  0.11948  0.93792  0.74167  1.0000
  H   H1403     1.0  0.24628  0.90893  0.85427  1.0000
  C   C885      1.0  0.47924  0.71366  0.78215  1.0000
  H   H1404     1.0  0.12431  0.97291  0.80828  1.0000
  C   C886      1.0  0.10915  0.89471  0.77142  1.0000
  C   C887      1.0  0.09574  0.90328  0.78147  1.0000
  C   C888      1.0  0.07935  0.90444  0.77996  1.0000
  C   C889      1.0  0.07633  0.89768  0.76793  1.0000
  C   C890      1.0  0.08977  0.88948  0.75764  1.0000
  C   C891      1.0  0.10606  0.88765  0.75966  1.0000
  H   H1405     1.0  0.09798  0.90870  0.79062  1.0000
  C   C892      1.0  0.22092  0.93400  0.98224  1.0000
  C   C893      1.0  0.01223  0.95203  0.76306  1.0000
  H   H1406     1.0  0.11630  0.88068  0.75209  1.0000
  H   H1407     1.0  0.37277  0.74782  0.90560  1.0000
  H   H1408     1.0  0.19144  0.82527  0.96006  1.0000
  H   H1409     1.0  0.11433  0.82499  0.97563  1.0000
  C   C894      1.0  0.17205  0.92082  0.87534  1.0000
  C   C895      1.0  0.16634  0.93085  0.86124  1.0000
  C   C896      1.0  0.16443  0.92370  0.84889  1.0000
  C   C897      1.0  0.16803  0.90643  0.85063  1.0000
  C   C898      1.0  0.17365  0.89642  0.86478  1.0000
  C   C899      1.0  0.17564  0.90355  0.87709  1.0000
  H   H1410     1.0  0.16361  0.94422  0.85974  1.0000
  H   H1411     1.0  0.16026  0.93155  0.83799  1.0000
  H   H1412     1.0  0.17639  0.88304  0.86628  1.0000
  H   H1413     1.0  0.17988  0.89566  0.88796  1.0000
  C   C900      1.0  0.17879  0.84901  0.94840  1.0000
  N   N88       1.0  0.49595  0.70870  0.83808  1.0000
  C   C901      1.0  0.16373  0.86059  0.94868  1.0000
  H   H1414     1.0  0.01697  0.93867  0.80295  1.0000
  H   H1415     1.0  0.16267  0.87167  0.93906  1.0000
  C   C902      1.0  0.26461  0.88943  0.91615  1.0000
  C   C903      1.0  0.28047  0.89288  0.91291  1.0000
  C   C904      1.0  0.29221  0.88299  0.92221  1.0000
  C   C905      1.0  0.28825  0.86938  0.93454  1.0000
  C   C906      1.0  0.27247  0.86580  0.93771  1.0000
  C   C907      1.0  0.26064  0.87588  0.92858  1.0000
  H   H1416     1.0  0.28365  0.90332  0.90330  1.0000
  H   H1417     1.0  0.30441  0.88579  0.91975  1.0000
  H   H1418     1.0  0.26933  0.85538  0.94729  1.0000
  H   H1419     1.0  0.24857  0.87300  0.93103  1.0000
  H   H1420     1.0  0.20219  0.92982  0.85277  1.0000
  C   C908      1.0  0.23933  0.91507  0.86478  1.0000
  H   H1421     1.0  0.43239  0.67789  0.84342  1.0000
  H   H1422     1.0  0.23536  0.90523  0.87543  1.0000
  H   H1423     1.0  0.21197  0.93486  0.96046  1.0000
  H   H1424     1.0  0.37077  0.73483  0.92603  1.0000
  H   H1425     1.0  0.46843  0.77253  0.76992  1.0000
  C   C909      1.0  0.49591  0.70548  0.78082  1.0000
  H   H1426     1.0  0.01414  0.95956  0.79101  1.0000
  C   C910      1.0  0.36772  0.78162  0.91323  1.0000
  C   C911      1.0  0.37215  0.76823  0.92585  1.0000
  C   C912      1.0  0.36135  0.76609  0.94141  1.0000
  C   C913      1.0  0.34629  0.77750  0.94444  1.0000
  C   C914      1.0  0.34221  0.79119  0.93200  1.0000
  C   C915      1.0  0.35290  0.79324  0.91645  1.0000
  H   H1427     1.0  0.38390  0.75959  0.92361  1.0000
  H   H1428     1.0  0.36469  0.75561  0.95110  1.0000
  H   H1429     1.0  0.33077  0.80019  0.93429  1.0000
  H   H1430     1.0  0.34958  0.80380  0.90681  1.0000
  C   C916      1.0  0.42273  0.77580  0.81021  1.0000
  C   C917      1.0  0.43527  0.77738  0.81716  1.0000
  C   C918      1.0  0.44671  0.78721  0.80788  1.0000
  C   C919      1.0  0.44600  0.79505  0.79148  1.0000
  C   C920      1.0  0.43334  0.79362  0.78456  1.0000
  C   C921      1.0  0.42176  0.78394  0.79391  1.0000
  H   H1431     1.0  0.43624  0.77098  0.82963  1.0000
  H   H1432     1.0  0.45590  0.78894  0.81354  1.0000
  H   H1433     1.0  0.43257  0.79991  0.77197  1.0000
  H   H1434     1.0  0.41197  0.78287  0.78855  1.0000
  C   C922      1.0  0.39870  0.69273  0.87106  1.0000
  C   C923      1.0  0.41509  0.68997  0.86210  1.0000
  C   C924      1.0  0.41966  0.68034  0.84992  1.0000
  H   H1435     1.0  0.07573  0.97609  0.80016  1.0000
  C   C925      1.0  0.21191  0.92904  0.97332  1.0000
  C   C926      1.0  0.38695  0.68581  0.86787  1.0000
  H   H1436     1.0  0.42435  0.69483  0.86490  1.0000
  S   S380      1.0  0.18801  0.91330  0.97144  1.0000
  H   H1437     1.0  0.48988  0.73168  0.84648  1.0000
  H   H1438     1.0  0.48868  0.70803  0.81604  1.0000
  H   H1439     1.0  0.21926  0.91429  0.84531  1.0000
  C   C927      1.0  0.47732  0.69998  0.89928  1.0000
  C   C928      1.0  0.46628  0.71349  0.89183  1.0000
  C   C929      1.0  0.47168  0.72815  0.88335  1.0000
  S   S381      1.0  0.45809  0.67331  0.81635  1.0000
  C   C930      1.0  0.04753  0.97679  0.74640  1.0000
  H   H1440     1.0  0.47326  0.68852  0.90559  1.0000
  H   H1441     1.0  0.45370  0.71248  0.89249  1.0000
  H   H1442     1.0  0.04353  0.93545  0.76132  1.0000
  C   C931      1.0  0.17994  0.83440  0.96052  1.0000
  H   H1443     1.0  0.13823  0.86656  0.96145  1.0000
  N   N89       1.0  0.24605  0.83516  0.91786  1.0000
  C   C932      1.0  0.25905  0.83420  0.92687  1.0000
  C   C933      1.0  0.23733  0.85262  0.91362  1.0000
  C   C934      1.0  0.23401  0.82506  0.92843  1.0000
  C   C935      1.0  0.25380  0.82877  0.90254  1.0000
  H   H1444     1.0  0.26591  0.82119  0.93024  1.0000
  H   H1445     1.0  0.25352  0.83868  0.93864  1.0000
  H   H1446     1.0  0.26828  0.84182  0.91940  1.0000
  H   H1447     1.0  0.22750  0.85384  0.90670  1.0000
  H   H1448     1.0  0.23101  0.85755  0.92501  1.0000
  H   H1449     1.0  0.24603  0.86078  0.90602  1.0000
  H   H1450     1.0  0.22800  0.82950  0.94018  1.0000
  H   H1451     1.0  0.24010  0.81179  0.93197  1.0000
  H   H1452     1.0  0.22383  0.82569  0.92218  1.0000
  H   H1453     1.0  0.24429  0.82930  0.89548  1.0000
  H   H1454     1.0  0.26049  0.81560  0.90536  1.0000
  H   H1455     1.0  0.26295  0.83614  0.89429  1.0000
  N   N90       1.0  0.41787  0.71903  0.80897  1.0000
  C   C936      1.0  0.40211  0.72132  0.82130  1.0000
  C   C937      1.0  0.42059  0.70304  0.80398  1.0000
  C   C938      1.0  0.43179  0.71902  0.81635  1.0000
  C   C939      1.0  0.41705  0.73263  0.79422  1.0000
  H   H1456     1.0  0.39979  0.73308  0.82567  1.0000
  H   H1457     1.0  0.39130  0.72168  0.81609  1.0000
  H   H1458     1.0  0.43182  0.70131  0.79400  1.0000
  H   H1459     1.0  0.42245  0.69249  0.81453  1.0000
  H   H1460     1.0  0.40985  0.70204  0.79942  1.0000
  H   H1461     1.0  0.43049  0.73121  0.81958  1.0000
  H   H1462     1.0  0.44394  0.71650  0.80766  1.0000
  H   H1463     1.0  0.43237  0.70932  0.82787  1.0000
  H   H1464     1.0  0.42889  0.73122  0.78485  1.0000
  H   H1465     1.0  0.41487  0.74494  0.79748  1.0000
  H   H1466     1.0  0.40680  0.73288  0.78826  1.0000
  H   H1467     1.0  0.47659  0.69854  0.83497  1.0000
  H   H1468     1.0  0.16851  0.92328  0.75016  1.0000
  S   S382      1.0  0.44271  0.66664  0.78727  1.0000
  C   C940      1.0  0.47448  0.72962  0.78574  1.0000
  C   C941      1.0  0.48516  0.72517  0.83946  1.0000
  H   H1469     1.0  0.04056  0.95148  0.77263  1.0000
  C   C942      1.0  0.15139  0.84347  0.97386  1.0000
  C   C943      1.0  0.21633  0.93595  0.87462  1.0000
  H   H1470     1.0  0.46159  0.73598  0.78701  1.0000
  Fe  Fe191     1.0  0.27355  0.80940  0.96831  1.0000
  S   S383      1.0  0.24920  0.80801  0.96394  1.0000
  S   S384      1.0  0.27349  0.83095  0.97871  1.0000
  H   H1471     1.0  0.14494  0.78489  0.97833  1.0000
  N   N91       1.0  0.11193  0.92450  0.86209  1.0000
  C   C944      1.0  0.10534  0.92835  0.87875  1.0000
  C   C945      1.0  0.12418  0.90858  0.86321  1.0000
  C   C946      1.0  0.12008  0.93789  0.85115  1.0000
  C   C947      1.0  0.09815  0.92324  0.85522  1.0000
  H   H1472     1.0  0.09611  0.94034  0.87831  1.0000
  H   H1473     1.0  0.11547  0.92938  0.88425  1.0000
  H   H1474     1.0  0.09909  0.91850  0.88735  1.0000
  H   H1475     1.0  0.12968  0.90545  0.85079  1.0000
  H   H1476     1.0  0.13468  0.90903  0.86851  1.0000
  H   H1477     1.0  0.11846  0.89809  0.87112  1.0000
  H   H1478     1.0  0.12555  0.93512  0.83863  1.0000
  H   H1479     1.0  0.13027  0.93954  0.85612  1.0000
  H   H1480     1.0  0.11109  0.95000  0.84945  1.0000
  H   H1481     1.0  0.10273  0.92037  0.84263  1.0000
  H   H1482     1.0  0.08882  0.93515  0.85389  1.0000
  H   H1483     1.0  0.09162  0.91331  0.86312  1.0000
  S   S385      1.0  0.31347  0.81597  0.97673  1.0000
  C   C948      1.0  0.40778  0.67384  0.84637  1.0000
  H   H1484     1.0  0.01448  0.96474  0.76124  1.0000
  H   H1485     1.0  0.49220  0.74073  0.87602  1.0000
  H   H1486     1.0  0.48256  0.74989  0.79008  1.0000
  C   C949      1.0  0.17336  0.94798  0.74140  1.0000
  H   H1487     1.0  0.20528  0.94575  0.87184  1.0000
  H   H1488     1.0  0.13256  0.90107  0.73743  1.0000
  H   H1489     1.0  0.04339  0.93008  0.78302  1.0000
  H   H1490     1.0  0.25304  0.91316  0.98126  1.0000
  C   C950      1.0  0.27938  0.89704  0.96224  1.0000
  H   H1491     1.0  0.21171  0.92674  0.88551  1.0000
  H   H1492     1.0  0.48413  0.79339  0.75151  1.0000
  S   S386      1.0  0.41270  0.66294  0.83024  1.0000
  S   S387      1.0  0.48855  0.77293  0.80801  1.0000
  H   H1493     1.0  0.23948  0.94669  0.84895  1.0000
  N   N92       1.0  0.48044  0.77236  0.74451  1.0000
  H   H1494     1.0  0.06905  0.91061  0.78813  1.0000
  C   C951      1.0  0.21329  0.92041  0.85603  1.0000
  C   C952      1.0  0.48796  0.72940  0.88254  1.0000
  C   C953      1.0  0.49582  0.76123  0.74902  1.0000
  Fe  Fe192     1.0  0.31041  0.79547  0.96659  1.0000
  C   C954      1.0  0.48225  0.78982  0.74060  1.0000
  N   N93       1.0  0.45246  0.79517  0.86514  1.0000
  C   C955      1.0  0.46464  0.80399  0.86668  1.0000
  C   C956      1.0  0.46029  0.78475  0.85265  1.0000
  C   C957      1.0  0.43795  0.80737  0.85989  1.0000
  C   C958      1.0  0.44705  0.78456  0.88133  1.0000
  H   H1495     1.0  0.47553  0.79506  0.87105  1.0000
  H   H1496     1.0  0.45909  0.81235  0.87563  1.0000
  H   H1497     1.0  0.46959  0.81159  0.85455  1.0000
  H   H1498     1.0  0.45142  0.77815  0.85086  1.0000
  H   H1499     1.0  0.46510  0.79224  0.84042  1.0000
  H   H1500     1.0  0.47099  0.77506  0.85647  1.0000
  H   H1501     1.0  0.42852  0.80108  0.85863  1.0000
  H   H1502     1.0  0.44166  0.81550  0.84767  1.0000
  H   H1503     1.0  0.43169  0.81545  0.86901  1.0000
  H   H1504     1.0  0.45773  0.77506  0.88549  1.0000
  H   H1505     1.0  0.43789  0.77765  0.88071  1.0000
  H   H1506     1.0  0.44117  0.79197  0.89108  1.0000
  N   N94       1.0  0.01933  0.94058  0.77692  1.0000
  H   H1507     1.0  0.46412  0.75722  0.76146  1.0000
  C   C959      1.0  0.46626  0.77008  0.75853  1.0000
  C   C960      1.0  0.16638  0.83183  0.97352  1.0000
  C   C961      1.0  0.14890  0.89680  0.97880  1.0000
  H   H1508     1.0  0.14213  0.96661  0.73759  1.0000
  H   H1509     1.0  0.00740  0.77931  0.73685  1.0000
  H   H1510     1.0  0.38221  0.67145  0.85283  1.0000
  N   N95       1.0  0.35232  0.73539  0.91270  1.0000
  C   C962      1.0  0.34889  0.71892  0.92166  1.0000
  C   C963      1.0  0.35081  0.73814  0.89529  1.0000
  C   C964      1.0  0.34035  0.74852  0.92060  1.0000
  H   H1511     1.0  0.37868  0.72573  0.90819  1.0000
  H   H1512     1.0  0.33610  0.71800  0.92165  1.0000
  H   H1513     1.0  0.35777  0.70883  0.91584  1.0000
  H   H1514     1.0  0.35016  0.71637  0.93478  1.0000
  H   H1515     1.0  0.33824  0.73736  0.89442  1.0000
  H   H1516     1.0  0.36006  0.72872  0.88884  1.0000
  H   H1517     1.0  0.35303  0.75061  0.88826  1.0000
  H   H1518     1.0  0.32734  0.74866  0.92029  1.0000
  H   H1519     1.0  0.34290  0.76107  0.91427  1.0000
  H   H1520     1.0  0.34106  0.74678  0.93380  1.0000
  H   H1521     1.0  0.05737  0.97203  0.75333  1.0000
  H   H1522     1.0  0.40227  0.71104  0.83240  1.0000
  C   C965      1.0  0.01177  0.94696  0.79228  1.0000
  C   C966      1.0  0.48636  0.73756  0.78746  1.0000
  C   C967      1.0  0.12998  0.97554  0.73809  1.0000
  C   C968      1.0  0.03749  0.93939  0.77330  1.0000
  Fe  Fe193     1.0  0.48504  0.79646  0.78886  1.0000
  N   N96       1.0  0.22492  0.92803  0.86036  1.0000
  H   H1523     1.0  0.23717  0.93518  0.83505  1.0000
  H   H1524     1.0  0.08756  0.88401  0.74851  1.0000
  H   H1525     1.0  0.13662  0.90548  0.97903  1.0000
  H   H1526     1.0  0.47227  0.72411  0.84612  1.0000
  C   C969      1.0  0.23068  0.94071  0.84607  1.0000
  H   H1527     1.0  0.02145  0.91882  0.76764  1.0000
  H   H1528     1.0  0.22472  0.94166  0.87845  1.0000
  C   C970      1.0  0.49376  0.70110  0.89807  1.0000
  H   H1529     1.0  0.47091  0.79856  0.73704  1.0000
  H   H1530     1.0  0.48454  0.73333  0.82705  1.0000
  H   H1531     1.0  0.27891  0.91064  0.95933  1.0000
  H   H1532     1.0  0.27252  0.89459  0.95395  1.0000
  H   H1533     1.0  0.12161  0.97089  0.74982  1.0000
  H   H1534     1.0  0.22808  0.94347  0.97608  1.0000
  H   H1535     1.0  0.02134  0.91488  0.78919  1.0000
  H   H1536     1.0  0.14948  0.88742  0.97161  1.0000
  C   C971      1.0  0.13171  0.78373  0.98129  1.0000
  H   H1537     1.0  0.01782  0.94772  0.75119  1.0000
  H   H1538     1.0  0.11960  0.81171  0.96092  1.0000
  C   C972      1.0  0.17122  0.93293  0.73943  1.0000
  H   H1539     1.0  0.26694  0.86953  0.97542  1.0000
  H   H1540     1.0  0.15855  0.90408  0.97182  1.0000
  C   C973      1.0  0.23480  0.80391  0.98256  1.0000
  H   H1541     1.0  0.14363  0.91671  0.73557  1.0000
  C   C974      1.0  0.08639  0.98157  0.79823  1.0000
  H   H1542     1.0  0.49499  0.74792  0.75178  1.0000
  C   C975      1.0  0.49643  0.69829  0.85478  1.0000
  H   H1543     1.0  0.45457  0.77875  0.75584  1.0000
  C   C976      1.0  0.20195  0.91741  0.98136  1.0000
  H   H1544     1.0  0.09957  0.79434  0.97925  1.0000
  H   H1545     1.0  0.13213  0.98660  0.76342  1.0000
  Fe  Fe194     1.0  0.05264  0.90395  0.73975  1.0000
  C   C977      1.0  0.04592  0.96791  0.73530  1.0000
  C   C978      1.0  0.21787  0.81055  0.98306  1.0000
  H   H1546     1.0  0.99807  0.94799  0.79543  1.0000
  C   C979      1.0  0.27363  0.87299  0.98320  1.0000
  H   H1547     1.0  0.16752  0.82080  0.98322  1.0000
  C   C980      1.0  0.25448  0.89945  0.98353  1.0000
  S   S388      1.0  0.49662  0.81048  0.80011  1.0000
  C   C981      1.0  0.99870  0.77292  0.73436  1.0000
  Fe  Fe195     1.0  0.54962  0.23144  0.06508  1.0000
  S   S389      1.0  0.55417  0.24905  0.04077  1.0000
  S   S390      1.0  0.55469  0.23386  0.08874  1.0000
  Fe  Fe196     1.0  0.53452  0.21048  0.05178  1.0000
  S   S391      1.0  0.53758  0.22636  0.02619  1.0000
  S   S392      1.0  0.52335  0.18799  0.05766  1.0000
  Fe  Fe197     1.0  0.56285  0.22611  0.02991  1.0000
  S   S393      1.0  0.58567  0.22438  0.00935  1.0000
  Fe  Fe198     1.0  0.52868  0.24763  0.03936  1.0000
  C   C982      1.0  0.73245  0.10682  0.01282  1.0000
  S   S394      1.0  0.56049  0.20848  0.05459  1.0000
  S   S395      1.0  0.52337  0.23175  0.06466  1.0000
  Fe  Fe199     1.0  0.50115  0.27481  0.16099  1.0000
  C   C983      1.0  0.52236  0.16183  0.08387  1.0000
  H   H1548     1.0  0.51107  0.09545  0.13476  1.0000
  C   C984      1.0  0.69595  0.08591  0.99998  1.0000
  S   S396      1.0  0.67267  0.13812  0.99374  1.0000
  S   S397      1.0  0.62591  0.15273  0.00003  1.0000
  C   C985      1.0  0.84562  0.03302  0.21505  1.0000
  H   H1549     1.0  0.55098  0.20100  0.10144  1.0000
  H   H1550     1.0  0.71137  0.13281  0.99897  1.0000
  Fe  Fe200     1.0  0.76681  0.03806  0.01289  1.0000
  S   S398      1.0  0.75284  0.06435  0.01106  1.0000
  H   H1551     1.0  0.51392  0.20907  0.11536  1.0000
  Fe  Fe201     1.0  0.77443  0.03715  0.04657  1.0000
  S   S399      1.0  0.76080  0.06340  0.04691  1.0000
  S   S400      1.0  0.78590  0.02236  0.06852  1.0000
  Fe  Fe202     1.0  0.74165  0.05653  0.03787  1.0000
  S   S401      1.0  0.71488  0.06685  0.04781  1.0000
  Fe  Fe203     1.0  0.77327  0.06858  0.02031  1.0000
  S   S402      1.0  0.78113  0.09277  0.00881  1.0000
  S   S403      1.0  0.75405  0.02968  0.03936  1.0000
  S   S404      1.0  0.78851  0.04281  0.02034  1.0000
  C   C986      1.0  0.78443  0.00068  0.22330  1.0000
  H   H1552     1.0  0.72535  0.11526  0.02138  1.0000
  S   S405      1.0  0.90294  0.06793  0.18488  1.0000
  H   H1553     1.0  0.75683  0.12295  0.99716  1.0000
  S   S406      1.0  0.89530  0.04068  0.22687  1.0000
  H   H1554     1.0  0.91891  0.99552  0.16379  1.0000
  Fe  Fe204     1.0  0.81247  0.04956  0.13722  1.0000
  S   S407      1.0  0.83686  0.05405  0.13917  1.0000
  S   S408      1.0  0.80132  0.06218  0.11450  1.0000
  Fe  Fe205     1.0  0.80824  0.02660  0.17096  1.0000
  S   S409      1.0  0.83224  0.02852  0.17564  1.0000
  S   S410      1.0  0.79304  0.00956  0.18975  1.0000
  Fe  Fe206     1.0  0.82479  0.05569  0.16550  1.0000
  S   S411      1.0  0.82860  0.07242  0.18030  1.0000
  Fe  Fe207     1.0  0.84249  0.02667  0.14919  1.0000
  S   S412      1.0  0.86817  0.01136  0.14378  1.0000
  S   S413      1.0  0.79964  0.05404  0.16281  1.0000
  S   S414      1.0  0.81924  0.02188  0.14532  1.0000
  C   C987      1.0  0.79031  0.02821  0.21258  1.0000
  C   C988      1.0  0.78859  0.01332  0.20982  1.0000
  N   N97       1.0  0.97282  0.19177  0.22692  1.0000
  H   H1555     1.0  0.53793  0.17597  0.14326  1.0000
  H   H1556     1.0  0.79323  0.03813  0.20220  1.0000
  C   C989      1.0  0.61748  0.18673  0.98962  1.0000
  H   H1557     1.0  0.51205  0.27700  0.06579  1.0000
  H   H1558     1.0  0.55670  0.19564  0.13713  1.0000
  H   H1559     1.0  0.51186  0.11442  0.13978  1.0000
  S   S415      1.0  0.93222  0.05034  0.21669  1.0000
  H   H1560     1.0  0.63315  0.18277  0.03945  1.0000
  H   H1561     1.0  0.88470  0.03215  0.15767  1.0000
  C   C990      1.0  0.88224  0.06961  0.18346  1.0000
  C   C991      1.0  0.87904  0.06438  0.17053  1.0000
  C   C992      1.0  0.86265  0.06503  0.16951  1.0000
  C   C993      1.0  0.84930  0.07185  0.18091  1.0000
  C   C994      1.0  0.85249  0.07782  0.19338  1.0000
  C   C995      1.0  0.86890  0.07624  0.19497  1.0000
  H   H1562     1.0  0.88926  0.05979  0.16132  1.0000
  H   H1563     1.0  0.86031  0.06065  0.15969  1.0000
  H   H1564     1.0  0.84227  0.08358  0.20194  1.0000
  H   H1565     1.0  0.87124  0.08063  0.20479  1.0000
  H   H1566     1.0  0.71342  0.06489  0.99201  1.0000
  S   S416      1.0  0.52169  0.28885  0.15240  1.0000
  S   S417      1.0  0.52499  0.30532  0.10498  1.0000
  C   C996      1.0  0.79143  0.03325  0.08066  1.0000
  C   C997      1.0  0.79140  0.05023  0.07549  1.0000
  C   C998      1.0  0.79457  0.05888  0.08594  1.0000
  C   C999      1.0  0.79815  0.05060  0.10151  1.0000
  C   C1000     1.0  0.79853  0.03354  0.10653  1.0000
  C   C1001     1.0  0.79516  0.02491  0.09615  1.0000
  H   H1567     1.0  0.78891  0.05675  0.06345  1.0000
  H   H1568     1.0  0.79436  0.07204  0.08190  1.0000
  H   H1569     1.0  0.80117  0.02702  0.11851  1.0000
  H   H1570     1.0  0.79529  0.01177  0.10023  1.0000
  H   H1571     1.0  0.52761  0.22308  0.11075  1.0000
  H   H1572     1.0  0.51964  0.18182  0.13470  1.0000
  C   C1002     1.0  0.68849  0.09395  0.01325  1.0000
  C   C1003     1.0  0.69341  0.08750  0.02854  1.0000
  C   C1004     1.0  0.70576  0.07305  0.03045  1.0000
  C   C1005     1.0  0.71248  0.06463  0.01745  1.0000
  C   C1006     1.0  0.54678  0.20579  0.13246  1.0000
  C   C1007     1.0  0.52825  0.18674  0.13909  1.0000
  H   H1573     1.0  0.68813  0.09401  0.03862  1.0000
  H   H1574     1.0  0.72172  0.05325  0.01907  1.0000
  H   H1575     1.0  0.51482  0.21933  0.13094  1.0000
  H   H1576     1.0  0.81454  0.04841  0.21695  1.0000
  Fe  Fe208     1.0  0.90676  0.06184  0.21115  1.0000
  C   C1008     1.0  0.59111  0.19025  0.01684  1.0000
  C   C1009     1.0  0.59555  0.20439  0.00578  1.0000
  H   H1577     1.0  0.79788  0.06573  0.99204  1.0000
  C   C1010     1.0  0.63475  0.18328  0.02601  1.0000
  S   S418      1.0  0.50357  0.15499  0.13295  1.0000
  H   H1578     1.0  0.58094  0.19150  0.02734  1.0000
  H   H1579     1.0  0.96294  0.18849  0.20749  1.0000
  H   H1580     1.0  0.53989  0.29476  0.07391  1.0000
  C   C1011     1.0  0.54673  0.25387  0.09289  1.0000
  C   C1012     1.0  0.54623  0.26798  0.08010  1.0000
  C   C1013     1.0  0.54008  0.28387  0.08381  1.0000
  C   C1014     1.0  0.53398  0.28562  0.10027  1.0000
  C   C1015     1.0  0.53411  0.27146  0.11296  1.0000
  C   C1016     1.0  0.54073  0.25567  0.10932  1.0000
  H   H1581     1.0  0.55095  0.26669  0.06739  1.0000
  H   H1582     1.0  0.95722  0.02300  0.23072  1.0000
  H   H1583     1.0  0.52924  0.27258  0.12567  1.0000
  H   H1584     1.0  0.54100  0.24487  0.11929  1.0000
  C   C1017     1.0  0.51906  0.17912  0.07878  1.0000
  C   C1018     1.0  0.51118  0.18907  0.09044  1.0000
  C   C1019     1.0  0.50582  0.18165  0.10704  1.0000
  Fe  Fe209     1.0  0.50979  0.30154  0.13082  1.0000
  H   H1585     1.0  0.50854  0.20243  0.08650  1.0000
  C   C1020     1.0  0.98918  0.18883  0.23135  1.0000
  H   H1586     1.0  0.81930  0.99363  0.21162  1.0000
  C   C1021     1.0  0.79089  0.09239  0.98824  1.0000
  H   H1587     1.0  0.52103  0.19189  0.15013  1.0000
  C   C1022     1.0  0.50228  0.27182  0.07577  1.0000
  H   H1588     1.0  0.90651  0.99569  0.19410  1.0000
  N   N98       1.0  0.73769  0.04546  0.09670  1.0000
  C   C1023     1.0  0.72973  0.03875  0.11381  1.0000
  C   C1024     1.0  0.74490  0.03175  0.08768  1.0000
  C   C1025     1.0  0.75099  0.05349  0.09708  1.0000
  C   C1026     1.0  0.72520  0.05780  0.08820  1.0000
  H   H1589     1.0  0.72427  0.04874  0.12103  1.0000
  H   H1590     1.0  0.73891  0.02935  0.12045  1.0000
  H   H1591     1.0  0.71960  0.03264  0.11398  1.0000
  H   H1592     1.0  0.75472  0.02236  0.09345  1.0000
  H   H1593     1.0  0.73530  0.02525  0.08723  1.0000
  H   H1594     1.0  0.75083  0.03638  0.07467  1.0000
  H   H1595     1.0  0.76076  0.04451  0.10325  1.0000
  H   H1596     1.0  0.74610  0.06387  0.10382  1.0000
  H   H1597     1.0  0.75727  0.05868  0.08436  1.0000
  H   H1598     1.0  0.71919  0.06817  0.09481  1.0000
  H   H1599     1.0  0.71527  0.05209  0.08707  1.0000
  H   H1600     1.0  0.73096  0.06335  0.07538  1.0000
  H   H1601     1.0  0.50589  0.30096  0.07901  1.0000
  H   H1602     1.0  0.53074  0.31900  0.13713  1.0000
  C   C1027     1.0  0.70767  0.07110  0.00223  1.0000
  C   C1028     1.0  0.82116  0.05309  0.22385  1.0000
  H   H1603     1.0  0.98068  0.17289  0.21239  1.0000
  C   C1029     1.0  0.73849  0.03426  0.98667  1.0000
  S   S419      1.0  0.77125  0.02681  0.99026  1.0000
  H   H1604     1.0  0.64499  0.19661  0.99391  1.0000
  H   H1605     1.0  0.91752  0.04084  0.15743  1.0000
  C   C1030     1.0  0.66337  0.16854  0.02349  1.0000
  H   H1606     1.0  0.55014  0.31639  0.12278  1.0000
  C   C1031     1.0  0.96512  0.20966  0.22499  1.0000
  N   N99       1.0  0.53570  0.19940  0.12596  1.0000
  H   H1607     1.0  0.66299  0.16723  0.03687  1.0000
  H   H1608     1.0  0.52087  0.14110  0.10452  1.0000
  H   H1609     1.0  0.50859  0.26369  0.08579  1.0000
  H   H1610     1.0  0.59687  0.16351  0.02336  1.0000
  S   S420      1.0  0.52146  0.32066  0.17414  1.0000
  N   N100      1.0  0.91061  0.02074  0.15163  1.0000
  C   C1032     1.0  0.90859  0.01599  0.13691  1.0000
  C   C1033     1.0  0.91639  0.03658  0.14653  1.0000
  C   C1034     1.0  0.92299  0.00762  0.15959  1.0000
  C   C1035     1.0  0.89449  0.02275  0.16347  1.0000
  N   N101      1.0  0.65203  0.18388  0.01709  1.0000
  Fe  Fe210     1.0  0.50471  0.30914  0.16496  1.0000
  H   H1611     1.0  0.62574  0.19436  0.02105  1.0000
  H   H1612     1.0  0.65991  0.15732  0.02205  1.0000
  C   C1036     1.0  0.61351  0.17262  0.00110  1.0000
  H   H1613     1.0  0.92504  0.01090  0.17060  1.0000
  H   H1614     1.0  0.89542  0.02678  0.17455  1.0000
  H   H1615     1.0  0.91143  0.01182  0.21207  1.0000
  H   H1616     1.0  0.75642  0.09764  0.98764  1.0000
  H   H1617     1.0  0.73518  0.03691  0.99894  1.0000
  H   H1618     1.0  0.85655  0.02355  0.21859  1.0000
  H   H1619     1.0  0.88990  0.01096  0.16782  1.0000
  H   H1620     1.0  0.74451  0.10074  0.01668  1.0000
  H   H1621     1.0  0.50169  0.28800  0.09920  1.0000
  C   C1037     1.0  0.65672  0.19849  0.01946  1.0000
  H   H1622     1.0  0.64829  0.21022  0.01476  1.0000
  H   H1623     1.0  0.90453  0.00393  0.14028  1.0000
  C   C1038     1.0  0.52240  0.21329  0.12055  1.0000
  N   N102      1.0  0.83524  0.04028  0.22925  1.0000
  H   H1624     1.0  0.64969  0.17436  0.99712  1.0000
  H   H1625     1.0  0.73791  0.13811  0.00079  1.0000
  H   H1626     1.0  0.65599  0.19793  0.03277  1.0000
  H   H1627     1.0  0.72545  0.09689  0.01477  1.0000
  C   C1039     1.0  0.71872  0.12392  0.99092  1.0000
  C   C1040     1.0  0.51801  0.15447  0.10062  1.0000
  H   H1628     1.0  0.53975  0.21221  0.14279  1.0000
  H   H1629     1.0  0.67646  0.16839  0.01667  1.0000
  S   S421      1.0  0.50993  0.27098  0.03298  1.0000
  C   C1041     1.0  0.74472  0.12860  0.99327  1.0000
  C   C1042     1.0  0.60010  0.17440  0.01452  1.0000
  H   H1630     1.0  0.55305  0.21493  0.12265  1.0000
  H   H1631     1.0  0.67904  0.10512  0.01175  1.0000
  C   C1043     1.0  0.50950  0.16436  0.11216  1.0000
  H   H1632     1.0  0.53756  0.18659  0.10668  1.0000
  H   H1633     1.0  0.51001  0.09623  0.15585  1.0000
  H   H1634     1.0  0.66964  0.19935  0.01271  1.0000
  H   H1635     1.0  0.83836  0.02706  0.21001  1.0000
  C   C1044     1.0  0.65329  0.18516  0.99927  1.0000
  H   H1636     1.0  0.93523  0.00554  0.15095  1.0000
  H   H1637     1.0  0.92875  0.03541  0.13799  1.0000
  S   S422      1.0  0.50759  0.24674  0.16687  1.0000
  H   H1638     1.0  0.97752  0.02771  0.22540  1.0000
  H   H1639     1.0  0.82541  0.06411  0.21531  1.0000
  H   H1640     1.0  0.71117  0.11463  0.99213  1.0000
  H   H1641     1.0  0.63099  0.17213  0.02480  1.0000
  N   N103      1.0  0.73500  0.11585  0.99539  1.0000
  H   H1642     1.0  0.95268  0.21234  0.22182  1.0000
  C   C1045     1.0  0.50597  0.10336  0.14417  1.0000
  H   H1643     1.0  0.52844  0.15414  0.07484  1.0000
  H   H1644     1.0  0.50689  0.21572  0.16041  1.0000
  C   C1046     1.0  0.91783  0.99903  0.21254  1.0000
  H   H1645     1.0  0.89892  0.02535  0.13089  1.0000
  C   C1047     1.0  0.54542  0.19178  0.11176  1.0000
  H   H1646     1.0  0.92038  0.01471  0.12753  1.0000
  H   H1647     1.0  0.66619  0.18545  0.99212  1.0000
  C   C1048     1.0  0.60862  0.20260  0.99205  1.0000
  H   H1648     1.0  0.55578  0.18150  0.11531  1.0000
  H   H1649     1.0  0.85040  0.04273  0.20475  1.0000
  H   H1650     1.0  0.90756  0.04660  0.14001  1.0000
  H   H1651     1.0  0.85074  0.05774  0.22587  1.0000
  C   C1049     1.0  0.78802  0.03031  0.22885  1.0000
  H   H1652     1.0  0.97298  0.21732  0.21510  1.0000
  C   C1050     1.0  0.97505  0.18640  0.21122  1.0000
  H   H1653     1.0  0.72687  0.18115  0.98653  1.0000
  H   H1654     1.0  0.73705  0.09427  0.98582  1.0000
  S   S423      1.0  0.89948  0.07728  0.23081  1.0000
  C   C1051     1.0  0.74411  0.10403  0.98452  1.0000
  H   H1655     1.0  0.98331  0.19328  0.20095  1.0000
  H   H1656     1.0  0.78883  0.04197  0.23106  1.0000
  C   C1052     1.0  0.86722  0.99052  0.15193  1.0000
  C   C1053     1.0  0.92891  0.99165  0.22322  1.0000
  Fe  Fe211     1.0  0.92007  0.03009  0.23373  1.0000
  H   H1657     1.0  0.49899  0.18926  0.11592  1.0000
  H   H1658     1.0  0.49740  0.26394  0.07038  1.0000
  H   H1659     1.0  0.84501  0.99190  0.14354  1.0000
  H   H1660     1.0  0.49902  0.24075  0.03564  1.0000
  H   H1661     1.0  0.54877  0.32134  0.14250  1.0000
  H   H1662     1.0  0.99539  0.17546  0.23288  1.0000
  Fe  Fe212     1.0  0.88989  0.05493  0.24689  1.0000
  S   S424      1.0  0.91365  0.04252  0.25537  1.0000
  S   S425      1.0  0.86488  0.05544  0.26383  1.0000
  H   H1663     1.0  0.93215  0.29296  0.30316  1.0000
  S   S426      1.0  0.98823  0.15824  0.26956  1.0000
  H   H1664     1.0  0.98658  0.19354  0.32053  1.0000
  S   S427      1.0  0.78483  0.01910  0.26225  1.0000
  H   H1665     1.0  0.91848  0.15245  0.30393  1.0000
  H   H1666     1.0  0.88833  0.02415  0.26722  1.0000
  H   H1667     1.0  0.97430  0.16055  0.35445  1.0000
  H   H1668     1.0  0.91836  0.24570  0.32051  1.0000
  H   H1669     1.0  0.92197  0.25452  0.29878  1.0000
  S   S428      1.0  0.79882  0.31097  0.45301  1.0000
  Fe  Fe213     1.0  0.92188  0.21334  0.41069  1.0000
  S   S429      1.0  0.93942  0.22556  0.38958  1.0000
  S   S430      1.0  0.93423  0.19026  0.42614  1.0000
  Fe  Fe214     1.0  0.89150  0.23819  0.40172  1.0000
  S   S431      1.0  0.90652  0.25243  0.37977  1.0000
  S   S432      1.0  0.86397  0.24871  0.40531  1.0000
  Fe  Fe215     1.0  0.92063  0.22760  0.37472  1.0000
  S   S433      1.0  0.93035  0.22488  0.34831  1.0000
  Fe  Fe216     1.0  0.92385  0.24917  0.39652  1.0000
  S   S434      1.0  0.93391  0.27133  0.39537  1.0000
  S   S435      1.0  0.90418  0.21335  0.39520  1.0000
  S   S436      1.0  0.90784  0.23695  0.41909  1.0000
  Fe  Fe217     1.0  0.96645  0.14539  0.27642  1.0000
  S   S437      1.0  0.97154  0.13202  0.30169  1.0000
  S   S438      1.0  0.95482  0.13844  0.25843  1.0000
  Fe  Fe218     1.0  0.97091  0.17886  0.28110  1.0000
  S   S439      1.0  0.97592  0.16806  0.30649  1.0000
  S   S440      1.0  0.96709  0.20657  0.27107  1.0000
  C   C1054     1.0  0.89588  0.30220  0.41876  1.0000
  Fe  Fe219     1.0  0.95530  0.15485  0.31021  1.0000
  S   S441      1.0  0.93446  0.15573  0.33236  1.0000
  Fe  Fe220     1.0  0.77498  0.30946  0.47187  1.0000
  S   S442      1.0  0.94896  0.16729  0.28570  1.0000
  H   H1670     1.0  0.75669  0.00269  0.27832  1.0000
  H   H1671     1.0  0.73471  0.00370  0.28339  1.0000
  H   H1672     1.0  0.97711  0.18013  0.38729  1.0000
  C   C1055     1.0  0.84542  0.04792  0.23556  1.0000
  Fe  Fe221     1.0  0.99182  0.14656  0.29566  1.0000
  H   H1673     1.0  0.88660  0.26476  0.43891  1.0000
  C   C1056     1.0  0.94114  0.27910  0.37437  1.0000
  C   C1057     1.0  0.94823  0.26816  0.36353  1.0000
  C   C1058     1.0  0.95424  0.27423  0.34677  1.0000
  C   C1059     1.0  0.95205  0.29135  0.34056  1.0000
  C   C1060     1.0  0.97537  0.23250  0.27849  1.0000
  C   C1061     1.0  0.93969  0.29620  0.36832  1.0000
  H   H1674     1.0  0.94915  0.25498  0.36805  1.0000
  H   H1675     1.0  0.95994  0.26565  0.33857  1.0000
  H   H1676     1.0  0.96182  0.07727  0.26909  1.0000
  H   H1677     1.0  0.73995  0.03659  0.30182  1.0000
  C   C1062     1.0  0.92903  0.20648  0.34363  1.0000
  C   C1063     1.0  0.92137  0.19453  0.35548  1.0000
  C   C1064     1.0  0.92220  0.17913  0.35181  1.0000
  C   C1065     1.0  0.93062  0.17579  0.33625  1.0000
  C   C1066     1.0  0.93725  0.18821  0.32412  1.0000
  C   C1067     1.0  0.93661  0.20344  0.32783  1.0000
  H   H1678     1.0  0.91513  0.19696  0.36758  1.0000
  H   H1679     1.0  0.91682  0.16967  0.36118  1.0000
  H   H1680     1.0  0.94305  0.18610  0.31185  1.0000
  H   H1681     1.0  0.94229  0.21274  0.31848  1.0000
  H   H1682     1.0  0.92938  0.10552  0.23610  1.0000
  H   H1683     1.0  0.96216  0.23761  0.28085  1.0000
  C   C1068     1.0  0.95705  0.20822  0.42456  1.0000
  C   C1069     1.0  0.95441  0.19270  0.42459  1.0000
  C   C1070     1.0  0.96803  0.17968  0.42176  1.0000
  H   H1684     1.0  0.75852  0.01358  0.31720  1.0000
  H   H1685     1.0  0.98197  0.25315  0.28393  1.0000
  H   H1686     1.0  0.94654  0.21826  0.42696  1.0000
  H   H1687     1.0  0.96601  0.16758  0.42213  1.0000
  C   C1071     1.0  0.84058  0.26584  0.45412  1.0000
  C   C1072     1.0  0.85518  0.25355  0.45287  1.0000
  C   C1073     1.0  0.86216  0.24787  0.43806  1.0000
  C   C1074     1.0  0.85452  0.25441  0.42445  1.0000
  C   C1075     1.0  0.83966  0.26635  0.42583  1.0000
  C   C1076     1.0  0.83271  0.27211  0.44063  1.0000
  H   H1688     1.0  0.86263  0.30700  0.42412  1.0000
  H   H1689     1.0  0.87339  0.23837  0.43723  1.0000
  H   H1690     1.0  0.83369  0.27138  0.41533  1.0000
  H   H1691     1.0  0.82142  0.28151  0.44154  1.0000
  H   H1692     1.0  0.89672  0.30649  0.42970  1.0000
  H   H1693     1.0  0.99193  0.02658  0.24753  1.0000
  C   C1077     1.0  0.88510  0.28393  0.40881  1.0000
  C   C1078     1.0  0.94518  0.08952  0.25233  1.0000
  C   C1079     1.0  0.94051  0.11974  0.24634  1.0000
  N   N104      1.0  0.99113  0.25019  0.38306  1.0000
  C   C1080     1.0  0.95115  0.11933  0.25669  1.0000
  C   C1081     1.0  0.95854  0.10391  0.26513  1.0000
  C   C1082     1.0  0.95568  0.08912  0.26283  1.0000
  C   C1083     1.0  0.92034  0.27226  0.33068  1.0000
  C   C1084     1.0  0.78522  0.01715  0.24223  1.0000
  H   H1694     1.0  0.96683  0.10332  0.27306  1.0000
  C   C1085     1.0  0.98427  0.18252  0.41775  1.0000
  C   C1086     1.0  0.86216  0.03494  0.27151  1.0000
  C   C1087     1.0  0.84614  0.03164  0.27687  1.0000
  C   C1088     1.0  0.84396  0.01519  0.28126  1.0000
  H   H1695     1.0  0.99059  0.21078  0.32635  1.0000
  H   H1696     1.0  0.97822  0.25640  0.40655  1.0000
  C   C1089     1.0  0.87594  0.02175  0.27123  1.0000
  H   H1697     1.0  0.83543  0.04181  0.27720  1.0000
  H   H1698     1.0  0.83159  0.01279  0.28490  1.0000
  H   H1699     1.0  0.90250  0.15174  0.29405  1.0000
  H   H1700     1.0  0.91183  0.29105  0.30251  1.0000
  H   H1701     1.0  0.93724  0.12643  0.31439  1.0000
  H   H1702     1.0  0.96641  0.24542  0.38997  1.0000
  H   H1703     1.0  0.92391  0.14748  0.28372  1.0000
  C   C1090     1.0  0.76502  0.31190  0.42452  1.0000
  S   S443      1.0  0.81338  0.31642  0.48322  1.0000
  H   H1704     1.0  0.77308  0.31180  0.43296  1.0000
  H   H1705     1.0  0.75573  0.30429  0.43193  1.0000
  S   S444      1.0  0.75094  0.30836  0.46632  1.0000
  H   H1706     1.0  0.86099  0.28656  0.43565  1.0000
  Fe  Fe222     1.0  0.92413  0.06384  0.23797  1.0000
  N   N105      1.0  0.88589  0.28924  0.42370  1.0000
  Fe  Fe223     1.0  0.98428  0.29059  0.30985  1.0000
  H   H1707     1.0  0.89190  0.13157  0.31874  1.0000
  H   H1708     1.0  0.90570  0.11276  0.32619  1.0000
  H   H1709     1.0  0.93529  0.10691  0.31154  1.0000
  H   H1710     1.0  0.95975  0.18613  0.25209  1.0000
  H   H1711     1.0  0.75174  0.03132  0.28252  1.0000
  C   C1091     1.0  0.85777  0.00201  0.28095  1.0000
  H   H1712     1.0  0.95254  0.16078  0.36105  1.0000
  H   H1713     1.0  0.94340  0.01576  0.26008  1.0000
  H   H1714     1.0  0.89438  0.27831  0.44652  1.0000
  C   C1092     1.0  0.98664  0.26712  0.37322  1.0000
  H   H1715     1.0  0.94679  0.18244  0.39559  1.0000
  H   H1716     1.0  0.89772  0.27906  0.40197  1.0000
  H   H1717     1.0  0.99198  0.13327  0.33187  1.0000
  C   C1093     1.0  0.98689  0.19817  0.41738  1.0000
  H   H1718     1.0  0.97512  0.22277  0.42168  1.0000
  H   H1719     1.0  0.86122  0.24857  0.46333  1.0000
  H   H1720     1.0  0.73615  0.32144  0.41401  1.0000
  H   H1721     1.0  0.97418  0.27372  0.37887  1.0000
  H   H1722     1.0  0.98193  0.02124  0.26892  1.0000
  C   C1094     1.0  0.74121  0.02855  0.29298  1.0000
  H   H1723     1.0  0.90880  0.29746  0.41237  1.0000
  N   N106      1.0  0.96838  0.01976  0.25149  1.0000
  H   H1724     1.0  0.96517  0.15503  0.40069  1.0000
  H   H1725     1.0  0.86887  0.29956  0.44377  1.0000
  H   H1726     1.0  0.94301  0.31560  0.34653  1.0000
  H   H1727     1.0  0.96337  0.21406  0.23666  1.0000
  H   H1728     1.0  0.94647  0.24881  0.32169  1.0000
  H   H1729     1.0  0.98631  0.26686  0.36035  1.0000
  C   C1095     1.0  0.99094  0.25115  0.40013  1.0000
  C   C1096     1.0  0.96227  0.16770  0.36019  1.0000
  H   H1730     1.0  0.88453  0.99526  0.27645  1.0000
  N   N107      1.0  0.92681  0.26867  0.31389  1.0000
  H   H1731     1.0  0.87889  0.29435  0.40012  1.0000
  H   H1732     1.0  0.94646  0.03447  0.26382  1.0000
  N   N108      1.0  0.74415  0.01077  0.30106  1.0000
  H   H1733     1.0  0.92653  0.28133  0.33273  1.0000
  H   H1734     1.0  0.72822  0.01494  0.32427  1.0000
  C   C1097     1.0  0.94457  0.26042  0.31212  1.0000
  H   H1735     1.0  0.92072  0.12061  0.28041  1.0000
  H   H1736     1.0  0.54036  0.31424  0.26274  1.0000
  H   H1737     1.0  0.90676  0.27762  0.33279  1.0000
  H   H1738     1.0  0.98275  0.22721  0.38981  1.0000
  H   H1739     1.0  0.71530  0.31876  0.47157  1.0000
  H   H1740     1.0  0.92985  0.28220  0.28866  1.0000
  H   H1741     1.0  0.90387  0.26343  0.31248  1.0000
  H   H1742     1.0  0.92238  0.26083  0.34043  1.0000
  H   H1743     1.0  0.85607  0.03860  0.23990  1.0000
  C   C1098     1.0  0.92505  0.28440  0.30149  1.0000
  H   H1744     1.0  0.97433  0.04083  0.25632  1.0000
  C   C1099     1.0  0.97653  0.17816  0.37509  1.0000
  C   C1100     1.0  0.98123  0.21706  0.27377  1.0000
  H   H1745     1.0  0.93415  0.30471  0.37665  1.0000
  C   C1101     1.0  0.93742  0.10497  0.24427  1.0000
  C   C1102     1.0  0.93373  0.12042  0.30602  1.0000
  H   H1746     1.0  0.97508  0.19051  0.36656  1.0000
  N   N109      1.0  0.91655  0.12786  0.30370  1.0000
  C   C1103     1.0  0.89375  0.27484  0.43505  1.0000
  H   H1747     1.0  0.71818  0.01045  0.31029  1.0000
  C   C1104     1.0  0.78337  0.00232  0.23948  1.0000
  H   H1748     1.0  0.90799  0.13242  0.32841  1.0000
  H   H1749     1.0  0.90664  0.26954  0.42907  1.0000
  S   S445      1.0  0.94294  0.07038  0.24915  1.0000
  H   H1750     1.0  0.89935  0.12455  0.29084  1.0000
  C   C1105     1.0  0.87376  0.00534  0.27630  1.0000
  C   C1106     1.0  0.91529  0.14568  0.29601  1.0000
  H   H1751     1.0  0.95509  0.14702  0.38935  1.0000
  C   C1107     1.0  0.97909  0.24031  0.38338  1.0000
  C   C1108     1.0  0.94475  0.30234  0.35133  1.0000
  H   H1752     1.0  0.82095  0.02114  0.23820  1.0000
  H   H1753     1.0  0.99132  0.13258  0.36118  1.0000
  S   S446      1.0  0.95703  0.29899  0.31920  1.0000
  H   H1754     1.0  0.83800  0.05381  0.24611  1.0000
  C   C1109     1.0  0.97325  0.21080  0.42143  1.0000
  H   H1755     1.0  0.97830  0.24008  0.37066  1.0000
  C   C1110     1.0  0.72999  0.00746  0.31480  1.0000
  H   H1756     1.0  0.95219  0.26867  0.31335  1.0000
  Fe  Fe224     1.0  0.81102  0.29500  0.47385  1.0000
  H   H1757     1.0  0.89036  0.31321  0.41011  1.0000
  C   C1111     1.0  0.86889  0.29593  0.43215  1.0000
  H   H1758     1.0  0.94969  0.25707  0.29980  1.0000
  H   H1759     1.0  0.94281  0.12183  0.29400  1.0000
  C   C1112     1.0  0.91227  0.11933  0.29282  1.0000
  C   C1113     1.0  0.95232  0.02123  0.26343  1.0000
  H   H1760     1.0  0.91333  0.10580  0.29810  1.0000
  C   C1114     1.0  0.90501  0.12606  0.31997  1.0000
  C   C1115     1.0  0.91733  0.25763  0.31126  1.0000
  H   H1761     1.0  0.75321  0.32262  0.39645  1.0000
  H   H1762     1.0  0.99582  0.27472  0.37225  1.0000
  N   N110      1.0  0.96271  0.17000  0.37663  1.0000
  C   C1116     1.0  0.94685  0.18050  0.38322  1.0000
  C   C1117     1.0  0.96514  0.15368  0.38809  1.0000
  H   H1763     1.0  0.76224  0.99302  0.31362  1.0000
  S   S447      1.0  0.83347  0.27401  0.47216  1.0000
  C   C1118     1.0  0.98654  0.24131  0.28018  1.0000
  H   H1764     1.0  0.93609  0.17474  0.38465  1.0000
  H   H1765     1.0  0.94461  0.19299  0.37502  1.0000
  H   H1766     1.0  0.97722  0.14555  0.38382  1.0000
  H   H1767     1.0  0.82095  0.03213  0.25344  1.0000
  H   H1768     1.0  0.87801  0.27387  0.41210  1.0000
  H   H1769     1.0  0.83909  0.01722  0.24694  1.0000
  C   C1119     1.0  0.74599  0.00062  0.28879  1.0000
  H   H1770     1.0  0.95949  0.17982  0.35153  1.0000
  C   C1120     1.0  0.82881  0.02708  0.24250  1.0000
  H   H1771     1.0  0.98874  0.17042  0.37044  1.0000
  H   H1772     1.0  0.77290  0.30551  0.41450  1.0000
  H   H1773     1.0  0.95382  0.01472  0.27620  1.0000
  H   H1774     1.0  0.72973  0.03233  0.28783  1.0000
  H   H1775     1.0  0.93470  0.13157  0.23973  1.0000
  H   H1776     1.0  0.98781  0.00042  0.24250  1.0000
  C   C1121     1.0  0.97572  0.00202  0.25145  1.0000
  C   C1122     1.0  0.75948  0.00641  0.30768  1.0000
  H   H1777     1.0  0.77039  0.00899  0.29771  1.0000
  H   H1778     1.0  0.96731  0.99607  0.24785  1.0000
  S   S448      1.0  0.93271  0.00285  0.23617  1.0000
  C   C1123     1.0  0.97968  0.02740  0.25629  1.0000
  H   H1779     1.0  0.99472  0.17261  0.41490  1.0000
  C   C1124     1.0  0.96193  0.18217  0.24015  1.0000
  H   H1780     1.0  0.96747  0.16863  0.24219  1.0000
  H   H1781     1.0  0.97789  0.99501  0.26390  1.0000
  H   H1782     1.0  0.98793  0.19264  0.24322  1.0000
  H   H1783     1.0  0.94956  0.18381  0.23716  1.0000
  C   C1125     1.0  0.73530  0.30540  0.48416  1.0000
  Fe  Fe225     1.0  0.79708  0.99504  0.27651  1.0000
  S   S449      1.0  0.80605  0.99575  0.29864  1.0000
  C   C1126     1.0  0.71856  0.31186  0.48325  1.0000
  H   H1784     1.0  0.99435  0.20984  0.30502  1.0000
  H   H1785     1.0  0.99516  0.23865  0.40762  1.0000
  H   H1786     1.0  0.73202  0.99413  0.32121  1.0000
  H   H1787     1.0  0.78095  0.99219  0.24980  1.0000
  C   C1127     1.0  0.99523  0.20220  0.31755  1.0000
  C   C1128     1.0  0.96568  0.02846  0.23475  1.0000
  S   S450      1.0  0.99606  0.29332  0.28279  1.0000
  H   H1788     1.0  0.96001  0.04186  0.23436  1.0000
  H   H1789     1.0  0.81202  0.05753  0.23451  1.0000
  C   C1129     1.0  0.50708  0.09203  0.68555  1.0000
  S   S451      1.0  0.57086  0.05196  0.70429  1.0000
  H   H1790     1.0  0.53643  0.15016  0.63624  1.0000
  H   H1791     1.0  0.65133  0.27243  0.56665  1.0000
  H   H1792     1.0  0.71924  0.31611  0.53815  1.0000
  S   S452      1.0  0.53633  0.03773  0.72199  1.0000
  Fe  Fe226     1.0  0.56120  0.02922  0.70632  1.0000
  S   S453      1.0  0.56469  0.01562  0.68610  1.0000
  C   C1130     1.0  0.50976  0.20824  0.53349  1.0000
  Fe  Fe227     1.0  0.52445  0.26860  0.56488  1.0000
  S   S454      1.0  0.52652  0.28226  0.53857  1.0000
  Fe  Fe228     1.0  0.53645  0.23522  0.55531  1.0000
  S   S455      1.0  0.54005  0.24632  0.52811  1.0000
  S   S456      1.0  0.53883  0.20777  0.56386  1.0000
  Fe  Fe229     1.0  0.55114  0.26462  0.53460  1.0000
  S   S457      1.0  0.57316  0.27594  0.51969  1.0000
  Fe  Fe230     1.0  0.51513  0.26265  0.53527  1.0000
  H   H1793     1.0  0.62070  0.02700  0.66901  1.0000
  S   S458      1.0  0.54958  0.25191  0.56128  1.0000
  S   S459      1.0  0.51097  0.25049  0.56204  1.0000
  N   N111      1.0  0.50268  0.19543  0.54674  1.0000
  C   C1131     1.0  0.63971  0.00546  0.70009  1.0000
  Fe  Fe231     1.0  0.67047  0.31504  0.52867  1.0000
  S   S460      1.0  0.51759  0.18627  0.64146  1.0000
  H   H1794     1.0  0.64984  0.02331  0.66964  1.0000
  C   C1132     1.0  0.67578  0.26436  0.53008  1.0000
  C   C1133     1.0  0.66662  0.24479  0.55468  1.0000
  C   C1134     1.0  0.60968  0.99373  0.66307  1.0000
  Fe  Fe232     1.0  0.63363  0.31666  0.54137  1.0000
  H   H1795     1.0  0.51349  0.17435  0.61448  1.0000
  S   S461      1.0  0.69473  0.29718  0.53047  1.0000
  N   N112      1.0  0.66252  0.26185  0.54502  1.0000
  S   S462      1.0  0.77880  0.31839  0.52518  1.0000
  H   H1796     1.0  0.68803  0.26274  0.53337  1.0000
  S   S463      1.0  0.65350  0.32017  0.55244  1.0000
  H   H1797     1.0  0.64685  0.25554  0.53240  1.0000
  C   C1135     1.0  0.71014  0.30032  0.51249  1.0000
  C   C1136     1.0  0.72685  0.29382  0.51337  1.0000
  C   C1137     1.0  0.66125  0.27384  0.55529  1.0000
  H   H1798     1.0  0.62836  0.01461  0.70424  1.0000
  H   H1799     1.0  0.66231  0.03366  0.67589  1.0000
  H   H1800     1.0  0.73013  0.28673  0.52497  1.0000
  H   H1801     1.0  0.51605  0.20340  0.52204  1.0000
  C   C1138     1.0  0.58590  0.28161  0.52982  1.0000
  C   C1139     1.0  0.59589  0.29309  0.52093  1.0000
  C   C1140     1.0  0.60558  0.29841  0.52884  1.0000
  C   C1141     1.0  0.60543  0.29216  0.54569  1.0000
  C   C1142     1.0  0.59582  0.28034  0.55448  1.0000
  C   C1143     1.0  0.58603  0.27515  0.54660  1.0000
  H   H1802     1.0  0.59593  0.29809  0.50792  1.0000
  H   H1803     1.0  0.59575  0.27534  0.56749  1.0000
  H   H1804     1.0  0.57868  0.26607  0.55351  1.0000
  C   C1144     1.0  0.53348  0.20188  0.58542  1.0000
  C   C1145     1.0  0.53724  0.21010  0.59578  1.0000
  C   C1146     1.0  0.53290  0.20495  0.61307  1.0000
  C   C1147     1.0  0.52420  0.19206  0.61992  1.0000
  C   C1148     1.0  0.52021  0.18418  0.60946  1.0000
  C   C1149     1.0  0.52512  0.18882  0.59231  1.0000
  H   H1805     1.0  0.54384  0.22014  0.59046  1.0000
  H   H1806     1.0  0.53606  0.21110  0.62108  1.0000
  S   S464      1.0  0.78704  0.29166  0.49178  1.0000
  H   H1807     1.0  0.52220  0.18237  0.58442  1.0000
  C   C1150     1.0  0.65750  0.01878  0.70785  1.0000
  H   H1808     1.0  0.51992  0.15511  0.66353  1.0000
  H   H1809     1.0  0.55214  0.13941  0.67538  1.0000
  C   C1151     1.0  0.52278  0.14145  0.66816  1.0000
  H   H1810     1.0  0.52195  0.17508  0.53959  1.0000
  H   H1811     1.0  0.54299  0.30363  0.58720  1.0000
  H   H1812     1.0  0.55504  0.10937  0.66041  1.0000
  H   H1813     1.0  0.67716  0.25554  0.52199  1.0000
  C   C1152     1.0  0.51803  0.08502  0.69649  1.0000
  C   C1153     1.0  0.51607  0.18091  0.55051  1.0000
  C   C1154     1.0  0.58571  0.01183  0.67628  1.0000
  C   C1155     1.0  0.59595  0.02232  0.67615  1.0000
  C   C1156     1.0  0.61295  0.01871  0.66923  1.0000
  C   C1157     1.0  0.65161  0.02733  0.68037  1.0000
  C   C1158     1.0  0.59252  0.99776  0.66932  1.0000
  H   H1814     1.0  0.59076  0.03337  0.68116  1.0000
  S   S465      1.0  0.53257  0.08557  0.72154  1.0000
  H   H1815     1.0  0.67866  0.24250  0.55862  1.0000
  H   H1816     1.0  0.65808  0.28678  0.54839  1.0000
  H   H1817     1.0  0.69310  0.31459  0.49668  1.0000
  S   S466      1.0  0.60719  0.03437  0.72855  1.0000
  H   H1818     1.0  0.55497  0.30205  0.54266  1.0000
  S   S467      1.0  0.61647  0.29936  0.55634  1.0000
  C   C1159     1.0  0.49778  0.10829  0.68514  1.0000
  H   H1819     1.0  0.67318  0.27715  0.52252  1.0000
  H   H1820     1.0  0.64296  0.27716  0.53274  1.0000
  H   H1821     1.0  0.57155  0.30374  0.57021  1.0000
  H   H1822     1.0  0.66863  0.02449  0.70391  1.0000
  H   H1823     1.0  0.66772  0.23539  0.54730  1.0000
  C   C1160     1.0  0.54774  0.30197  0.55556  1.0000
  H   H1824     1.0  0.51370  0.24033  0.60567  1.0000
  H   H1825     1.0  0.51090  0.11735  0.71557  1.0000
  S   S468      1.0  0.65107  0.30981  0.51853  1.0000
  H   H1826     1.0  0.67321  0.27253  0.55902  1.0000
  H   H1827     1.0  0.63728  0.00070  0.69018  1.0000
  C   C1161     1.0  0.55207  0.14127  0.66201  1.0000
  H   H1828     1.0  0.51279  0.13638  0.66622  1.0000
  N   N113      1.0  0.53929  0.13374  0.65961  1.0000
  H   H1829     1.0  0.50595  0.06573  0.72722  1.0000
  C   C1162     1.0  0.54269  0.11568  0.66656  1.0000
  H   H1830     1.0  0.53462  0.30224  0.55557  1.0000
  C   C1163     1.0  0.64646  0.26441  0.54009  1.0000
  H   H1831     1.0  0.49934  0.25665  0.59556  1.0000
  C   C1164     1.0  0.73940  0.29653  0.49928  1.0000
  H   H1832     1.0  0.50598  0.08493  0.67719  1.0000
  H   H1833     1.0  0.52534  0.07255  0.69655  1.0000
  Fe  Fe233     1.0  0.58056  0.03751  0.72702  1.0000
  H   H1834     1.0  0.52200  0.13925  0.68172  1.0000
  H   H1835     1.0  0.50399  0.20652  0.56615  1.0000
  C   C1165     1.0  0.70599  0.30952  0.49746  1.0000
  C   C1166     1.0  0.53877  0.31553  0.57878  1.0000
  C   C1167     1.0  0.50147  0.24904  0.60780  1.0000
  S   S469      1.0  0.51621  0.28282  0.58524  1.0000
  H   H1836     1.0  0.53315  0.10970  0.66500  1.0000
  H   H1837     1.0  0.54250  0.11304  0.68007  1.0000
  C   C1168     1.0  0.53953  0.13662  0.64174  1.0000
  H   H1838     1.0  0.63612  0.26292  0.55107  1.0000
  H   H1839     1.0  0.64030  0.03667  0.68420  1.0000
  H   H1840     1.0  0.55195  0.13138  0.63478  1.0000
  H   H1841     1.0  0.51910  0.21267  0.53738  1.0000
  H   H1842     1.0  0.74489  0.32067  0.51810  1.0000
  H   H1843     1.0  0.56473  0.13574  0.65575  1.0000
  H   H1844     1.0  0.75223  0.29136  0.50007  1.0000
  H   H1845     1.0  0.53031  0.13071  0.63948  1.0000
  C   C1169     1.0  0.51941  0.09414  0.70732  1.0000
  Fe  Fe234     1.0  0.78824  0.31464  0.49913  1.0000
  H   H1846     1.0  0.54976  0.15491  0.65687  1.0000
  H   H1847     1.0  0.55249  0.28989  0.56341  1.0000
  H   H1848     1.0  0.52608  0.18451  0.55416  1.0000
  N   N114      1.0  0.65451  0.01304  0.69416  1.0000
  Fe  Fe235     1.0  0.54703  0.05925  0.72197  1.0000
  H   H1849     1.0  0.65688  0.24250  0.56604  1.0000
  C   C1170     1.0  0.61991  0.00421  0.66302  1.0000
  H   H1850     1.0  0.50250  0.25767  0.61513  1.0000
  H   H1851     1.0  0.61294  0.30753  0.52192  1.0000
  H   H1852     1.0  0.50313  0.22179  0.63149  1.0000
  C   C1171     1.0  0.49914  0.11739  0.69602  1.0000
  H   H1853     1.0  0.51127  0.17127  0.56091  1.0000
  H   H1854     1.0  0.64666  0.02820  0.71249  1.0000
  H   H1855     1.0  0.65970  0.00834  0.71853  1.0000
  H   H1856     1.0  0.57438  0.31546  0.54935  1.0000
  S   S470      1.0  0.64150  0.99880  0.65625  1.0000
  C   C1172     1.0  0.50994  0.11031  0.70711  1.0000
  C   C1173     1.0  0.66915  0.00064  0.68829  1.0000
  N   N115      1.0  0.54887  0.31617  0.56180  1.0000
  S   S471      1.0  0.57272  0.01425  0.72768  1.0000
  C   C1174     1.0  0.56639  0.31532  0.56195  1.0000
  H   H1857     1.0  0.49996  0.21924  0.53012  1.0000
  H   H1858     1.0  0.52544  0.31626  0.57903  1.0000
  H   H1859     1.0  0.64131  0.99486  0.71067  1.0000
  H   H1860     1.0  0.49893  0.21928  0.60444  1.0000
  H   H1861     1.0  0.66707  0.99569  0.67828  1.0000
  H   H1862     1.0  0.68044  0.00607  0.68331  1.0000
  S   S472      1.0  0.49692  0.15220  0.63648  1.0000
  S   S473      1.0  0.53742  0.00878  0.76649  1.0000
  Fe  Fe236     1.0  0.64304  0.99828  0.80107  1.0000
  H   H1863     1.0  0.97089  0.28034  0.88897  1.0000
  N   N116      1.0  0.65062  0.03372  0.83449  1.0000
  H   H1864     1.0  0.72025  0.17326  0.90079  1.0000
  S   S474      1.0  0.61894  0.01695  0.80165  1.0000
  C   C1175     1.0  0.94658  0.25212  0.89675  1.0000
  H   H1865     1.0  0.88380  0.09106  0.89941  1.0000
  H   H1866     1.0  0.70967  0.14675  0.91027  1.0000
  Fe  Fe237     1.0  0.90633  0.19164  0.90717  1.0000
  S   S475      1.0  0.90788  0.20601  0.88104  1.0000
  S   S476      1.0  0.88513  0.17875  0.92169  1.0000
  Fe  Fe238     1.0  0.93990  0.19829  0.90919  1.0000
  S   S477      1.0  0.94377  0.21295  0.88321  1.0000
  S   S478      1.0  0.95836  0.19314  0.92584  1.0000
  Fe  Fe239     1.0  0.91669  0.22433  0.88963  1.0000
  S   S479      1.0  0.90645  0.25162  0.88295  1.0000
  Fe  Fe240     1.0  0.93465  0.19303  0.87754  1.0000
  S   S480      1.0  0.94762  0.18289  0.85492  1.0000
  S   S481      1.0  0.91319  0.21110  0.91622  1.0000
  S   S482      1.0  0.93269  0.17730  0.90307  1.0000
  Fe  Fe241     1.0  0.95818  0.28752  0.80501  1.0000
  H   H1867     1.0  0.94219  0.27207  0.91791  1.0000
  S   S483      1.0  0.93296  0.28227  0.80814  1.0000
  H   H1868     1.0  0.71080  0.13501  0.89522  1.0000
  H   H1869     1.0  0.85736  0.10852  0.93539  1.0000
  C   C1176     1.0  0.72591  0.16987  0.88851  1.0000
  Fe  Fe242     1.0  0.65049  0.14946  0.98204  1.0000
  H   H1870     1.0  0.56348  0.99719  0.78964  1.0000
  H   H1871     1.0  0.65172  0.07957  0.94161  1.0000
  S   S484      1.0  0.69539  0.00080  0.81579  1.0000
  S   S485      1.0  0.69516  0.13803  0.95623  1.0000
  C   C1177     1.0  0.79779  0.07728  0.98314  1.0000
  Fe  Fe243     1.0  0.67130  0.14927  0.94756  1.0000
  S   S486      1.0  0.67119  0.15498  0.92056  1.0000
  S   S487      1.0  0.66278  0.16871  0.96313  1.0000
  Fe  Fe244     1.0  0.81691  0.14803  0.89732  1.0000
  S   S488      1.0  0.81171  0.12506  0.89289  1.0000
  S   S489      1.0  0.83978  0.15880  0.88413  1.0000
  Fe  Fe245     1.0  0.78625  0.15247  0.92448  1.0000
  S   S490      1.0  0.77831  0.12990  0.92322  1.0000
  S   S491      1.0  0.77488  0.16927  0.94257  1.0000
  Fe  Fe246     1.0  0.80523  0.11793  0.92046  1.0000
  S   S492      1.0  0.81234  0.09183  0.93384  1.0000
  Fe  Fe247     1.0  0.78497  0.13840  0.89575  1.0000
  S   S493      1.0  0.76627  0.13519  0.88290  1.0000
  S   S494      1.0  0.81271  0.13951  0.92471  1.0000
  S   S495      1.0  0.79066  0.16242  0.89711  1.0000
  Fe  Fe248     1.0  0.71611  0.03347  0.89029  1.0000
  S   S496      1.0  0.72217  0.05793  0.87525  1.0000
  S   S497      1.0  0.70708  0.01387  0.88244  1.0000
  Fe  Fe249     1.0  0.71837  0.04174  0.92302  1.0000
  S   S498      1.0  0.72366  0.06688  0.91040  1.0000
  S   S499      1.0  0.71407  0.03554  0.95111  1.0000
  Fe  Fe250     1.0  0.70447  0.06900  0.89599  1.0000
  S   S500      1.0  0.68462  0.09155  0.89005  1.0000
  Fe  Fe251     1.0  0.74101  0.05379  0.89105  1.0000
  S   S501      1.0  0.76641  0.06026  0.88395  1.0000
  S   S502      1.0  0.69731  0.04507  0.91027  1.0000
  S   S503      1.0  0.73682  0.02818  0.90447  1.0000
  C   C1178     1.0  0.75518  0.02874  0.97975  1.0000
  S   S504      1.0  0.65700  0.13112  0.96545  1.0000
  C   C1179     1.0  0.65425  0.01641  0.84375  1.0000
  H   H1872     1.0  0.74014  0.07715  0.93941  1.0000
  C   C1180     1.0  0.73015  0.03267  0.96187  1.0000
  H   H1873     1.0  0.53371  0.99629  0.73952  1.0000
  H   H1874     1.0  0.77623  0.07153  0.95872  1.0000
  H   H1875     1.0  0.67447  0.03214  0.81786  1.0000
  H   H1876     1.0  0.67960  0.04933  0.94579  1.0000
  C   C1181     1.0  0.91002  0.16752  0.95069  1.0000
  C   C1182     1.0  0.80447  0.09197  0.95481  1.0000
  H   H1877     1.0  0.77672  0.05107  0.95659  1.0000
  H   H1878     1.0  0.68992  0.08826  0.94833  1.0000
  N   N117      1.0  0.95001  0.26901  0.89270  1.0000
  C   C1183     1.0  0.77824  0.06372  0.94949  1.0000
  C   C1184     1.0  0.79742  0.10706  0.95990  1.0000
  H   H1879     1.0  0.69713  0.07005  0.93942  1.0000
  C   C1185     1.0  0.59744  0.03562  0.76170  1.0000
  H   H1880     1.0  0.76805  0.04691  0.93296  1.0000
  H   H1881     1.0  0.79687  0.11862  0.95104  1.0000
  C   C1186     1.0  0.76638  0.11428  0.88333  1.0000
  C   C1187     1.0  0.75217  0.11004  0.88152  1.0000
  C   C1188     1.0  0.75202  0.09349  0.88193  1.0000
  C   C1189     1.0  0.76626  0.08108  0.88365  1.0000
  C   C1190     1.0  0.78053  0.08529  0.88531  1.0000
  C   C1191     1.0  0.78053  0.10178  0.88538  1.0000
  H   H1882     1.0  0.74120  0.11946  0.87974  1.0000
  H   H1883     1.0  0.74100  0.09039  0.88046  1.0000
  H   H1884     1.0  0.79162  0.07575  0.88656  1.0000
  H   H1885     1.0  0.79161  0.10485  0.88664  1.0000
  C   C1192     1.0  0.67510  0.13700  0.91263  1.0000
  C   C1193     1.0  0.68497  0.12210  0.91940  1.0000
  C   C1194     1.0  0.68865  0.10816  0.91212  1.0000
  C   C1195     1.0  0.68181  0.10894  0.89862  1.0000
  C   C1196     1.0  0.67191  0.12381  0.89201  1.0000
  C   C1197     1.0  0.66879  0.13785  0.89881  1.0000
  H   H1886     1.0  0.69002  0.12142  0.93000  1.0000
  H   H1887     1.0  0.69649  0.09677  0.91708  1.0000
  H   H1888     1.0  0.66660  0.12445  0.88158  1.0000
  H   H1889     1.0  0.66115  0.14931  0.89356  1.0000
  C   C1198     1.0  0.72136  0.16862  0.97033  1.0000
  C   C1199     1.0  0.73162  0.17565  0.97571  1.0000
  C   C1200     1.0  0.74801  0.17572  0.96710  1.0000
  C   C1201     1.0  0.75435  0.16859  0.95314  1.0000
  C   C1202     1.0  0.74419  0.16141  0.94775  1.0000
  C   C1203     1.0  0.72764  0.16155  0.95628  1.0000
  C   C1204     1.0  0.51110  0.05490  0.75812  1.0000
  Fe  Fe252     1.0  0.98281  0.28931  0.82417  1.0000
  H   H1890     1.0  0.74895  0.15607  0.93684  1.0000
  H   H1891     1.0  0.71975  0.15639  0.95184  1.0000
  C   C1205     1.0  0.87293  0.17292  0.91103  1.0000
  C   C1206     1.0  0.86004  0.16476  0.92015  1.0000
  C   C1207     1.0  0.84995  0.16016  0.91209  1.0000
  C   C1208     1.0  0.85259  0.16376  0.89480  1.0000
  C   C1209     1.0  0.86558  0.17178  0.88568  1.0000
  C   C1210     1.0  0.87571  0.17633  0.89373  1.0000
  H   H1892     1.0  0.85784  0.16198  0.93353  1.0000
  H   H1893     1.0  0.84015  0.15390  0.91933  1.0000
  H   H1894     1.0  0.86780  0.17457  0.87229  1.0000
  H   H1895     1.0  0.88566  0.18249  0.88652  1.0000
  C   C1211     1.0  0.91388  0.25969  0.86209  1.0000
  C   C1212     1.0  0.93096  0.25708  0.85551  1.0000
  C   C1213     1.0  0.93687  0.26456  0.83910  1.0000
  C   C1214     1.0  0.92568  0.27378  0.82896  1.0000
  C   C1215     1.0  0.90858  0.27595  0.83541  1.0000
  C   C1216     1.0  0.90270  0.26925  0.85208  1.0000
  H   H1896     1.0  0.93962  0.24964  0.86318  1.0000
  H   H1897     1.0  0.95006  0.26288  0.83424  1.0000
  H   H1898     1.0  0.89988  0.28307  0.82763  1.0000
  H   H1899     1.0  0.88948  0.27127  0.85717  1.0000
  C   C1217     1.0  0.96798  0.17279  0.85673  1.0000
  N   N118      1.0  0.71670  0.15913  0.88494  1.0000
  C   C1218     1.0  0.97181  0.16484  0.87221  1.0000
  C   C1219     1.0  0.69838  0.00423  0.83455  1.0000
  H   H1900     1.0  0.96211  0.16428  0.88315  1.0000
  C   C1220     1.0  0.96278  0.22124  0.82749  1.0000
  C   C1221     1.0  0.71671  0.14390  0.89804  1.0000
  H   H1901     1.0  0.73800  0.14831  0.86837  1.0000
  C   C1222     1.0  0.97373  0.20503  0.92208  1.0000
  C   C1223     1.0  0.69535  0.99820  0.86458  1.0000
  H   H1902     1.0  0.69316  0.17238  0.89630  1.0000
  H   H1903     1.0  0.75012  0.02405  0.94280  1.0000
  H   H1904     1.0  0.92645  0.19145  0.94664  1.0000
  H   H1905     1.0  0.93328  0.25251  0.89731  1.0000
  H   H1906     1.0  0.84606  0.12481  0.90237  1.0000
  H   H1907     1.0  0.88383  0.09869  0.91713  1.0000
  Fe  Fe253     1.0  0.68017  0.12148  0.97559  1.0000
  C   C1224     1.0  0.70369  0.01080  0.86371  1.0000
  C   C1225     1.0  0.70925  0.02018  0.84811  1.0000
  C   C1226     1.0  0.70675  0.01680  0.83367  1.0000
  H   H1908     1.0  0.86521  0.11761  0.88918  1.0000
  H   H1909     1.0  0.71580  0.02981  0.84715  1.0000
  H   H1910     1.0  0.71140  0.02397  0.82170  1.0000
  H   H1911     1.0  0.94187  0.29112  0.90270  1.0000
  H   H1912     1.0  0.94900  0.24932  0.80973  1.0000
  C   C1227     1.0  0.62882  0.01933  0.76814  1.0000
  C   C1228     1.0  0.61586  0.02354  0.78119  1.0000
  C   C1229     1.0  0.60020  0.03196  0.77791  1.0000
  H   H1913     1.0  0.75581  0.18129  0.97131  1.0000
  H   H1914     1.0  0.95048  0.15820  0.95416  1.0000
  H   H1915     1.0  0.64095  0.01292  0.77039  1.0000
  H   H1916     1.0  0.59014  0.03534  0.78793  1.0000
  C   C1230     1.0  0.90159  0.32268  0.79269  1.0000
  H   H1917     1.0  0.87780  0.07927  0.91991  1.0000
  H   H1918     1.0  0.86534  0.12521  0.90689  1.0000
  N   N119      1.0  0.80816  0.19974  0.91751  1.0000
  C   C1231     1.0  0.81084  0.21410  0.92239  1.0000
  C   C1232     1.0  0.81933  0.19748  0.90149  1.0000
  C   C1233     1.0  0.79069  0.20268  0.91590  1.0000
  C   C1234     1.0  0.81177  0.18464  0.93029  1.0000
  H   H1919     1.0  0.80262  0.21608  0.93447  1.0000
  H   H1920     1.0  0.80822  0.22573  0.91303  1.0000
  H   H1921     1.0  0.82394  0.21223  0.92369  1.0000
  H   H1922     1.0  0.83264  0.19521  0.90222  1.0000
  H   H1923     1.0  0.81767  0.18666  0.89750  1.0000
  H   H1924     1.0  0.81693  0.20856  0.89148  1.0000
  H   H1925     1.0  0.78830  0.19207  0.91216  1.0000
  H   H1926     1.0  0.78740  0.21405  0.90647  1.0000
  H   H1927     1.0  0.78189  0.20405  0.92787  1.0000
  H   H1928     1.0  0.81008  0.17356  0.92686  1.0000
  H   H1929     1.0  0.80324  0.18567  0.94246  1.0000
  H   H1930     1.0  0.82476  0.18213  0.93206  1.0000
  N   N120      1.0  0.67232  0.07249  0.95396  1.0000
  H   H1931     1.0  0.65974  0.05219  0.95971  1.0000
  C   C1235     1.0  0.93964  0.15866  0.94891  1.0000
  C   C1236     1.0  0.67251  0.05459  0.95684  1.0000
  H   H1932     1.0  0.97883  0.19540  0.94658  1.0000
  H   H1933     1.0  0.92333  0.22607  0.82233  1.0000
  H   H1934     1.0  0.52126  0.06075  0.74959  1.0000
  H   H1935     1.0  0.49861  0.04681  0.73598  1.0000
  C   C1237     1.0  0.79090  0.10730  0.97662  1.0000
  H   H1936     1.0  0.95219  0.19697  0.82041  1.0000
  H   H1937     1.0  0.76753  0.09595  0.93710  1.0000
  H   H1938     1.0  0.96232  0.23712  0.79554  1.0000
  H   H1939     1.0  0.76088  0.09295  0.91986  1.0000
  S   S505      1.0  0.98024  0.26927  0.81304  1.0000
  H   H1940     1.0  0.93028  0.23604  0.83457  1.0000
  H   H1941     1.0  0.76025  0.06424  0.91809  1.0000
  H   H1942     1.0  0.97544  0.21997  0.81946  1.0000
  H   H1943     1.0  0.72958  0.13737  0.89945  1.0000
  C   C1238     1.0  0.93330  0.22490  0.82904  1.0000
  Fe  Fe254     1.0  0.54883  0.02468  0.74325  1.0000
  H   H1944     1.0  0.92938  0.31790  0.80379  1.0000
  H   H1945     1.0  0.93954  0.14578  0.94838  1.0000
  H   H1946     1.0  0.77211  0.02025  0.95864  1.0000
  C   C1239     1.0  0.92477  0.18343  0.95924  1.0000
  H   H1947     1.0  0.90549  0.30969  0.79942  1.0000
  C   C1240     1.0  0.95312  0.20842  0.81064  1.0000
  H   H1948     1.0  0.79140  0.06270  0.94269  1.0000
  H   H1949     1.0  0.66384  0.09510  0.93741  1.0000
  H   H1950     1.0  0.64970  0.07735  0.97195  1.0000
  H   H1951     1.0  0.63624  0.01960  0.74211  1.0000
  H   H1952     1.0  0.99114  0.15072  0.88543  1.0000
  H   H1953     1.0  0.67867  0.04739  0.96732  1.0000
  S   S506      1.0  0.98640  0.28197  0.85035  1.0000
  H   H1954     1.0  0.74687  0.06011  0.95515  1.0000
  C   C1241     1.0  0.66457  0.08149  0.93965  1.0000
  N   N121      1.0  0.85957  0.10091  0.91261  1.0000
  C   C1242     1.0  0.85107  0.09174  0.90601  1.0000
  C   C1243     1.0  0.85110  0.10199  0.92986  1.0000
  C   C1244     1.0  0.85908  0.11783  0.90233  1.0000
  C   C1245     1.0  0.87704  0.09209  0.91225  1.0000
  H   H1955     1.0  0.85735  0.09029  0.89317  1.0000
  H   H1956     1.0  0.83801  0.09830  0.90566  1.0000
  H   H1957     1.0  0.85053  0.07914  0.91386  1.0000
  H   H1958     1.0  0.83801  0.10889  0.93055  1.0000
  H   H1959     1.0  0.85064  0.08946  0.93789  1.0000
  H   H1960     1.0  0.93251  0.21399  0.83947  1.0000
  H   H1961     1.0  0.58535  0.04205  0.75925  1.0000
  H   H1962     1.0  0.91179  0.17510  0.93789  1.0000
  H   H1963     1.0  0.69185  0.16005  0.88279  1.0000
  H   H1964     1.0  0.73908  0.16346  0.88875  1.0000
  H   H1965     1.0  0.96064  0.23206  0.83333  1.0000
  C   C1246     1.0  0.69940  0.16813  0.88452  1.0000
  H   H1966     1.0  0.64974  0.02644  0.81251  1.0000
  C   C1247     1.0  0.74683  0.02703  0.95496  1.0000
  S   S507      1.0  0.66664  0.00631  0.78725  1.0000
  C   C1248     1.0  0.63994  0.04440  0.84593  1.0000
  H   H1967     1.0  0.97119  0.26140  0.90442  1.0000
  H   H1968     1.0  0.94200  0.16574  0.93593  1.0000
  H   H1969     1.0  0.69881  0.17930  0.87434  1.0000
  H   H1970     1.0  0.74662  0.08076  0.95642  1.0000
  H   H1971     1.0  0.72606  0.18154  0.87897  1.0000
  C   C1249     1.0  0.69264  0.99497  0.85016  1.0000
  C   C1250     1.0  0.96772  0.26784  0.89229  1.0000
  H   H1972     1.0  0.89437  0.32224  0.78371  1.0000
  H   H1973     1.0  0.66250  0.00806  0.83553  1.0000
  H   H1974     1.0  0.96582  0.20628  0.80277  1.0000
  H   H1975     1.0  0.63009  0.03007  0.82639  1.0000
  N   N122      1.0  0.94990  0.22317  0.81796  1.0000
  C   C1251     1.0  0.72476  0.15464  0.86872  1.0000
  H   H1976     1.0  0.71844  0.14607  0.86592  1.0000
  H   H1977     1.0  0.97778  0.17930  0.83056  1.0000
  S   S508      1.0  0.70091  0.16873  0.98168  1.0000
  H   H1978     1.0  0.92610  0.27938  0.90604  1.0000
  H   H1979     1.0  0.94955  0.24509  0.90894  1.0000
  C   C1252     1.0  0.76941  0.08731  0.92870  1.0000
  H   H1980     1.0  0.97586  0.26083  0.88281  1.0000
  C   C1253     1.0  0.93956  0.27832  0.90542  1.0000
  H   H1981     1.0  0.95402  0.27112  0.86640  1.0000
  H   H1982     1.0  0.60739  0.99856  0.76904  1.0000
  H   H1983     1.0  0.69582  0.06822  0.96102  1.0000
  H   H1984     1.0  0.89785  0.17342  0.95757  1.0000
  H   H1985     1.0  0.72460  0.16579  0.85850  1.0000
  C   C1254     1.0  0.80485  0.07706  0.96646  1.0000
  C   C1255     1.0  0.94621  0.27774  0.87632  1.0000
  H   H1986     1.0  0.97195  0.21665  0.89687  1.0000
  C   C1256     1.0  0.97785  0.21582  0.90692  1.0000
  H   H1987     1.0  0.94881  0.29048  0.87279  1.0000
  H   H1988     1.0  0.78199  0.05883  0.91835  1.0000
  S   S509      1.0  0.95941  0.30643  0.81823  1.0000
  C   C1257     1.0  0.72602  0.03597  0.97787  1.0000
  C   C1258     1.0  0.92101  0.15647  0.97562  1.0000
  H   H1989     1.0  0.74746  0.13523  0.98013  1.0000
  S   S510      1.0  0.97241  0.29875  0.78051  1.0000
  N   N123      1.0  0.76657  0.07075  0.93807  1.0000
  H   H1990     1.0  0.67360  0.03841  0.83657  1.0000
  H   H1991     1.0  0.67182  0.07726  0.92806  1.0000
  C   C1259     1.0  0.66276  0.07897  0.96887  1.0000
  H   H1992     1.0  0.98792  0.22160  0.78708  1.0000
  C   C1260     1.0  0.99323  0.21381  0.93288  1.0000
  H   H1993     1.0  0.93294  0.27879  0.87610  1.0000
  C   C1261     1.0  0.74929  0.07232  0.94766  1.0000
  N   N124      1.0  0.92386  0.16651  0.95863  1.0000
  C   C1262     1.0  0.98185  0.20373  0.93484  1.0000
  C   C1263     1.0  0.98940  0.22581  0.90490  1.0000
  C   C1264     1.0  0.98060  0.17316  0.84257  1.0000
  H   H1994     1.0  0.63910  0.04729  0.81390  1.0000
  H   H1995     1.0  0.64274  0.01146  0.84935  1.0000
  H   H1996     1.0  0.95415  0.24485  0.88728  1.0000
  H   H1997     1.0  0.72022  0.13102  0.97793  1.0000
  H   H1998     1.0  0.62803  0.04026  0.85189  1.0000
  C   C1265     1.0  0.61040  0.03110  0.74873  1.0000
  Fe  Fe255     1.0  0.68560  0.15573  0.97348  1.0000
  H   H1999     1.0  0.63688  0.05756  0.83935  1.0000
  H   H2000     1.0  0.66411  0.05275  0.82042  1.0000
  C   C1266     1.0  0.66635  0.03955  0.82703  1.0000
  C   C1267     1.0  0.64199  0.03446  0.82127  1.0000
  H   H2001     1.0  0.57737  0.01057  0.77764  1.0000
  H   H2002     1.0  0.66070  0.01537  0.85390  1.0000
  H   H2003     1.0  0.62753  0.18545  0.97900  1.0000
  H   H2004     1.0  0.64623  0.04413  0.85597  1.0000
  H   H2005     1.0  0.74637  0.11045  0.97129  1.0000
  C   C1268     1.0  0.95037  0.23819  0.80465  1.0000
  H   H2006     1.0  0.90897  0.15506  0.94976  1.0000
  H   H2007     1.0  0.90917  0.16203  0.98328  1.0000
  C   C1269     1.0  0.62614  0.02319  0.75198  1.0000
  H   H2008     1.0  0.71312  0.03995  0.98348  1.0000
  H   H2009     1.0  0.59428  0.00037  0.79860  1.0000
  H   H2010     1.0  0.81030  0.06534  0.96261  1.0000
  Fe  Fe256     1.0  0.97539  0.31654  0.79437  1.0000
  C   C1270     1.0  0.75926  0.02485  0.96397  1.0000
  H   H2011     1.0  0.78237  0.08656  0.92134  1.0000
  C   C1271     1.0  0.76935  0.05971  0.92639  1.0000
  C   C1272     1.0  0.68955  0.07491  0.95049  1.0000
  S   S511      1.0  0.55761  0.04673  0.74469  1.0000
  H   H2012     1.0  0.96284  0.20998  0.83759  1.0000
  H   H2013     1.0  0.94400  0.20970  0.80289  1.0000
  H   H2014     1.0  0.69112  0.99074  0.87653  1.0000
  H   H2015     1.0  0.57234  0.99646  0.76832  1.0000
  C   C1273     1.0  0.98825  0.15710  0.87349  1.0000
  H   H2016     1.0  0.51085  0.05625  0.77079  1.0000
  H   H2017     1.0  0.51461  0.04138  0.75803  1.0000
  Fe  Fe257     1.0  0.99483  0.28224  0.78985  1.0000
  H   H2018     1.0  0.66250  0.09245  0.96712  1.0000
  H   H2019     1.0  0.93157  0.30728  0.77848  1.0000
  H   H2020     1.0  0.91323  0.18961  0.96679  1.0000
  H   H2021     1.0  0.50088  0.08686  0.74415  1.0000
  H   H2022     1.0  0.92024  0.14363  0.97559  1.0000
  H   H2023     1.0  0.98918  0.25137  0.78287  1.0000
  H   H2024     1.0  0.94019  0.24070  0.79781  1.0000
  S   S512      1.0  0.69177  0.09447  0.98017  1.0000
  C   C1274     1.0  0.57500  0.99785  0.77991  1.0000
  C   C1275     1.0  0.92717  0.32032  0.77226  1.0000
  H   H2025     1.0  0.61193  0.21353  0.98334  1.0000
  H   H2026     1.0  0.93550  0.18327  0.96452  1.0000
  H   H2027     1.0  0.92077  0.31999  0.76257  1.0000
  H   H2028     1.0  0.78558  0.11902  0.98049  1.0000
  H   H2029     1.0  0.66848  0.07255  0.97981  1.0000
  H   H2030     1.0  0.99214  0.23452  0.89338  1.0000
  H   H2031     1.0  0.93125  0.15549  0.98194  1.0000
  Fe  Fe258     1.0  0.70801  0.56061  0.02846  1.0000
  S   S513      1.0  0.72391  0.53574  0.03662  1.0000
  S   S514      1.0  0.68635  0.56471  0.01647  1.0000
  Fe  Fe259     1.0  0.72920  0.58004  0.03581  1.0000
  S   S515      1.0  0.74725  0.55713  0.04463  1.0000
  S   S516      1.0  0.73066  0.60678  0.03225  1.0000
  Fe  Fe260     1.0  0.74519  0.54810  0.02306  1.0000
  S   S517      1.0  0.76833  0.53617  0.00732  1.0000
  Fe  Fe261     1.0  0.72472  0.54644  0.05777  1.0000
  S   S518      1.0  0.72565  0.53168  0.08363  1.0000
  S   S519      1.0  0.72933  0.57196  0.01288  1.0000
  S   S520      1.0  0.70670  0.57023  0.05099  1.0000
  H   H2032     1.0  0.99136  0.65046  0.05845  1.0000
  S   S521      1.0  0.80473  0.61607  0.01323  1.0000
  H   H2033     1.0  0.99231  0.59929  0.19035  1.0000
  C   C1276     1.0  0.63986  0.42488  0.20377  1.0000
  C   C1277     1.0  0.76986  0.48060  0.06465  1.0000
  H   H2034     1.0  0.75217  0.50784  0.03404  1.0000
  H   H2035     1.0  0.75280  0.52171  0.05591  1.0000
  H   H2036     1.0  0.77355  0.49821  0.03320  1.0000
  H   H2037     1.0  0.73798  0.48263  0.06368  1.0000
  C   C1278     1.0  0.50518  0.35756  0.20096  1.0000
  C   C1279     1.0  0.55411  0.34786  0.11815  1.0000
  S   S522      1.0  0.59750  0.39753  0.18824  1.0000
  C   C1280     1.0  0.76069  0.49677  0.03968  1.0000
  Fe  Fe262     1.0  0.65298  0.49701  0.17485  1.0000
  S   S523      1.0  0.67810  0.48328  0.16388  1.0000
  S   S524      1.0  0.64788  0.51937  0.18609  1.0000
  Fe  Fe263     1.0  0.63443  0.47309  0.17040  1.0000
  S   S525      1.0  0.65765  0.45704  0.15901  1.0000
  S   S526      1.0  0.60785  0.47049  0.17676  1.0000
  Fe  Fe264     1.0  0.66862  0.46046  0.17885  1.0000
  S   S527      1.0  0.68176  0.43824  0.19478  1.0000
  Fe  Fe265     1.0  0.66515  0.48107  0.14489  1.0000
  S   S528      1.0  0.67325  0.48608  0.11707  1.0000
  S   S529      1.0  0.64473  0.47442  0.19141  1.0000
  S   S530      1.0  0.64084  0.49681  0.15467  1.0000
  H   H2038     1.0  0.69613  0.64188  0.99731  1.0000
  C   C1281     1.0  0.92103  0.65490  0.11278  1.0000
  H   H2039     1.0  0.74001  0.53608  0.99480  1.0000
  S   S531      1.0  0.99614  0.64101  0.12603  1.0000
  C   C1282     1.0  0.98492  0.63493  0.20741  1.0000
  H   H2040     1.0  0.51589  0.34633  0.14274  1.0000
  S   S532      1.0  0.56986  0.53991  0.20706  1.0000
  H   H2041     1.0  0.66080  0.58436  0.99851  1.0000
  H   H2042     1.0  0.65112  0.42832  0.20508  1.0000
  C   C1283     1.0  0.62940  0.42055  0.23330  1.0000
  S   S533      1.0  0.53596  0.44988  0.21641  1.0000
  H   H2043     1.0  0.76980  0.60654  0.99540  1.0000
  C   C1284     1.0  0.76145  0.51039  0.06088  1.0000
  H   H2044     1.0  0.77431  0.51215  0.05492  1.0000
  C   C1285     1.0  0.52008  0.36148  0.20156  1.0000
  C   C1286     1.0  0.59157  0.53526  0.20096  1.0000
  H   H2045     1.0  0.68095  0.46589  0.20898  1.0000
  H   H2046     1.0  0.75837  0.48568  0.03678  1.0000
  H   H2047     1.0  0.57411  0.48463  0.17194  1.0000
  H   H2048     1.0  0.53919  0.49361  0.20673  1.0000
  H   H2049     1.0  0.75958  0.50992  0.07438  1.0000
  H   H2050     1.0  0.76775  0.46902  0.06254  1.0000
  N   N125      1.0  0.75824  0.49538  0.05773  1.0000
  H   H2051     1.0  0.87651  0.64453  0.04646  1.0000
  H   H2052     1.0  0.54670  0.35581  0.19379  1.0000
  C   C1287     1.0  0.52980  0.34424  0.11097  1.0000
  H   H2053     1.0  0.76832  0.47926  0.07825  1.0000
  C   C1288     1.0  0.60002  0.41819  0.18266  1.0000
  C   C1289     1.0  0.61557  0.42197  0.17472  1.0000
  C   C1290     1.0  0.61802  0.43817  0.17240  1.0000
  C   C1291     1.0  0.60493  0.45055  0.17802  1.0000
  C   C1292     1.0  0.58927  0.44689  0.18532  1.0000
  C   C1293     1.0  0.58681  0.43080  0.18753  1.0000
  H   H2054     1.0  0.62579  0.41230  0.17075  1.0000
  H   H2055     1.0  0.63006  0.44099  0.16643  1.0000
  H   H2056     1.0  0.57902  0.45636  0.18960  1.0000
  H   H2057     1.0  0.57464  0.42820  0.19318  1.0000
  C   C1294     1.0  0.54643  0.49160  0.19429  1.0000
  C   C1295     1.0  0.59882  0.53120  0.18548  1.0000
  C   C1296     1.0  0.61613  0.52656  0.18081  1.0000
  C   C1297     1.0  0.62628  0.52643  0.19138  1.0000
  C   C1298     1.0  0.61906  0.53123  0.20656  1.0000
  H   H2058     1.0  0.79936  0.59236  0.99723  1.0000
  H   H2059     1.0  0.59108  0.53137  0.17718  1.0000
  H   H2060     1.0  0.62157  0.52333  0.16892  1.0000
  C   C1299     1.0  0.56898  0.49811  0.17162  1.0000
  H   H2061     1.0  0.54602  0.52179  0.19944  1.0000
  C   C1300     1.0  0.71143  0.51861  0.09257  1.0000
  C   C1301     1.0  0.71124  0.50955  0.10881  1.0000
  C   C1302     1.0  0.69963  0.49941  0.11644  1.0000
  C   C1303     1.0  0.68846  0.49799  0.10767  1.0000
  C   C1304     1.0  0.68897  0.50672  0.09127  1.0000
  C   C1305     1.0  0.70030  0.51718  0.08378  1.0000
  H   H2062     1.0  0.71992  0.51057  0.11561  1.0000
  H   H2063     1.0  0.69939  0.49259  0.12905  1.0000
  H   H2064     1.0  0.68031  0.50565  0.08447  1.0000
  H   H2065     1.0  0.70035  0.52416  0.07124  1.0000
  C   C1306     1.0  0.75107  0.60964  0.02862  1.0000
  C   C1307     1.0  0.76393  0.59633  0.03274  1.0000
  C   C1308     1.0  0.78038  0.59850  0.02866  1.0000
  C   C1309     1.0  0.78401  0.61397  0.02032  1.0000
  C   C1310     1.0  0.77109  0.62742  0.01664  1.0000
  C   C1311     1.0  0.75465  0.62527  0.02083  1.0000
  H   H2066     1.0  0.76125  0.58439  0.03917  1.0000
  H   H2067     1.0  0.79032  0.58812  0.03170  1.0000
  H   H2068     1.0  0.77374  0.63947  0.01046  1.0000
  H   H2069     1.0  0.74482  0.63567  0.01768  1.0000
  C   C1312     1.0  0.67816  0.58613  0.01210  1.0000
  C   C1313     1.0  0.68451  0.59688  0.01750  1.0000
  C   C1314     1.0  0.67853  0.61401  0.01367  1.0000
  C   C1315     1.0  0.66672  0.62059  0.00372  1.0000
  H   H2070     1.0  0.65822  0.40036  0.22180  1.0000
  H   H2071     1.0  0.98129  0.65588  0.22744  1.0000
  H   H2072     1.0  0.69406  0.59208  0.02467  1.0000
  H   H2073     1.0  0.62134  0.40241  0.20598  1.0000
  C   C1316     1.0  0.53522  0.34054  0.18528  1.0000
  H   H2074     1.0  0.53385  0.34913  0.14793  1.0000
  H   H2075     1.0  0.62495  0.46887  0.22628  1.0000
  C   C1317     1.0  0.99219  0.65592  0.21691  1.0000
  H   H2076     1.0  0.61976  0.43217  0.23193  1.0000
  Fe  Fe266     1.0  0.80527  0.64074  0.99603  1.0000
  C   C1318     1.0  0.77970  0.57422  0.99451  1.0000
  C   C1319     1.0  0.66584  0.59263  0.00264  1.0000
  H   H2077     1.0  0.53748  0.33726  0.10126  1.0000
  C   C1320     1.0  0.63958  0.49305  0.22706  1.0000
  H   H2078     1.0  0.69468  0.63925  0.02748  1.0000
  C   C1321     1.0  0.55251  0.51902  0.18704  1.0000
  S   S534      1.0  0.51918  0.37646  0.21319  1.0000
  H   H2079     1.0  0.98023  0.65704  0.07727  1.0000
  C   C1322     1.0  0.52770  0.35086  0.13739  1.0000
  H   H2080     1.0  0.61273  0.40087  0.22758  1.0000
  H   H2081     1.0  0.56495  0.49799  0.21227  1.0000
  H   H2082     1.0  0.56225  0.52659  0.18210  1.0000
  H   H2083     1.0  0.65248  0.48563  0.22495  1.0000
  N   N126      1.0  0.63353  0.41303  0.21859  1.0000
  H   H2084     1.0  0.77729  0.57662  0.00720  1.0000
  H   H2085     1.0  0.54696  0.33390  0.17932  1.0000
  H   H2086     1.0  0.73866  0.49285  0.07940  1.0000
  C   C1323     1.0  0.74096  0.49379  0.06578  1.0000
  H   H2087     1.0  0.54336  0.52347  0.17881  1.0000
  H   H2088     1.0  0.60664  0.49554  0.23065  1.0000
  H   H2089     1.0  0.78925  0.56252  0.99406  1.0000
  H   H2090     1.0  0.90394  0.65664  0.05431  1.0000
  H   H2091     1.0  0.60881  0.42042  0.21355  1.0000
  H   H2092     1.0  0.55169  0.36134  0.11247  1.0000
  H   H2093     1.0  0.55149  0.47801  0.19538  1.0000
  C   C1324     1.0  0.60169  0.53528  0.21151  1.0000
  S   S535      1.0  0.56891  0.41086  0.22657  1.0000
  H   H2094     1.0  0.56094  0.34606  0.12820  1.0000
  C   C1325     1.0  0.92918  0.65189  0.12589  1.0000
  H   H2095     1.0  0.56082  0.50258  0.16241  1.0000
  H   H2096     1.0  0.57721  0.48233  0.20081  1.0000
  H   H2097     1.0  0.55985  0.46464  0.22307  1.0000
  C   C1326     1.0  0.67838  0.44041  0.21534  1.0000
  H   H2098     1.0  0.63516  0.49579  0.21530  1.0000
  Fe  Fe267     1.0  0.54410  0.42197  0.21994  1.0000
  H   H2099     1.0  0.73183  0.50480  0.06100  1.0000
  C   C1327     1.0  0.52032  0.33662  0.18467  1.0000
  C   C1328     1.0  0.50526  0.34532  0.19248  1.0000
  H   H2100     1.0  0.68326  0.62211  0.01826  1.0000
  C   C1329     1.0  0.53513  0.35294  0.19355  1.0000
  H   H2101     1.0  0.78302  0.48140  0.05888  1.0000
  N   N127      1.0  0.66327  0.54255  0.12823  1.0000
  C   C1330     1.0  0.65891  0.54151  0.14631  1.0000
  C   C1331     1.0  0.65366  0.55811  0.11988  1.0000
  C   C1332     1.0  0.65930  0.52822  0.12447  1.0000
  C   C1333     1.0  0.68124  0.54228  0.12226  1.0000
  H   H2102     1.0  0.66611  0.52995  0.15293  1.0000
  H   H2103     1.0  0.64550  0.54132  0.15138  1.0000
  H   H2104     1.0  0.66155  0.55216  0.14973  1.0000
  H   H2105     1.0  0.65668  0.55917  0.10620  1.0000
  H   H2106     1.0  0.64004  0.55869  0.12414  1.0000
  H   H2107     1.0  0.65638  0.56920  0.12241  1.0000
  H   H2108     1.0  0.64581  0.52814  0.12850  1.0000
  H   H2109     1.0  0.66607  0.51628  0.13089  1.0000
  H   H2110     1.0  0.66282  0.52825  0.11098  1.0000
  H   H2111     1.0  0.68511  0.54262  0.10870  1.0000
  H   H2112     1.0  0.68882  0.53082  0.12855  1.0000
  H   H2113     1.0  0.68469  0.55306  0.12462  1.0000
  H   H2114     1.0  0.54789  0.32647  0.23258  1.0000
  H   H2115     1.0  0.54330  0.34854  0.22568  1.0000
  H   H2116     1.0  0.58170  0.50268  0.19537  1.0000
  H   H2117     1.0  0.64929  0.39124  0.21038  1.0000
  H   H2118     1.0  0.57973  0.50440  0.16697  1.0000
  H   H2119     1.0  0.69917  0.65546  0.03438  1.0000
  H   H2120     1.0  0.67594  0.41509  0.22553  1.0000
  C   C1334     1.0  0.74996  0.53884  0.98439  1.0000
  N   N128      1.0  0.55983  0.50112  0.18816  1.0000
  C   C1335     1.0  0.57141  0.49577  0.19970  1.0000
  H   H2121     1.0  0.53753  0.49520  0.18584  1.0000
  H   H2122     1.0  0.59617  0.53864  0.22338  1.0000
  H   H2123     1.0  0.62684  0.53152  0.21462  1.0000
  Fe  Fe268     1.0  0.53909  0.38830  0.21668  1.0000
  H   H2124     1.0  0.71549  0.64225  0.02288  1.0000
  Fe  Fe269     1.0  0.57319  0.39711  0.20630  1.0000
  S   S536      1.0  0.54899  0.40952  0.19844  1.0000
  C   C1336     1.0  0.67845  0.45549  0.21895  1.0000
  S   S537      1.0  0.56396  0.37480  0.22305  1.0000
  C   C1337     1.0  0.64643  0.39768  0.22089  1.0000
  H   H2125     1.0  0.64250  0.38882  0.23248  1.0000
  S   S538      1.0  0.66046  0.64218  0.99811  1.0000
  H   H2126     1.0  0.63042  0.43657  0.20146  1.0000
  H   H2127     1.0  0.52670  0.35758  0.10499  1.0000
  H   H2128     1.0  0.51799  0.33964  0.11546  1.0000
  C   C1338     1.0  0.87532  0.64636  0.05920  1.0000
  H   H2129     1.0  0.64335  0.41951  0.19247  1.0000
  H   H2130     1.0  0.65106  0.61500  0.99059  1.0000
  C   C1339     1.0  0.61846  0.40903  0.21636  1.0000
  H   H2131     1.0  0.91440  0.64593  0.11211  1.0000
  H   H2132     1.0  0.52441  0.36441  0.13229  1.0000
  H   H2133     1.0  0.64021  0.50510  0.22939  1.0000
  C   C1340     1.0  0.66035  0.60993  0.99816  1.0000
  C   C1341     1.0  0.70228  0.64891  0.02394  1.0000
  C   C1342     1.0  0.70387  0.65131  0.99480  1.0000
  H   H2134     1.0  0.98183  0.63155  0.19698  1.0000
  H   H2135     1.0  0.88499  0.63666  0.06487  1.0000
  C   C1343     1.0  0.67550  0.42689  0.22828  1.0000
  C   C1344     1.0  0.54231  0.32384  0.13204  1.0000
  H   H2136     1.0  0.56253  0.34115  0.10854  1.0000
  H   H2137     1.0  0.86294  0.64410  0.06645  1.0000
  H   H2138     1.0  0.92880  0.64063  0.13529  1.0000
  H   H2139     1.0  0.96987  0.64897  0.06626  1.0000
  C   C1345     1.0  0.54852  0.46661  0.23226  1.0000
  C   C1346     1.0  0.53541  0.45926  0.23268  1.0000
  N   N129      1.0  0.98876  0.65170  0.20257  1.0000
  H   H2140     1.0  0.70934  0.58291  0.98619  1.0000
  N   N130      1.0  0.53848  0.34172  0.12462  1.0000
  H   H2141     1.0  0.97410  0.63410  0.21796  1.0000
  H   H2142     1.0  0.88553  0.65601  0.08195  1.0000
  C   C1347     1.0  0.76532  0.53935  0.98708  1.0000
  C   C1348     1.0  0.97903  0.65679  0.06467  1.0000
  H   H2143     1.0  0.76801  0.57189  0.99287  1.0000
  H   H2144     1.0  0.71712  0.64471  0.99312  1.0000
  H   H2145     1.0  0.99567  0.62525  0.21118  1.0000
  C   C1349     1.0  0.80073  0.59074  0.98442  1.0000
  Fe  Fe270     1.0  0.54354  0.54829  0.26588  1.0000
  H   H2146     1.0  0.55885  0.33917  0.23788  1.0000
  S   S539      1.0  0.52910  0.56936  0.27882  1.0000
  Fe  Fe271     1.0  0.54330  0.51323  0.26231  1.0000
  H   H2147     1.0  0.55676  0.48279  0.24278  1.0000
  S   S540      1.0  0.52912  0.49258  0.26918  1.0000
  Fe  Fe272     1.0  0.57445  0.52134  0.26638  1.0000
  S   S541      1.0  0.59691  0.51122  0.27773  1.0000
  H   H2148     1.0  0.63841  0.41149  0.47911  1.0000
  S   S542      1.0  0.54879  0.52294  0.28194  1.0000
  H   H2149     1.0  0.75601  0.41471  0.45964  1.0000
  H   H2150     1.0  0.73984  0.34961  0.42711  1.0000
  S   S543      1.0  0.56151  0.38192  0.26879  1.0000
  H   H2151     1.0  0.57559  0.38598  0.29456  1.0000
  Fe  Fe273     1.0  0.65311  0.42720  0.28594  1.0000
  S   S544      1.0  0.62916  0.42518  0.28129  1.0000
  S   S545      1.0  0.66731  0.44608  0.26902  1.0000
  Fe  Fe274     1.0  0.65136  0.40060  0.31740  1.0000
  S   S546      1.0  0.62719  0.39571  0.31535  1.0000
  S   S547      1.0  0.66667  0.38686  0.33692  1.0000
  Fe  Fe275     1.0  0.63817  0.39772  0.28817  1.0000
  S   S548      1.0  0.63516  0.38334  0.27066  1.0000
  Fe  Fe276     1.0  0.61994  0.42347  0.30853  1.0000
  S   S549      1.0  0.59411  0.43783  0.31562  1.0000
  S   S550      1.0  0.66320  0.39982  0.29069  1.0000
  S   S551      1.0  0.64308  0.42830  0.31269  1.0000
  Fe  Fe277     1.0  0.69547  0.40688  0.40801  1.0000
  S   S552      1.0  0.71751  0.38734  0.40047  1.0000
  S   S553      1.0  0.67712  0.42016  0.39115  1.0000
  Fe  Fe278     1.0  0.70200  0.40050  0.44344  1.0000
  S   S554      1.0  0.72394  0.38008  0.43853  1.0000
  H   H2152     1.0  0.76369  0.35180  0.40337  1.0000
  Fe  Fe279     1.0  0.73058  0.39726  0.41428  1.0000
  S   S555      1.0  0.75677  0.40091  0.40439  1.0000
  Fe  Fe280     1.0  0.70882  0.37219  0.42528  1.0000
  H   H2153     1.0  0.65755  0.39722  0.47328  1.0000
  S   S556      1.0  0.70935  0.41851  0.41982  1.0000
  S   S557      1.0  0.68597  0.39103  0.43229  1.0000
  C   C1350     1.0  0.66017  0.34400  0.46835  1.0000
  H   H2154     1.0  0.69433  0.45303  0.29896  1.0000
  C   C1351     1.0  0.59067  0.55213  0.29198  1.0000
  C   C1352     1.0  0.67585  0.45691  0.23549  1.0000
  C   C1353     1.0  0.51917  0.47181  0.25588  1.0000
  Fe  Fe281     1.0  0.55215  0.63512  0.31089  1.0000
  S   S558      1.0  0.55393  0.63627  0.33645  1.0000
  S   S559      1.0  0.56708  0.61562  0.29609  1.0000
  H   H2155     1.0  0.67050  0.35808  0.47930  1.0000
  H   H2156     1.0  0.54368  0.35816  0.25726  1.0000
  Fe  Fe282     1.0  0.52614  0.64407  0.34012  1.0000
  H   H2157     1.0  0.56504  0.55574  0.32924  1.0000
  H   H2158     1.0  0.74377  0.39908  0.46755  1.0000
  S   S560      1.0  0.52429  0.64110  0.31536  1.0000
  H   H2159     1.0  0.63247  0.36137  0.41877  1.0000
  H   H2160     1.0  0.64730  0.47620  0.25555  1.0000
  H   H2161     1.0  0.52229  0.35804  0.26691  1.0000
  C   C1354     1.0  0.69244  0.41218  0.30961  1.0000
  H   H2162     1.0  0.51977  0.62613  0.28322  1.0000
  C   C1355     1.0  0.51765  0.33852  0.24887  1.0000
  C   C1356     1.0  0.67763  0.33513  0.44356  1.0000
  S   S561      1.0  0.69415  0.40249  0.47039  1.0000
  C   C1357     1.0  0.68697  0.35160  0.45719  1.0000
  H   H2163     1.0  0.62684  0.47433  0.26696  1.0000
  H   H2164     1.0  0.69616  0.35806  0.45773  1.0000
  C   C1358     1.0  0.77086  0.38797  0.41645  1.0000
  C   C1359     1.0  0.78542  0.39287  0.41612  1.0000
  C   C1360     1.0  0.79656  0.38286  0.42603  1.0000
  C   C1361     1.0  0.79324  0.36785  0.43620  1.0000
  C   C1362     1.0  0.77884  0.36278  0.43635  1.0000
  C   C1363     1.0  0.76770  0.37284  0.42645  1.0000
  H   H2165     1.0  0.78799  0.40451  0.40831  1.0000
  H   H2166     1.0  0.80773  0.38678  0.42585  1.0000
  H   H2167     1.0  0.77631  0.35114  0.44411  1.0000
  H   H2168     1.0  0.75684  0.36877  0.42629  1.0000
  H   H2169     1.0  0.56514  0.57044  0.31002  1.0000
  S   S562      1.0  0.70600  0.34635  0.42738  1.0000
  H   H2170     1.0  0.59623  0.54211  0.28482  1.0000
  H   H2171     1.0  0.55396  0.63330  0.26374  1.0000
  H   H2172     1.0  0.58355  0.56250  0.28404  1.0000
  H   H2173     1.0  0.52777  0.36669  0.24530  1.0000
  H   H2174     1.0  0.54805  0.65542  0.26244  1.0000
  C   C1364     1.0  0.66965  0.39670  0.35147  1.0000
  C   C1365     1.0  0.65909  0.41144  0.35517  1.0000
  C   C1366     1.0  0.66176  0.41872  0.36706  1.0000
  C   C1367     1.0  0.67495  0.41132  0.37538  1.0000
  C   C1368     1.0  0.68568  0.39676  0.37141  1.0000
  C   C1369     1.0  0.68294  0.38942  0.35964  1.0000
  H   H2175     1.0  0.64871  0.41709  0.34907  1.0000
  H   H2176     1.0  0.65337  0.42998  0.37004  1.0000
  H   H2177     1.0  0.69597  0.39099  0.37757  1.0000
  H   H2178     1.0  0.69118  0.37802  0.35685  1.0000
  S   S563      1.0  0.53523  0.53883  0.24762  1.0000
  C   C1370     1.0  0.71164  0.42511  0.47207  1.0000
  C   C1371     1.0  0.71546  0.42443  0.30814  1.0000
  S   S564      1.0  0.56976  0.54726  0.25159  1.0000
  C   C1372     1.0  0.61473  0.38209  0.27088  1.0000
  C   C1373     1.0  0.61145  0.37822  0.25721  1.0000
  C   C1374     1.0  0.59512  0.37844  0.25640  1.0000
  C   C1375     1.0  0.58208  0.38144  0.26977  1.0000
  C   C1376     1.0  0.58548  0.38424  0.28392  1.0000
  C   C1377     1.0  0.60169  0.38508  0.28428  1.0000
  H   H2179     1.0  0.63216  0.49439  0.25998  1.0000
  N   N131      1.0  0.76658  0.39329  0.47632  1.0000
  H   H2180     1.0  0.55068  0.32769  0.26771  1.0000
  H   H2181     1.0  0.60416  0.38767  0.29506  1.0000
  C   C1378     1.0  0.53988  0.58203  0.28358  1.0000
  C   C1379     1.0  0.53249  0.59019  0.29680  1.0000
  C   C1380     1.0  0.54073  0.60049  0.30080  1.0000
  C   C1381     1.0  0.55635  0.60285  0.29144  1.0000
  C   C1382     1.0  0.56373  0.59472  0.27820  1.0000
  C   C1383     1.0  0.55552  0.58435  0.27426  1.0000
  H   H2182     1.0  0.52039  0.58841  0.30409  1.0000
  H   H2183     1.0  0.53507  0.60640  0.31125  1.0000
  H   H2184     1.0  0.57581  0.59652  0.27090  1.0000
  H   H2185     1.0  0.56120  0.57836  0.26387  1.0000
  C   C1384     1.0  0.59558  0.49123  0.28923  1.0000
  C   C1385     1.0  0.58184  0.48463  0.29026  1.0000
  C   C1386     1.0  0.58105  0.46843  0.29904  1.0000
  C   C1387     1.0  0.59425  0.45865  0.30634  1.0000
  C   C1388     1.0  0.60798  0.46527  0.30532  1.0000
  C   C1389     1.0  0.60854  0.48165  0.29697  1.0000
  H   H2186     1.0  0.57182  0.49187  0.28422  1.0000
  H   H2187     1.0  0.57040  0.46337  0.29986  1.0000
  H   H2188     1.0  0.61807  0.45785  0.31117  1.0000
  H   H2189     1.0  0.61917  0.48672  0.29625  1.0000
  C   C1390     1.0  0.53190  0.47984  0.25496  1.0000
  H   H2190     1.0  0.73691  0.32976  0.43930  1.0000
  C   C1391     1.0  0.62910  0.46775  0.23792  1.0000
  N   N132      1.0  0.57993  0.54619  0.30790  1.0000
  H   H2191     1.0  0.67593  0.43309  0.33008  1.0000
  C   C1392     1.0  0.70485  0.41114  0.48019  1.0000
  C   C1393     1.0  0.61133  0.49406  0.24208  1.0000
  S   S565      1.0  0.56949  0.50957  0.24810  1.0000
  C   C1394     1.0  0.74654  0.33688  0.43170  1.0000
  C   C1395     1.0  0.63394  0.48222  0.25651  1.0000
  C   C1396     1.0  0.75676  0.40105  0.46328  1.0000
  H   H2192     1.0  0.59269  0.37589  0.24558  1.0000
  N   N133      1.0  0.62851  0.48425  0.24089  1.0000
  H   H2193     1.0  0.64793  0.40042  0.39995  1.0000
  C   C1397     1.0  0.54673  0.47700  0.24330  1.0000
  C   C1398     1.0  0.57300  0.55983  0.31704  1.0000
  H   H2194     1.0  0.60034  0.53583  0.32046  1.0000
  C   C1399     1.0  0.53870  0.32678  0.26536  1.0000
  H   H2195     1.0  0.64889  0.35601  0.40177  1.0000
  H   H2196     1.0  0.65216  0.39093  0.42818  1.0000
  H   H2197     1.0  0.69689  0.40111  0.31885  1.0000
  H   H2198     1.0  0.65504  0.36932  0.43779  1.0000
  H   H2199     1.0  0.63014  0.39106  0.40513  1.0000
  H   H2200     1.0  0.62152  0.37512  0.24714  1.0000
  H   H2201     1.0  0.61051  0.50679  0.24380  1.0000
  C   C1400     1.0  0.67243  0.35163  0.46942  1.0000
  N   N134      1.0  0.52842  0.64398  0.26197  1.0000
  N   N135      1.0  0.69717  0.42720  0.31096  1.0000
  C   C1401     1.0  0.76950  0.33874  0.40836  1.0000
  H   H2202     1.0  0.67693  0.36143  0.41446  1.0000
  H   H2203     1.0  0.55875  0.55069  0.29676  1.0000
  S   S566      1.0  0.50962  0.63518  0.36399  1.0000
  H   H2204     1.0  0.57100  0.52998  0.29837  1.0000
  H   H2205     1.0  0.51055  0.45635  0.24488  1.0000
  H   H2206     1.0  0.69607  0.43913  0.28565  1.0000
  H   H2207     1.0  0.66930  0.41820  0.25469  1.0000
  C   C1402     1.0  0.52280  0.62818  0.26946  1.0000
  C   C1403     1.0  0.67029  0.37187  0.40618  1.0000
  H   H2208     1.0  0.59527  0.52165  0.31111  1.0000
  H   H2209     1.0  0.58212  0.52717  0.32982  1.0000
  N   N136      1.0  0.55602  0.43321  0.28346  1.0000
  C   C1404     1.0  0.57210  0.42931  0.28871  1.0000
  C   C1405     1.0  0.54624  0.42051  0.29290  1.0000
  C   C1406     1.0  0.55902  0.43331  0.26561  1.0000
  C   C1407     1.0  0.54668  0.44969  0.28666  1.0000
  H   H2210     1.0  0.57955  0.43896  0.28230  1.0000
  H   H2211     1.0  0.57977  0.41723  0.28605  1.0000
  H   H2212     1.0  0.57030  0.42855  0.30225  1.0000
  H   H2213     1.0  0.55267  0.40800  0.29036  1.0000
  H   H2214     1.0  0.54410  0.41970  0.30647  1.0000
  H   H2215     1.0  0.53390  0.42334  0.28946  1.0000
  H   H2216     1.0  0.54712  0.43621  0.26128  1.0000
  H   H2217     1.0  0.56596  0.42098  0.26282  1.0000
  H   H2218     1.0  0.56631  0.44276  0.25803  1.0000
  H   H2219     1.0  0.53428  0.45293  0.28329  1.0000
  H   H2220     1.0  0.55342  0.45971  0.27935  1.0000
  H   H2221     1.0  0.54459  0.45018  0.29994  1.0000
  S   S567      1.0  0.77445  0.33223  0.48047  1.0000
  H   H2222     1.0  0.79003  0.39049  0.45909  1.0000
  H   H2223     1.0  0.62456  0.41189  0.24471  1.0000
  C   C1408     1.0  0.78373  0.39609  0.47011  1.0000
  C   C1409     1.0  0.66281  0.33560  0.45552  1.0000
  H   H2224     1.0  0.50773  0.47385  0.26495  1.0000
  H   H2225     1.0  0.58298  0.56471  0.31928  1.0000
  H   H2226     1.0  0.72256  0.44426  0.47478  1.0000
  S   S568      1.0  0.53178  0.40215  0.23771  1.0000
  H   H2227     1.0  0.76234  0.39582  0.45193  1.0000
  H   H2228     1.0  0.65797  0.41521  0.48011  1.0000
  H   H2229     1.0  0.69389  0.42012  0.33749  1.0000
  H   H2230     1.0  0.69321  0.44187  0.32927  1.0000
  H   H2231     1.0  0.54144  0.64150  0.28121  1.0000
  C   C1410     1.0  0.53206  0.64632  0.24375  1.0000
  H   H2232     1.0  0.67530  0.38300  0.40516  1.0000
  C   C1411     1.0  0.54363  0.64356  0.26752  1.0000
  S   S569      1.0  0.80692  0.35589  0.44903  1.0000
  C   C1412     1.0  0.68948  0.34354  0.44416  1.0000
  C   C1413     1.0  0.64614  0.35964  0.41398  1.0000
  H   H2233     1.0  0.55751  0.53654  0.31642  1.0000
  H   H2234     1.0  0.63483  0.38076  0.43454  1.0000
  H   H2235     1.0  0.60104  0.55667  0.29387  1.0000
  H   H2236     1.0  0.62099  0.46077  0.24826  1.0000
  H   H2237     1.0  0.71144  0.43019  0.45912  1.0000
  H   H2238     1.0  0.72048  0.41374  0.31744  1.0000
  H   H2239     1.0  0.65217  0.34898  0.42263  1.0000
  H   H2240     1.0  0.69754  0.40924  0.29708  1.0000
  C   C1414     1.0  0.64389  0.38869  0.40098  1.0000
  H   H2241     1.0  0.67873  0.41379  0.31187  1.0000
  H   H2242     1.0  0.71948  0.43552  0.30907  1.0000
  H   H2243     1.0  0.53256  0.61737  0.26602  1.0000
  C   C1415     1.0  0.67219  0.44360  0.24843  1.0000
  H   H2244     1.0  0.51146  0.62792  0.26542  1.0000
  H   H2245     1.0  0.67639  0.46843  0.23825  1.0000
  H   H2246     1.0  0.78388  0.40958  0.46649  1.0000
  H   H2247     1.0  0.67365  0.36871  0.39372  1.0000
  C   C1416     1.0  0.67192  0.42860  0.24479  1.0000
  H   H2248     1.0  0.60273  0.48811  0.25280  1.0000
  C   C1417     1.0  0.68975  0.43074  0.32767  1.0000
  H   H2249     1.0  0.67716  0.44386  0.30027  1.0000
  C   C1418     1.0  0.64834  0.37916  0.42898  1.0000
  H   H2250     1.0  0.72142  0.42169  0.29564  1.0000
  C   C1419     1.0  0.71782  0.43314  0.48099  1.0000
  C   C1420     1.0  0.58986  0.53211  0.31779  1.0000
  C   C1421     1.0  0.69096  0.44144  0.29843  1.0000
  N   N137      1.0  0.65214  0.37484  0.41254  1.0000
  C   C1422     1.0  0.56619  0.54063  0.30474  1.0000
  N   N138      1.0  0.53365  0.34004  0.25149  1.0000
  H   H2251     1.0  0.64696  0.38610  0.38827  1.0000
  C   C1423     1.0  0.52083  0.46173  0.24466  1.0000
  H   H2252     1.0  0.77788  0.33921  0.41625  1.0000
  H   H2253     1.0  0.79143  0.39037  0.47969  1.0000
  Fe  Fe283     1.0  0.55730  0.39005  0.24264  1.0000
  H   H2254     1.0  0.73947  0.34127  0.40194  1.0000
  C   C1424     1.0  0.53179  0.35642  0.25544  1.0000
  H   H2255     1.0  0.52923  0.32756  0.27703  1.0000
  H   H2256     1.0  0.51861  0.32640  0.24567  1.0000
  H   H2257     1.0  0.77741  0.33325  0.39773  1.0000
  Fe  Fe284     1.0  0.79940  0.33213  0.46378  1.0000
  C   C1425     1.0  0.76705  0.37526  0.48084  1.0000
  H   H2258     1.0  0.64192  0.46006  0.23682  1.0000
  H   H2259     1.0  0.75418  0.33765  0.44015  1.0000
  H   H2260     1.0  0.77316  0.36927  0.47004  1.0000
  C   C1426     1.0  0.54651  0.33844  0.23628  1.0000
  H   H2261     1.0  0.50761  0.33970  0.26005  1.0000
  H   H2262     1.0  0.98910  0.41040  0.27779  1.0000
  N   N139      1.0  0.75679  0.32900  0.41788  1.0000
  H   H2263     1.0  0.65338  0.32955  0.45482  1.0000
  C   C1427     1.0  0.74600  0.32854  0.40702  1.0000
  C   C1428     1.0  0.65075  0.40538  0.48224  1.0000
  H   H2264     1.0  0.99462  0.38936  0.30303  1.0000
  H   H2265     1.0  0.67958  0.32888  0.43348  1.0000
  H   H2266     1.0  0.51222  0.65648  0.28089  1.0000
  S   S570      1.0  0.64112  0.34590  0.48238  1.0000
  H   H2267     1.0  0.51348  0.34839  0.23849  1.0000
  H   H2268     1.0  0.54196  0.63598  0.23947  1.0000
  H   H2269     1.0  0.52084  0.64674  0.23912  1.0000
  Fe  Fe285     1.0  0.56207  0.53571  0.23468  1.0000
  H   H2270     1.0  0.64057  0.42351  0.23544  1.0000
  H   H2271     1.0  0.91053  0.62200  0.68464  1.0000
  S   S571      1.0  0.93417  0.64331  0.67561  1.0000
  Fe  Fe286     1.0  0.91042  0.56915  0.65447  1.0000
  S   S572      1.0  0.88560  0.57198  0.64811  1.0000
  S   S573      1.0  0.92735  0.58747  0.64254  1.0000
  Fe  Fe287     1.0  0.90830  0.53579  0.67762  1.0000
  S   S574      1.0  0.88316  0.53587  0.67394  1.0000
  S   S575      1.0  0.92108  0.51432  0.69459  1.0000
  Fe  Fe288     1.0  0.89334  0.54489  0.64718  1.0000
  S   S576      1.0  0.88875  0.53414  0.62765  1.0000
  Fe  Fe289     1.0  0.87743  0.56272  0.67531  1.0000
  S   S577      1.0  0.85206  0.57275  0.68889  1.0000
  S   S578      1.0  0.91914  0.54282  0.65065  1.0000
  S   S579      1.0  0.90153  0.56185  0.68191  1.0000
  Fe  Fe290     1.0  0.90886  0.43027  0.70516  1.0000
  C   C1429     1.0  0.54250  0.33180  0.55086  1.0000
  S   S580      1.0  0.91907  0.44577  0.68100  1.0000
  H   H2272     1.0  0.93819  0.40210  0.69897  1.0000
  H   H2273     1.0  0.89703  0.63991  0.62837  1.0000
  S   S581      1.0  0.90324  0.40614  0.70502  1.0000
  Fe  Fe291     1.0  0.82395  0.46333  0.64420  1.0000
  S   S582      1.0  0.79884  0.45666  0.65210  1.0000
  S   S583      1.0  0.84861  0.44596  0.64419  1.0000
  Fe  Fe292     1.0  0.81025  0.50021  0.63732  1.0000
  S   S584      1.0  0.78382  0.49686  0.64416  1.0000
  S   S585      1.0  0.81652  0.52556  0.62988  1.0000
  Fe  Fe293     1.0  0.79226  0.47781  0.66567  1.0000
  S   S586      1.0  0.77910  0.47604  0.69255  1.0000
  Fe  Fe294     1.0  0.79281  0.47616  0.62972  1.0000
  S   S587      1.0  0.78070  0.47472  0.60901  1.0000
  S   S588      1.0  0.81797  0.48253  0.65957  1.0000
  S   S589      1.0  0.81865  0.48145  0.62113  1.0000
  Fe  Fe295     1.0  0.76137  0.39908  0.54285  1.0000
  S   S590      1.0  0.75374  0.42649  0.54095  1.0000
  S   S591      1.0  0.78705  0.38773  0.53121  1.0000
  Fe  Fe296     1.0  0.72666  0.39289  0.56005  1.0000
  S   S592      1.0  0.71636  0.42004  0.55997  1.0000
  S   S593      1.0  0.71371  0.37116  0.56949  1.0000
  Fe  Fe297     1.0  0.73120  0.42354  0.53360  1.0000
  S   S594      1.0  0.72436  0.43795  0.50917  1.0000
  Fe  Fe298     1.0  0.74019  0.42019  0.56746  1.0000
  S   S595      1.0  0.74420  0.42669  0.59062  1.0000
  S   S596      1.0  0.74014  0.39649  0.53370  1.0000
  S   S597      1.0  0.74913  0.39254  0.56939  1.0000
  C   C1430     1.0  0.81673  0.45540  0.72033  1.0000
  N   N140      1.0  0.96394  0.40318  0.69314  1.0000
  H   H2274     1.0  0.74098  0.32717  0.54523  1.0000
  H   H2275     1.0  0.72614  0.36567  0.51667  1.0000
  C   C1431     1.0  0.89093  0.45959  0.62829  1.0000
  H   H2276     1.0  0.84972  0.44999  0.70686  1.0000
  N   N141      1.0  0.91898  0.65018  0.61791  1.0000
  C   C1432     1.0  0.93691  0.64424  0.61171  1.0000
  C   C1433     1.0  0.86244  0.55122  0.73405  1.0000
  H   H2277     1.0  0.83099  0.48783  0.72381  1.0000
  H   H2278     1.0  0.95176  0.38448  0.69180  1.0000
  H   H2279     1.0  0.79354  0.41585  0.55244  1.0000
  C   C1434     1.0  0.69581  0.37115  0.56266  1.0000
  C   C1435     1.0  0.68727  0.38545  0.55357  1.0000
  C   C1436     1.0  0.67284  0.38494  0.54867  1.0000
  C   C1437     1.0  0.66720  0.37004  0.55240  1.0000
  C   C1438     1.0  0.67607  0.35565  0.56100  1.0000
  C   C1439     1.0  0.69013  0.35629  0.56637  1.0000
  H   H2280     1.0  0.69154  0.39698  0.55066  1.0000
  H   H2281     1.0  0.66601  0.39615  0.54208  1.0000
  H   H2282     1.0  0.94914  0.42619  0.69945  1.0000
  H   H2283     1.0  0.69659  0.34522  0.57352  1.0000
  C   C1440     1.0  0.78605  0.36786  0.53001  1.0000
  C   C1441     1.0  0.79456  0.36140  0.51595  1.0000
  H   H2284     1.0  0.54985  0.33257  0.53795  1.0000
  C   C1442     1.0  0.88793  0.50919  0.73311  1.0000
  H   H2285     1.0  0.81202  0.46121  0.70868  1.0000
  C   C1443     1.0  0.77590  0.35881  0.54276  1.0000
  H   H2286     1.0  0.80240  0.36840  0.50607  1.0000
  C   C1444     1.0  0.78233  0.33704  0.52722  1.0000
  C   C1445     1.0  0.71123  0.41280  0.50593  1.0000
  H   H2287     1.0  0.76930  0.36373  0.55365  1.0000
  C   C1446     1.0  0.97919  0.39753  0.68135  1.0000
  C   C1447     1.0  0.82179  0.48111  0.72290  1.0000
  H   H2288     1.0  0.71063  0.40818  0.51906  1.0000
  H   H2289     1.0  0.81687  0.39158  0.58575  1.0000
  C   C1448     1.0  0.77153  0.46051  0.60391  1.0000
  C   C1449     1.0  0.76679  0.44669  0.61542  1.0000
  C   C1450     1.0  0.75846  0.43657  0.61111  1.0000
  C   C1451     1.0  0.75514  0.43978  0.59510  1.0000
  C   C1452     1.0  0.76031  0.45330  0.58346  1.0000
  C   C1453     1.0  0.76826  0.46367  0.58791  1.0000
  H   H2290     1.0  0.76936  0.44393  0.62769  1.0000
  H   H2291     1.0  0.75455  0.42614  0.62023  1.0000
  H   H2292     1.0  0.75777  0.45607  0.57115  1.0000
  H   H2293     1.0  0.77178  0.47434  0.57888  1.0000
  C   C1454     1.0  0.78200  0.49021  0.70301  1.0000
  C   C1455     1.0  0.78808  0.50446  0.69426  1.0000
  C   C1456     1.0  0.78986  0.51578  0.70281  1.0000
  Fe  Fe299     1.0  0.91393  0.39648  0.72783  1.0000
  H   H2294     1.0  0.91272  0.62855  0.61439  1.0000
  H   H2295     1.0  0.63930  0.40030  0.52413  1.0000
  H   H2296     1.0  0.79105  0.50697  0.68087  1.0000
  H   H2297     1.0  0.79423  0.52692  0.69591  1.0000
  S   S598      1.0  0.92143  0.42014  0.72674  1.0000
  C   C1457     1.0  0.85272  0.42164  0.69753  1.0000
  C   C1458     1.0  0.83731  0.42536  0.69292  1.0000
  C   C1459     1.0  0.83593  0.43294  0.67652  1.0000
  C   C1460     1.0  0.85009  0.43613  0.66460  1.0000
  C   C1461     1.0  0.86551  0.43209  0.66914  1.0000
  C   C1462     1.0  0.86671  0.42527  0.68563  1.0000
  H   H2298     1.0  0.82642  0.42256  0.70203  1.0000
  H   H2299     1.0  0.82398  0.43601  0.67306  1.0000
  H   H2300     1.0  0.87649  0.43455  0.66001  1.0000
  H   H2301     1.0  0.87851  0.42293  0.68904  1.0000
  C   C1463     1.0  0.86850  0.53176  0.62903  1.0000
  C   C1464     1.0  0.85994  0.52259  0.64326  1.0000
  C   C1465     1.0  0.84423  0.51987  0.64344  1.0000
  C   C1466     1.0  0.83696  0.52668  0.62952  1.0000
  C   C1467     1.0  0.84548  0.53601  0.61549  1.0000
  C   C1468     1.0  0.86132  0.53820  0.61511  1.0000
  H   H2302     1.0  0.86554  0.51748  0.65400  1.0000
  H   H2303     1.0  0.83757  0.51288  0.65443  1.0000
  H   H2304     1.0  0.83987  0.54144  0.60478  1.0000
  H   H2305     1.0  0.86796  0.54513  0.60403  1.0000
  C   C1469     1.0  0.85065  0.56209  0.70943  1.0000
  H   H2306     1.0  0.97676  0.39885  0.71306  1.0000
  H   H2307     1.0  0.76612  0.39533  0.50104  1.0000
  H   H2308     1.0  0.83876  0.46858  0.69566  1.0000
  H   H2309     1.0  0.74818  0.34124  0.50914  1.0000
  H   H2310     1.0  0.97100  0.42576  0.69294  1.0000
  H   H2311     1.0  0.87363  0.56654  0.71182  1.0000
  H   H2312     1.0  0.67325  0.38010  0.49381  1.0000
  H   H2313     1.0  0.77113  0.39539  0.59237  1.0000
  H   H2314     1.0  0.82761  0.55530  0.71071  1.0000
  C   C1470     1.0  0.92265  0.49526  0.68949  1.0000
  C   C1471     1.0  0.92722  0.48053  0.70068  1.0000
  C   C1472     1.0  0.92602  0.46530  0.69817  1.0000
  C   C1473     1.0  0.92101  0.46469  0.68402  1.0000
  C   C1474     1.0  0.91716  0.47933  0.67243  1.0000
  C   C1475     1.0  0.91770  0.49465  0.67530  1.0000
  H   H2315     1.0  0.93118  0.48098  0.71158  1.0000
  H   H2316     1.0  0.92908  0.45404  0.70713  1.0000
  H   H2317     1.0  0.91333  0.47890  0.66147  1.0000
  H   H2318     1.0  0.91417  0.50600  0.66660  1.0000
  C   C1476     1.0  0.93344  0.62620  0.66785  1.0000
  C   C1477     1.0  0.94567  0.62099  0.65472  1.0000
  C   C1478     1.0  0.94410  0.60839  0.64772  1.0000
  C   C1479     1.0  0.93036  0.60077  0.65382  1.0000
  C   C1480     1.0  0.91843  0.60548  0.66740  1.0000
  C   C1481     1.0  0.91999  0.61814  0.67440  1.0000
  H   H2319     1.0  0.95636  0.62666  0.64992  1.0000
  H   H2320     1.0  0.95345  0.60472  0.63731  1.0000
  H   H2321     1.0  0.90772  0.59977  0.67215  1.0000
  H   H2322     1.0  0.80544  0.38604  0.55682  1.0000
  C   C1482     1.0  0.71724  0.35717  0.52122  1.0000
  H   H2323     1.0  0.94745  0.40400  0.67745  1.0000
  H   H2324     1.0  0.91548  0.62725  0.63472  1.0000
  H   H2325     1.0  0.90045  0.45300  0.63589  1.0000
  H   H2326     1.0  0.99014  0.40108  0.68327  1.0000
  H   H2327     1.0  0.88162  0.45166  0.63099  1.0000
  H   H2328     1.0  0.63813  0.37563  0.51477  1.0000
  H   H2329     1.0  0.74233  0.34847  0.53684  1.0000
  H   H2330     1.0  0.52931  0.33275  0.55040  1.0000
  H   H2331     1.0  0.86552  0.46711  0.65331  1.0000
  H   H2332     1.0  0.86939  0.48689  0.65295  1.0000
  S   S599      1.0  0.85415  0.41393  0.71839  1.0000
  H   H2333     1.0  0.94295  0.63566  0.62168  1.0000
  H   H2334     1.0  0.89016  0.49902  0.63061  1.0000
  H   H2335     1.0  0.77422  0.36901  0.49076  1.0000
  C   C1483     1.0  0.78601  0.51276  0.72019  1.0000
  H   H2336     1.0  0.90581  0.48070  0.63460  1.0000
  H   H2337     1.0  0.77372  0.41300  0.56503  1.0000
  H   H2338     1.0  0.62776  0.41327  0.50892  1.0000
  C   C1484     1.0  0.78342  0.39732  0.59295  1.0000
  N   N142      1.0  0.82143  0.56477  0.66035  1.0000
  C   C1485     1.0  0.83959  0.55836  0.65676  1.0000
  C   C1486     1.0  0.81774  0.58243  0.65206  1.0000
  C   C1487     1.0  0.81534  0.56320  0.67841  1.0000
  C   C1488     1.0  0.81307  0.55514  0.65413  1.0000
  H   H2339     1.0  0.84450  0.55859  0.64331  1.0000
  H   H2340     1.0  0.84299  0.54536  0.66356  1.0000
  H   H2341     1.0  0.84637  0.56588  0.66048  1.0000
  H   H2342     1.0  0.82388  0.59002  0.65653  1.0000
  H   H2343     1.0  0.82229  0.58403  0.63841  1.0000
  H   H2344     1.0  0.80414  0.58772  0.65443  1.0000
  H   H2345     1.0  0.81832  0.55007  0.68512  1.0000
  H   H2346     1.0  0.80162  0.56759  0.68162  1.0000
  H   H2347     1.0  0.82112  0.57064  0.68342  1.0000
  H   H2348     1.0  0.79934  0.55951  0.65672  1.0000
  H   H2349     1.0  0.81577  0.54170  0.65994  1.0000
  H   H2350     1.0  0.81724  0.55618  0.64050  1.0000
  C   C1489     1.0  0.87533  0.47456  0.64975  1.0000
  H   H2351     1.0  0.88474  0.46831  0.65758  1.0000
  H   H2352     1.0  0.90134  0.48848  0.61420  1.0000
  H   H2353     1.0  0.89711  0.46039  0.61503  1.0000
  C   C1490     1.0  0.96060  0.42148  0.69081  1.0000
  H   H2354     1.0  0.82193  0.44201  0.72018  1.0000
  H   H2355     1.0  0.80853  0.41357  0.58290  1.0000
  H   H2356     1.0  0.93909  0.63744  0.60160  1.0000
  H   H2357     1.0  0.70677  0.32944  0.52392  1.0000
  C   C1491     1.0  0.66588  0.38794  0.50288  1.0000
  N   N143      1.0  0.72564  0.33998  0.52743  1.0000
  C   C1492     1.0  0.79246  0.34611  0.51443  1.0000
  C   C1493     1.0  0.84324  0.46299  0.70744  1.0000
  N   N144      1.0  0.64915  0.39584  0.49948  1.0000
  C   C1494     1.0  0.86327  0.56051  0.71782  1.0000
  N   N145      1.0  0.74247  0.46829  0.66043  1.0000
  C   C1495     1.0  0.74954  0.47006  0.67382  1.0000
  C   C1496     1.0  0.72457  0.47601  0.66300  1.0000
  C   C1497     1.0  0.74475  0.45048  0.66045  1.0000
  C   C1498     1.0  0.75110  0.47661  0.64434  1.0000
  H   H2358     1.0  0.76298  0.46408  0.67242  1.0000
  H   H2359     1.0  0.74319  0.46421  0.68624  1.0000
  H   H2360     1.0  0.74856  0.48334  0.67389  1.0000
  H   H2361     1.0  0.71893  0.47497  0.65299  1.0000
  H   H2362     1.0  0.71762  0.47000  0.67501  1.0000
  H   H2363     1.0  0.72248  0.48946  0.66303  1.0000
  H   H2364     1.0  0.73979  0.44870  0.65031  1.0000
  H   H2365     1.0  0.73833  0.44376  0.67237  1.0000
  H   H2366     1.0  0.75817  0.44432  0.65859  1.0000
  H   H2367     1.0  0.74641  0.47532  0.63380  1.0000
  H   H2368     1.0  0.76463  0.47114  0.64215  1.0000
  H   H2369     1.0  0.74965  0.49012  0.64366  1.0000
  C   C1499     1.0  0.70505  0.40482  0.49705  1.0000
  S   S600      1.0  0.88404  0.43930  0.72033  1.0000
  C   C1500     1.0  0.94977  0.39821  0.69012  1.0000
  S   S601      1.0  0.62690  0.34378  0.52998  1.0000
  C   C1501     1.0  0.83730  0.55428  0.71718  1.0000
  H   H2370     1.0  0.95486  0.39934  0.71952  1.0000
  S   S602      1.0  0.64872  0.36972  0.54679  1.0000
  C   C1502     1.0  0.78625  0.41426  0.56540  1.0000
  C   C1503     1.0  0.81036  0.40239  0.57763  1.0000
  Fe  Fe300     1.0  0.87929  0.41425  0.72200  1.0000
  H   H2371     1.0  0.70013  0.39387  0.50345  1.0000
  H   H2372     1.0  0.64591  0.37404  0.49351  1.0000
  H   H2373     1.0  0.64741  0.41703  0.50956  1.0000
  Fe  Fe301     1.0  0.64608  0.33706  0.50797  1.0000
  H   H2374     1.0  0.80323  0.37338  0.57735  1.0000
  H   H2375     1.0  0.72438  0.34358  0.55179  1.0000
  H   H2376     1.0  0.87442  0.48741  0.71289  1.0000
  N   N146      1.0  0.82936  0.46362  0.72197  1.0000
  H   H2377     1.0  0.90108  0.50811  0.72629  1.0000
  C   C1504     1.0  0.79728  0.38471  0.56938  1.0000
  S   S603      1.0  0.66746  0.34169  0.51564  1.0000
  H   H2378     1.0  0.78084  0.40844  0.59848  1.0000
  H   H2379     1.0  0.70740  0.36216  0.53116  1.0000
  H   H2380     1.0  0.54311  0.34283  0.55519  1.0000
  S   S604      1.0  0.78825  0.52746  0.73040  1.0000
  C   C1505     1.0  0.83679  0.54453  0.73313  1.0000
  H   H2381     1.0  0.78546  0.38241  0.56802  1.0000
  H   H2382     1.0  0.67173  0.34416  0.56409  1.0000
  H   H2383     1.0  0.86400  0.49694  0.62415  1.0000
  S   S605      1.0  0.93242  0.37228  0.72746  1.0000
  N   N147      1.0  0.79434  0.39965  0.57635  1.0000
  C   C1506     1.0  0.89563  0.48652  0.62764  1.0000
  N   N148      1.0  0.88297  0.47623  0.63193  1.0000
  H   H2384     1.0  0.85999  0.47698  0.62529  1.0000
  C   C1507     1.0  0.86999  0.48421  0.62206  1.0000
  H   H2385     1.0  0.87126  0.50968  0.71009  1.0000
  H   H2386     1.0  0.87522  0.48531  0.60856  1.0000
  C   C1508     1.0  0.96616  0.39545  0.71026  1.0000
  Fe  Fe302     1.0  0.64876  0.34656  0.53861  1.0000
  H   H2387     1.0  0.78903  0.38640  0.60159  1.0000
  H   H2388     1.0  0.81653  0.48786  0.71176  1.0000
  H   H2389     1.0  0.71122  0.35782  0.51089  1.0000
  H   H2390     1.0  0.67290  0.39746  0.50224  1.0000
  H   H2391     1.0  0.78450  0.42591  0.56983  1.0000
  H   H2392     1.0  0.92234  0.65038  0.64196  1.0000
  H   H2393     1.0  0.98202  0.38378  0.68279  1.0000
  N   N149      1.0  0.88067  0.49572  0.73180  1.0000
  H   H2394     1.0  0.81879  0.40434  0.56526  1.0000
  H   H2395     1.0  0.76669  0.33617  0.55153  1.0000
  C   C1509     1.0  0.77804  0.48724  0.72039  1.0000
  C   C1510     1.0  0.78016  0.49839  0.72896  1.0000
  C   C1511     1.0  0.91066  0.63590  0.62405  1.0000
  H   H2396     1.0  0.70364  0.33336  0.54422  1.0000
  H   H2397     1.0  0.79870  0.34135  0.50338  1.0000
  H   H2398     1.0  0.96846  0.38164  0.71249  1.0000
  C   C1512     1.0  0.73365  0.33976  0.54092  1.0000
  H   H2399     1.0  0.80581  0.45614  0.73080  1.0000
  H   H2400     1.0  0.89173  0.49744  0.70604  1.0000
  C   C1513     1.0  0.77436  0.34324  0.54153  1.0000
  H   H2401     1.0  0.85270  0.46962  0.70791  1.0000
  H   H2402     1.0  0.95860  0.42771  0.67809  1.0000
  H   H2403     1.0  0.66534  0.37990  0.51539  1.0000
  C   C1514     1.0  0.87939  0.49761  0.71446  1.0000
  C   C1515     1.0  0.64049  0.40714  0.51101  1.0000
  H   H2404     1.0  0.97789  0.40309  0.66831  1.0000
  C   C1516     1.0  0.71741  0.42716  0.49801  1.0000
  C   C1517     1.0  0.63960  0.38292  0.50183  1.0000
  H   H2405     1.0  0.90419  0.47850  0.72959  1.0000
  H   H2406     1.0  0.77323  0.47632  0.72726  1.0000
  C   C1518     1.0  0.75883  0.40068  0.49107  1.0000
  H   H2407     1.0  0.73294  0.33373  0.50332  1.0000
  H   H2408     1.0  0.94355  0.65473  0.60682  1.0000
  H   H2409     1.0  0.74601  0.39849  0.49628  1.0000
  C   C1519     1.0  0.73842  0.33369  0.51385  1.0000
  H   H2410     1.0  0.88106  0.52158  0.72774  1.0000
  H   H2411     1.0  0.75786  0.41438  0.48810  1.0000
  H   H2412     1.0  0.62694  0.38838  0.49923  1.0000
  C   C1520     1.0  0.71329  0.32927  0.53371  1.0000
  H   H2413     1.0  0.91301  0.65570  0.59386  1.0000
  H   H2414     1.0  0.56782  0.32596  0.56636  1.0000
  H   H2415     1.0  0.53947  0.32589  0.58407  1.0000
  H   H2416     1.0  0.81151  0.48204  0.73394  1.0000
  H   H2417     1.0  0.75434  0.37261  0.48534  1.0000
  Fe  Fe303     1.0  0.77484  0.56338  0.91572  1.0000
  S   S606      1.0  0.77771  0.58698  0.92037  1.0000
  S   S607      1.0  0.75657  0.54974  0.93452  1.0000
  Fe  Fe304     1.0  0.79963  0.56582  0.88287  1.0000
  S   S608      1.0  0.80500  0.58973  0.88498  1.0000
  S   S609      1.0  0.81401  0.55339  0.86128  1.0000
  Fe  Fe305     1.0  0.80487  0.57797  0.91173  1.0000
  S   S610      1.0  0.82164  0.58009  0.92740  1.0000
  Fe  Fe306     1.0  0.77743  0.59687  0.89352  1.0000
  S   S611      1.0  0.76338  0.62302  0.88753  1.0000
  S   S612      1.0  0.80220  0.55325  0.90907  1.0000
  S   S613      1.0  0.77192  0.57404  0.88943  1.0000
  H   H2418     1.0  0.68416  0.59790  0.95412  1.0000
  S   S614      1.0  0.82848  0.64877  0.98016  1.0000
  H   H2419     1.0  0.77694  0.49604  0.74234  1.0000
  S   S615      1.0  0.65380  0.64486  0.95284  1.0000
  S   S616      1.0  0.69184  0.64350  0.95677  1.0000
  Fe  Fe307     1.0  0.67961  0.64080  0.93761  1.0000
  S   S617      1.0  0.68923  0.62052  0.92327  1.0000
  H   H2420     1.0  0.90190  0.35520  0.78400  1.0000
  H   H2421     1.0  0.76308  0.64687  0.94269  1.0000
  H   H2422     1.0  0.85609  0.55254  0.91539  1.0000
  C   C1521     1.0  0.69352  0.59787  0.96113  1.0000
  H   H2423     1.0  0.84999  0.54324  0.87721  1.0000
  H   H2424     1.0  0.88061  0.55686  0.89231  1.0000
  S   S618      1.0  0.89133  0.44072  0.76215  1.0000
  H   H2425     1.0  0.85703  0.58038  0.89877  1.0000
  Fe  Fe308     1.0  0.80912  0.49128  0.78091  1.0000
  S   S619      1.0  0.78342  0.50660  0.78038  1.0000
  S   S620      1.0  0.81430  0.46361  0.78774  1.0000
  Fe  Fe309     1.0  0.82519  0.52099  0.76828  1.0000
  S   S621      1.0  0.80086  0.53868  0.76668  1.0000
  S   S622      1.0  0.84858  0.53067  0.76148  1.0000
  Fe  Fe310     1.0  0.79191  0.52358  0.79157  1.0000
  S   S623      1.0  0.77768  0.53527  0.81356  1.0000
  Fe  Fe311     1.0  0.79543  0.51987  0.75552  1.0000
  H   H2426     1.0  0.51950  0.57874  0.80309  1.0000
  S   S624      1.0  0.81668  0.50705  0.79376  1.0000
  S   S625      1.0  0.82057  0.50331  0.75554  1.0000
  H   H2427     1.0  0.61005  0.64051  0.92414  1.0000
  H   H2428     1.0  0.53148  0.64396  0.95827  1.0000
  H   H2429     1.0  0.81115  0.57996  0.98247  1.0000
  H   H2430     1.0  0.83764  0.58194  0.89355  1.0000
  N   N150      1.0  0.85563  0.55972  0.88940  1.0000
  H   H2431     1.0  0.80030  0.56045  0.78990  1.0000
  H   H2432     1.0  0.91759  0.33835  0.80562  1.0000
  H   H2433     1.0  0.90398  0.34765  0.76557  1.0000
  H   H2434     1.0  0.49804  0.61998  0.78295  1.0000
  H   H2435     1.0  0.50129  0.59816  0.78458  1.0000
  H   H2436     1.0  0.50141  0.60249  0.82677  1.0000
  C   C1522     1.0  0.60964  0.65372  0.92033  1.0000
  H   H2437     1.0  0.52404  0.61735  0.81282  1.0000
  C   C1523     1.0  0.96319  0.34352  0.75726  1.0000
  H   H2438     1.0  0.62692  0.65329  0.93509  1.0000
  H   H2439     1.0  0.68553  0.63552  0.88540  1.0000
  C   C1524     1.0  0.94247  0.37519  0.75448  1.0000
  H   H2440     1.0  0.53610  0.58955  0.79285  1.0000
  C   C1525     1.0  0.54267  0.64918  0.95655  1.0000
  H   H2441     1.0  0.85842  0.48609  0.74243  1.0000
  Fe  Fe312     1.0  0.89591  0.42667  0.74209  1.0000
  H   H2442     1.0  0.85043  0.56385  0.86508  1.0000
  S   S626      1.0  0.88927  0.40206  0.74515  1.0000
  C   C1526     1.0  0.89138  0.47951  0.73715  1.0000
  C   C1527     1.0  0.51389  0.64687  0.84693  1.0000
  C   C1528     1.0  0.96108  0.35285  0.76917  1.0000
  C   C1529     1.0  0.84704  0.55660  0.87785  1.0000
  H   H2443     1.0  0.87817  0.56171  0.87120  1.0000
  C   C1530     1.0  0.85039  0.55003  0.90618  1.0000
  C   C1531     1.0  0.95099  0.36883  0.76757  1.0000
  C   C1532     1.0  0.87380  0.55464  0.88384  1.0000
  H   H2444     1.0  0.87753  0.54119  0.88344  1.0000
  C   C1533     1.0  0.87001  0.44643  0.77004  1.0000
  C   C1534     1.0  0.85905  0.43679  0.76987  1.0000
  C   C1535     1.0  0.84196  0.44167  0.77604  1.0000
  C   C1536     1.0  0.83576  0.45662  0.78159  1.0000
  C   C1537     1.0  0.84672  0.46636  0.78152  1.0000
  C   C1538     1.0  0.86385  0.46106  0.77614  1.0000
  H   H2445     1.0  0.86377  0.42542  0.76527  1.0000
  H   H2446     1.0  0.83352  0.43409  0.77610  1.0000
  H   H2447     1.0  0.84205  0.47783  0.78591  1.0000
  H   H2448     1.0  0.87232  0.46841  0.77651  1.0000
  H   H2449     1.0  0.83669  0.55326  0.91058  1.0000
  H   H2450     1.0  0.72320  0.59036  0.94046  1.0000
  H   H2451     1.0  0.77660  0.58207  0.96290  1.0000
  H   H2452     1.0  0.92117  0.35352  0.76931  1.0000
  H   H2453     1.0  0.85378  0.53644  0.90650  1.0000
  H   H2454     1.0  0.79803  0.57335  0.96357  1.0000
  H   H2455     1.0  0.93669  0.33576  0.79067  1.0000
  C   C1539     1.0  0.80362  0.54833  0.84827  1.0000
  C   C1540     1.0  0.81304  0.54003  0.83557  1.0000
  C   C1541     1.0  0.80528  0.53602  0.82484  1.0000
  C   C1542     1.0  0.78797  0.54021  0.82673  1.0000
  C   C1543     1.0  0.77854  0.54842  0.83949  1.0000
  C   C1544     1.0  0.78631  0.55249  0.85018  1.0000
  H   H2456     1.0  0.82643  0.53665  0.83406  1.0000
  H   H2457     1.0  0.81273  0.52966  0.81517  1.0000
  H   H2458     1.0  0.76514  0.55172  0.84110  1.0000
  H   H2459     1.0  0.77886  0.55888  0.85988  1.0000
  C   C1545     1.0  0.82111  0.60045  0.92903  1.0000
  C   C1546     1.0  0.81734  0.61404  0.91636  1.0000
  C   C1547     1.0  0.81736  0.63011  0.91778  1.0000
  C   C1548     1.0  0.82019  0.63282  0.93225  1.0000
  C   C1549     1.0  0.82373  0.61923  0.94502  1.0000
  C   C1550     1.0  0.82464  0.60306  0.94320  1.0000
  H   H2460     1.0  0.81481  0.61214  0.90528  1.0000
  H   H2461     1.0  0.81511  0.64047  0.90766  1.0000
  H   H2462     1.0  0.82621  0.62118  0.95610  1.0000
  H   H2463     1.0  0.82796  0.59255  0.95286  1.0000
  C   C1551     1.0  0.74247  0.62289  0.89652  1.0000
  C   C1552     1.0  0.73265  0.63582  0.90418  1.0000
  C   C1553     1.0  0.71632  0.63502  0.91258  1.0000
  C   C1554     1.0  0.70961  0.62159  0.91282  1.0000
  C   C1555     1.0  0.71928  0.60888  0.90480  1.0000
  C   C1556     1.0  0.73577  0.60944  0.89683  1.0000
  H   H2464     1.0  0.73774  0.64627  0.90393  1.0000
  H   H2465     1.0  0.70902  0.64481  0.91888  1.0000
  H   H2466     1.0  0.71414  0.59850  0.90489  1.0000
  H   H2467     1.0  0.74319  0.59958  0.89068  1.0000
  C   C1557     1.0  0.85127  0.57762  0.88974  1.0000
  H   H2468     1.0  0.83170  0.55495  0.80399  1.0000
  C   C1558     1.0  0.77553  0.54625  0.95733  1.0000
  C   C1559     1.0  0.76024  0.54546  0.95464  1.0000
  H   H2469     1.0  0.82545  0.45530  0.74841  1.0000
  H   H2470     1.0  0.83331  0.56015  0.88179  1.0000
  H   H2471     1.0  0.85530  0.58533  0.87737  1.0000
  H   H2472     1.0  0.78540  0.54920  0.94691  1.0000
  H   H2473     1.0  0.80451  0.60205  0.97596  1.0000
  N   N151      1.0  0.78693  0.48347  0.83800  1.0000
  C   C1560     1.0  0.80008  0.47115  0.82999  1.0000
  C   C1561     1.0  0.77732  0.47485  0.85330  1.0000
  C   C1562     1.0  0.77569  0.49272  0.82657  1.0000
  C   C1563     1.0  0.79458  0.49523  0.84209  1.0000
  H   H2474     1.0  0.80769  0.47722  0.81846  1.0000
  H   H2475     1.0  0.79477  0.46230  0.82633  1.0000
  H   H2476     1.0  0.80874  0.46377  0.83828  1.0000
  H   H2477     1.0  0.76729  0.48383  0.85961  1.0000
  H   H2478     1.0  0.77135  0.46593  0.85062  1.0000
  H   H2479     1.0  0.78541  0.46774  0.86224  1.0000
  H   H2480     1.0  0.76562  0.50222  0.83212  1.0000
  H   H2481     1.0  0.76982  0.48432  0.82295  1.0000
  H   H2482     1.0  0.78255  0.49952  0.81505  1.0000
  H   H2483     1.0  0.80204  0.50181  0.83081  1.0000
  H   H2484     1.0  0.80299  0.48880  0.85088  1.0000
  H   H2485     1.0  0.78498  0.50499  0.84774  1.0000
  H   H2486     1.0  0.51140  0.63110  0.79918  1.0000
  H   H2487     1.0  0.78549  0.63963  0.90964  1.0000
  C   C1564     1.0  0.71667  0.58194  0.97350  1.0000
  N   N152      1.0  0.51264  0.60522  0.80082  1.0000
  H   H2488     1.0  0.55344  0.63856  0.95785  1.0000
  H   H2489     1.0  0.73172  0.65675  0.95694  1.0000
  N   N153      1.0  0.91614  0.33025  0.78425  1.0000
  H   H2490     1.0  0.64152  0.63867  0.90670  1.0000
  H   H2491     1.0  0.79174  0.59500  0.95520  1.0000
  C   C1565     1.0  0.77819  0.54281  0.97354  1.0000
  H   H2492     1.0  0.66264  0.63207  0.87416  1.0000
  C   C1566     1.0  0.54822  0.65133  0.92704  1.0000
  H   H2493     1.0  0.79560  0.58268  0.78652  1.0000
  C   C1567     1.0  0.74759  0.54145  0.96819  1.0000
  C   C1568     1.0  0.78797  0.58453  0.96515  1.0000
  H   H2494     1.0  0.95625  0.34250  0.73507  1.0000
  H   H2495     1.0  0.93841  0.32550  0.76589  1.0000
  N   N154      1.0  0.70583  0.58204  0.96246  1.0000
  C   C1569     1.0  0.50843  0.64883  0.83225  1.0000
  C   C1570     1.0  0.77214  0.60345  0.98303  1.0000
  C   C1571     1.0  0.95480  0.34990  0.74410  1.0000
  C   C1572     1.0  0.86393  0.49655  0.74248  1.0000
  C   C1573     1.0  0.50734  0.60814  0.78494  1.0000
  H   H2496     1.0  0.72626  0.57028  0.97471  1.0000
  H   H2497     1.0  0.82883  0.54496  0.78915  1.0000
  H   H2498     1.0  0.89238  0.47754  0.75028  1.0000
  C   C1574     1.0  0.65640  0.64510  0.87511  1.0000
  H   H2499     1.0  0.87219  0.55006  0.74054  1.0000
  S   S627      1.0  0.97014  0.34444  0.78659  1.0000
  H   H2500     1.0  0.85539  0.50839  0.73837  1.0000
  C   C1575     1.0  0.92532  0.33059  0.79662  1.0000
  H   H2501     1.0  0.65701  0.64243  0.91531  1.0000
  C   C1576     1.0  0.77264  0.64711  0.90999  1.0000
  H   H2502     1.0  0.54068  0.65569  0.96686  1.0000
  H   H2503     1.0  0.55912  0.64075  0.92753  1.0000
  S   S628      1.0  0.58821  0.65386  0.90122  1.0000
  C   C1577     1.0  0.71594  0.58038  0.94585  1.0000
  C   C1578     1.0  0.52027  0.61894  0.80084  1.0000
  H   H2504     1.0  0.84574  0.55538  0.78418  1.0000
  H   H2505     1.0  0.88773  0.50910  0.74621  1.0000
  H   H2506     1.0  0.70801  0.58121  0.93702  1.0000
  H   H2507     1.0  0.84134  0.44164  0.73699  1.0000
  H   H2508     1.0  0.93429  0.38731  0.75361  1.0000
  H   H2509     1.0  0.94942  0.37612  0.77675  1.0000
  H   H2510     1.0  0.66038  0.65330  0.86302  1.0000
  C   C1579     1.0  0.84930  0.54304  0.74160  1.0000
  C   C1580     1.0  0.83565  0.45497  0.73722  1.0000
  H   H2511     1.0  0.73587  0.54054  0.96615  1.0000
  H   H2512     1.0  0.72319  0.59249  0.96880  1.0000
  H   H2513     1.0  0.68669  0.60032  0.97347  1.0000
  H   H2514     1.0  0.76399  0.63856  0.91648  1.0000
  N   N155      1.0  0.82172  0.57158  0.78359  1.0000
  C   C1581     1.0  0.82633  0.58594  0.78662  1.0000
  C   C1582     1.0  0.83247  0.55607  0.79057  1.0000
  C   C1583     1.0  0.82399  0.57298  0.76557  1.0000
  C   C1584     1.0  0.80415  0.57131  0.79163  1.0000
  H   H2515     1.0  0.81850  0.59786  0.78144  1.0000
  H   H2516     1.0  0.83955  0.58643  0.78081  1.0000
  H   H2517     1.0  0.82470  0.58531  0.80012  1.0000
  H   H2518     1.0  0.89307  0.32976  0.80194  1.0000
  H   H2519     1.0  0.86428  0.49595  0.75557  1.0000
  H   H2520     1.0  0.50827  0.63939  0.85824  1.0000
  H   H2521     1.0  0.82091  0.56222  0.76280  1.0000
  H   H2522     1.0  0.83713  0.57320  0.75911  1.0000
  H   H2523     1.0  0.81597  0.58443  0.75983  1.0000
  S   S629      1.0  0.79103  0.64729  0.97577  1.0000
  H   H2524     1.0  0.77086  0.65138  0.89697  1.0000
  H   H2525     1.0  0.72494  0.56828  0.94626  1.0000
  H   H2526     1.0  0.68916  0.56752  0.96116  1.0000
  C   C1585     1.0  0.94417  0.36557  0.74291  1.0000
  H   H2527     1.0  0.69963  0.60850  0.95466  1.0000
  H   H2528     1.0  0.80198  0.57045  0.80523  1.0000
  H   H2529     1.0  0.51800  0.60886  0.77423  1.0000
  H   H2530     1.0  0.77585  0.61434  0.97367  1.0000
  H   H2531     1.0  0.97127  0.33137  0.75820  1.0000
  C   C1586     1.0  0.91049  0.34739  0.77542  1.0000
  H   H2532     1.0  0.53146  0.61990  0.79076  1.0000
  S   S630      1.0  0.81901  0.65327  0.93411  1.0000
  Fe  Fe313     1.0  0.66573  0.65067  0.97060  1.0000
  H   H2533     1.0  0.68898  0.56924  0.98168  1.0000
  H   H2534     1.0  0.78477  0.64751  0.93588  1.0000
  C   C1587     1.0  0.49801  0.60440  0.81456  1.0000
  H   H2535     1.0  0.79015  0.54303  0.97556  1.0000
  H   H2536     1.0  0.70608  0.55595  0.97115  1.0000
  C   C1588     1.0  0.65496  0.63865  0.90457  1.0000
  N   N156      1.0  0.78515  0.58823  0.98175  1.0000
  H   H2537     1.0  0.52906  0.58683  0.81491  1.0000
  C   C1589     1.0  0.52488  0.58936  0.80300  1.0000
  H   H2538     1.0  0.53709  0.64646  0.92770  1.0000
  C   C1590     1.0  0.69713  0.56807  0.96939  1.0000
  H   H2539     1.0  0.66191  0.62561  0.90473  1.0000
  H   H2540     1.0  0.68208  0.65187  0.89612  1.0000
  H   H2541     1.0  0.84529  0.46067  0.73890  1.0000
  H   H2542     1.0  0.64275  0.64607  0.87692  1.0000
  H   H2543     1.0  0.68327  0.65675  0.87419  1.0000
  H   H2544     1.0  0.82679  0.53800  0.73866  1.0000
  C   C1591     1.0  0.77196  0.65492  0.93542  1.0000
  N   N157      1.0  0.66046  0.64986  0.88882  1.0000
  H   H2545     1.0  0.76014  0.60194  0.98129  1.0000
  C   C1592     1.0  0.67862  0.64847  0.88594  1.0000
  H   H2546     1.0  0.53086  0.65276  0.85842  1.0000
  H   H2547     1.0  0.88650  0.46905  0.73600  1.0000
  C   C1593     1.0  0.52668  0.65443  0.84706  1.0000
  H   H2548     1.0  0.57187  0.65697  0.93913  1.0000
  H   H2549     1.0  0.90350  0.76226  0.11949  1.0000
  H   H2550     1.0  0.90924  0.73352  0.14890  1.0000
  H   H2551     1.0  0.89010  0.74764  0.14605  1.0000
  Fe  Fe314     1.0  0.92980  0.78136  0.13871  1.0000
  S   S631      1.0  0.94699  0.78492  0.11405  1.0000
  S   S632      1.0  0.92919  0.75477  0.15119  1.0000
  Fe  Fe315     1.0  0.91668  0.81845  0.13621  1.0000
  S   S633      1.0  0.93238  0.82487  0.11085  1.0000
  S   S634      1.0  0.90009  0.83830  0.14978  1.0000
  Fe  Fe316     1.0  0.92540  0.80335  0.10548  1.0000
  S   S635      1.0  0.92398  0.80110  0.08016  1.0000
  Fe  Fe317     1.0  0.95235  0.80578  0.12173  1.0000
  S   S636      1.0  0.97785  0.81072  0.11745  1.0000
  S   S637      1.0  0.90761  0.79862  0.12976  1.0000
  S   S638      1.0  0.93724  0.80052  0.14743  1.0000
  S   S639      1.0  0.98899  0.77616  0.03946  1.0000
  S   S640      1.0  0.98199  0.68072  0.11039  1.0000
  H   H2552     1.0  0.77094  0.71384  0.00548  1.0000
  H   H2553     1.0  0.89135  0.72559  0.14988  1.0000
  Fe  Fe318     1.0  0.91081  0.69664  0.06579  1.0000
  S   S641      1.0  0.92304  0.69627  0.03948  1.0000
  S   S642      1.0  0.91176  0.67227  0.08391  1.0000
  Fe  Fe319     1.0  0.89657  0.73327  0.05789  1.0000
  S   S643      1.0  0.90726  0.73578  0.03042  1.0000
  S   S644      1.0  0.88225  0.75261  0.07289  1.0000
  Fe  Fe320     1.0  0.89880  0.71178  0.03317  1.0000
  S   S645      1.0  0.89126  0.69996  0.01556  1.0000
  Fe  Fe321     1.0  0.93031  0.71986  0.03906  1.0000
  S   S646      1.0  0.95760  0.72049  0.02937  1.0000
  S   S647      1.0  0.88626  0.71084  0.05989  1.0000
  S   S648      1.0  0.92006  0.71876  0.06613  1.0000
  H   H2554     1.0  0.85146  0.67472  0.05886  1.0000
  S   S649      1.0  0.92450  0.91272  0.20836  1.0000
  H   H2555     1.0  0.95249  0.73728  0.11097  1.0000
  Fe  Fe322     1.0  0.88486  0.92705  0.18993  1.0000
  S   S650      1.0  0.91026  0.92787  0.17445  1.0000
  S   S651      1.0  0.86306  0.93741  0.17755  1.0000
  Fe  Fe323     1.0  0.91754  0.90249  0.18964  1.0000
  S   S652      1.0  0.93360  0.88274  0.17558  1.0000
  Fe  Fe324     1.0  0.91424  0.93816  0.19455  1.0000
  S   S653      1.0  0.92186  0.96317  0.18757  1.0000
  S   S654      1.0  0.89164  0.90098  0.20385  1.0000
  S   S655      1.0  0.88824  0.93878  0.20902  1.0000
  C   C1594     1.0  0.86490  0.95763  0.16704  1.0000
  C   C1595     1.0  0.87788  0.96409  0.16841  1.0000
  H   H2556     1.0  0.92300  0.74879  0.12192  1.0000
  H   H2557     1.0  0.88680  0.95676  0.17571  1.0000
  H   H2558     1.0  0.84308  0.96267  0.15673  1.0000
  H   H2559     1.0  0.85593  0.71640  0.02363  1.0000
  C   C1596     1.0  0.92367  0.97340  0.20237  1.0000
  C   C1597     1.0  0.93463  0.96595  0.21317  1.0000
  H   H2560     1.0  0.91825  0.72039  0.10875  1.0000
  H   H2561     1.0  0.95546  0.77568  0.03902  1.0000
  H   H2562     1.0  0.97661  0.83631  0.06598  1.0000
  H   H2563     1.0  0.92590  0.71823  0.12719  1.0000
  C   C1598     1.0  0.96607  0.73662  0.03122  1.0000
  C   C1599     1.0  0.95600  0.75157  0.03490  1.0000
  C   C1600     1.0  0.96325  0.76405  0.03641  1.0000
  C   C1601     1.0  0.98050  0.76143  0.03489  1.0000
  H   H2564     1.0  0.98522  0.73963  0.06387  1.0000
  C   C1602     1.0  0.98338  0.73428  0.02904  1.0000
  H   H2565     1.0  0.94267  0.75362  0.03628  1.0000
  C   C1603     1.0  0.84380  0.69321  0.00312  1.0000
  H   H2566     1.0  0.85517  0.96071  0.20034  1.0000
  H   H2567     1.0  0.98698  0.72115  0.07947  1.0000
  H   H2568     1.0  0.94261  0.82797  0.07219  1.0000
  C   C1604     1.0  0.92998  0.68102  0.10159  1.0000
  C   C1605     1.0  0.93856  0.67777  0.11449  1.0000
  H   H2569     1.0  0.93014  0.69234  0.09237  1.0000
  H   H2570     1.0  0.98334  0.66664  0.03160  1.0000
  C   C1606     1.0  0.90995  0.84938  0.15792  1.0000
  C   C1607     1.0  0.90048  0.85865  0.16981  1.0000
  C   C1608     1.0  0.90771  0.86852  0.17569  1.0000
  C   C1609     1.0  0.92447  0.86928  0.16964  1.0000
  C   C1610     1.0  0.93404  0.85968  0.15803  1.0000
  C   C1611     1.0  0.92684  0.84974  0.15220  1.0000
  H   H2571     1.0  0.88750  0.85819  0.17451  1.0000
  H   H2572     1.0  0.90027  0.87553  0.18486  1.0000
  H   H2573     1.0  0.94705  0.86007  0.15336  1.0000
  H   H2574     1.0  0.93430  0.84257  0.14310  1.0000
  C   C1612     1.0  0.89403  0.76583  0.07511  1.0000
  C   C1613     1.0  0.90954  0.76694  0.06478  1.0000
  C   C1614     1.0  0.91858  0.77784  0.06645  1.0000
  C   C1615     1.0  0.91252  0.78716  0.07887  1.0000
  C   C1616     1.0  0.89721  0.78572  0.08952  1.0000
  C   C1617     1.0  0.88786  0.77529  0.08745  1.0000
  H   H2575     1.0  0.91428  0.75987  0.05509  1.0000
  H   H2576     1.0  0.93019  0.77922  0.05795  1.0000
  H   H2577     1.0  0.89229  0.79315  0.09892  1.0000
  H   H2578     1.0  0.87573  0.77469  0.09529  1.0000
  H   H2579     1.0  0.95928  0.68283  0.07678  1.0000
  H   H2580     1.0  0.95811  0.79901  0.07984  1.0000
  H   H2581     1.0  0.83075  0.71256  0.01663  1.0000
  C   C1618     1.0  0.84272  0.70500  0.01249  1.0000
  C   C1619     1.0  0.92148  0.66940  0.10055  1.0000
  H   H2582     1.0  0.81633  0.94933  0.22796  1.0000
  H   H2583     1.0  0.99131  0.72287  0.02593  1.0000
  C   C1620     1.0  0.99057  0.74658  0.03098  1.0000
  H   H2584     1.0  0.89522  0.66462  0.03592  1.0000
  H   H2585     1.0  0.94575  0.96920  0.23184  1.0000
  C   C1621     1.0  0.94896  0.74238  0.14607  1.0000
  C   C1622     1.0  0.95060  0.72546  0.14665  1.0000
  C   C1623     1.0  0.96607  0.71595  0.14059  1.0000
  C   C1624     1.0  0.97991  0.72334  0.13407  1.0000
  C   C1625     1.0  0.97841  0.74004  0.13420  1.0000
  C   C1626     1.0  0.96295  0.74954  0.14020  1.0000
  H   H2586     1.0  0.93986  0.71982  0.15138  1.0000
  H   H2587     1.0  0.96715  0.70305  0.14053  1.0000
  H   H2588     1.0  0.83060  0.97354  0.18577  1.0000
  H   H2589     1.0  0.96189  0.76245  0.14028  1.0000
  C   C1627     1.0  0.96565  0.80040  0.06705  1.0000
  C   C1628     1.0  0.85943  0.68358  0.99789  1.0000
  C   C1629     1.0  0.87374  0.68597  0.00169  1.0000
  C   C1630     1.0  0.87268  0.69781  0.01098  1.0000
  H   H2590     1.0  0.88717  0.90881  0.11782  1.0000
  H   H2591     1.0  0.90842  0.70964  0.12828  1.0000
  H   H2592     1.0  0.86562  0.90914  0.16182  1.0000
  H   H2593     1.0  0.96886  0.72005  0.10633  1.0000
  H   H2594     1.0  0.91523  0.75125  0.10349  1.0000
  H   H2595     1.0  0.87942  0.75058  0.12036  1.0000
  H   H2596     1.0  0.67788  0.67648  0.01988  1.0000
  C   C1631     1.0  0.97758  0.81898  0.04321  1.0000
  H   H2597     1.0  0.95937  0.79603  0.05953  1.0000
  C   C1632     1.0  0.87896  0.90277  0.15974  1.0000
  H   H2598     1.0  0.87711  0.67768  0.07613  1.0000
  C   C1633     1.0  0.82292  0.96804  0.19754  1.0000
  H   H2599     1.0  0.97195  0.81471  0.03504  1.0000
  H   H2600     1.0  0.78478  0.73468  0.00918  1.0000
  C   C1634     1.0  0.86409  0.67566  0.05136  1.0000
  C   C1635     1.0  0.97881  0.74902  0.09220  1.0000
  H   H2601     1.0  0.94796  0.67487  0.06657  1.0000
  C   C1636     1.0  0.85701  0.70722  0.01651  1.0000
  C   C1637     1.0  0.88076  0.90451  0.13075  1.0000
  H   H2602     1.0  0.88577  0.67862  0.99730  1.0000
  C   C1638     1.0  0.99290  0.79315  0.11351  1.0000
  H   H2603     1.0  0.94401  0.82441  0.05212  1.0000
  C   C1639     1.0  0.95794  0.68189  0.06447  1.0000
  H   H2604     1.0  0.98787  0.81535  0.07146  1.0000
  H   H2605     1.0  0.99022  0.81096  0.04320  1.0000
  H   H2606     1.0  0.72316  0.66728  0.00283  1.0000
  C   C1640     1.0  0.83139  0.98466  0.21158  1.0000
  C   C1641     1.0  0.78069  0.71247  0.99412  1.0000
  H   H2607     1.0  0.96998  0.72710  0.06871  1.0000
  H   H2608     1.0  0.91131  0.90298  0.15042  1.0000
  C   C1642     1.0  0.88603  0.92696  0.13976  1.0000
  H   H2609     1.0  0.87563  0.96461  0.23393  1.0000
  H   H2610     1.0  0.87942  0.88922  0.16224  1.0000
  C   C1643     1.0  0.84600  0.95636  0.21145  1.0000
  C   C1644     1.0  0.99247  0.78554  0.10104  1.0000
  H   H2611     1.0  0.82258  0.95533  0.19667  1.0000
  N   N158      1.0  0.88787  0.90875  0.14280  1.0000
  H   H2612     1.0  0.94150  0.95334  0.21314  1.0000
  C   C1645     1.0  0.95958  0.73051  0.10095  1.0000
  H   H2613     1.0  0.98852  0.68449  0.06489  1.0000
  N   N159      1.0  0.82960  0.96777  0.21197  1.0000
  H   H2614     1.0  0.97182  0.75609  0.10201  1.0000
  H   H2615     1.0  0.89546  0.67830  0.04848  1.0000
  Fe  Fe325     1.0  0.97524  0.66185  0.13327  1.0000
  N   N160      1.0  0.90311  0.73624  0.12530  1.0000
  C   C1646     1.0  0.88814  0.73864  0.11852  1.0000
  C   C1647     1.0  0.91163  0.75019  0.11714  1.0000
  C   C1648     1.0  0.91445  0.72044  0.12223  1.0000
  C   C1649     1.0  0.89820  0.73569  0.14331  1.0000
  H   H2616     1.0  0.88125  0.72847  0.12449  1.0000
  H   H2617     1.0  0.89140  0.73892  0.10498  1.0000
  H   H2618     1.0  0.97798  0.79192  0.06740  1.0000
  H   H2619     1.0  0.98913  0.74577  0.12935  1.0000
  C   C1650     1.0  0.95513  0.75499  0.07951  1.0000
  N   N161      1.0  0.96782  0.74160  0.08671  1.0000
  C   C1651     1.0  0.97788  0.73189  0.07416  1.0000
  H   H2620     1.0  0.94701  0.75001  0.07451  1.0000
  H   H2621     1.0  0.96181  0.66582  0.04016  1.0000
  C   C1652     1.0  0.87569  0.66511  0.07596  1.0000
  H   H2622     1.0  0.98484  0.75775  0.08171  1.0000
  H   H2623     1.0  0.88198  0.89081  0.13277  1.0000
  H   H2624     1.0  0.86363  0.91222  0.23155  1.0000
  Fe  Fe326     1.0  0.89791  0.91281  0.22144  1.0000
  H   H2625     1.0  0.94703  0.76228  0.08880  1.0000
  H   H2626     1.0  0.87270  0.93342  0.14130  1.0000
  S   S656      1.0  0.82533  0.69161  0.99788  1.0000
  H   H2627     1.0  0.78256  0.98940  0.22115  1.0000
  H   H2628     1.0  0.90755  0.88702  0.14255  1.0000
  H   H2629     1.0  0.91295  0.90539  0.12859  1.0000
  C   C1653     1.0  0.93712  0.97501  0.22365  1.0000
  H   H2630     1.0  0.96101  0.76391  0.06912  1.0000
  H   H2631     1.0  0.95089  0.72506  0.09726  1.0000
  H   H2632     1.0  0.94522  0.68667  0.11523  1.0000
  H   H2633     1.0  0.98222  0.78984  0.09474  1.0000
  H   H2634     1.0  0.96787  0.82224  0.08364  1.0000
  N   N162      1.0  0.96729  0.81779  0.06013  1.0000
  C   C1654     1.0  0.97528  0.82318  0.07072  1.0000
  C   C1655     1.0  0.91514  0.98990  0.20226  1.0000
  H   H2635     1.0  0.79103  0.70225  0.99784  1.0000
  H   H2636     1.0  0.86055  0.67454  0.99059  1.0000
  C   C1656     1.0  0.90568  0.90072  0.14099  1.0000
  H   H2637     1.0  0.88445  0.90510  0.16921  1.0000
  H   H2638     1.0  0.86730  0.91031  0.13186  1.0000
  H   H2639     1.0  0.86570  0.68855  0.05003  1.0000
  H   H2640     1.0  0.89130  0.93053  0.14865  1.0000
  C   C1657     1.0  0.85317  0.96758  0.15784  1.0000
  H   H2641     1.0  0.70659  0.68046  0.01408  1.0000
  H   H2642     1.0  0.83607  0.98499  0.22247  1.0000
  H   H2643     1.0  0.89247  0.93199  0.12706  1.0000
  H   H2644     1.0  0.84528  0.94363  0.21097  1.0000
  N   N163      1.0  0.87719  0.66321  0.05888  1.0000
  H   H2645     1.0  0.97905  0.83194  0.03744  1.0000
  C   C1658     1.0  0.87920  0.98038  0.16067  1.0000
  H   H2646     1.0  0.88926  0.98517  0.16196  1.0000
  C   C1659     1.0  0.97160  0.67282  0.03887  1.0000
  H   H2647     1.0  0.81006  0.97565  0.19816  1.0000
  H   H2648     1.0  0.95356  0.69466  0.05769  1.0000
  H   H2649     1.0  0.99521  0.66848  0.21366  1.0000
  C   C1660     1.0  0.68161  0.66885  0.01024  1.0000
  H   H2650     1.0  0.98886  0.73938  0.09732  1.0000
  S   S657      1.0  0.98864  0.66919  0.14879  1.0000
  C   C1661     1.0  0.89369  0.66570  0.04897  1.0000
  H   H2651     1.0  0.84010  0.98931  0.20013  1.0000
  N   N164      1.0  0.69936  0.66055  0.00831  1.0000
  H   H2652     1.0  0.86342  0.66330  0.08385  1.0000
  C   C1662     1.0  0.95062  0.82848  0.05957  1.0000
  H   H2653     1.0  0.79844  0.74463  0.99182  1.0000
  N   N165      1.0  0.78650  0.72808  0.98603  1.0000
  H   H2654     1.0  0.76251  0.74351  0.99283  1.0000
  C   C1663     1.0  0.85419  0.98414  0.15049  1.0000
  H   H2655     1.0  0.95132  0.84169  0.05412  1.0000
  H   H2656     1.0  0.98313  0.69626  0.04559  1.0000
  H   H2657     1.0  0.67346  0.65963  0.01397  1.0000
  N   N166      1.0  0.97380  0.67373  0.05519  1.0000
  S   S658      1.0  0.79434  0.66463  0.00468  1.0000
  H   H2658     1.0  0.97698  0.67674  0.19296  1.0000
  H   H2659     1.0  0.70788  0.68204  0.99244  1.0000
  C   C1664     1.0  0.98662  0.68345  0.05283  1.0000
  H   H2660     1.0  0.86442  0.67405  0.03875  1.0000
  C   C1665     1.0  0.97443  0.66396  0.19696  1.0000
  Fe  Fe327     1.0  0.81662  0.67361  0.98746  1.0000
  S   S659      1.0  0.75552  0.68658  0.98475  1.0000
  C   C1666     1.0  0.70968  0.67314  0.00424  1.0000
  H   H2661     1.0  0.96777  0.68543  0.03137  1.0000
  C   C1667     1.0  0.79390  0.73290  0.99750  1.0000
  H   H2662     1.0  0.80473  0.72318  0.00098  1.0000
  H   H2663     1.0  0.80571  0.97028  0.22848  1.0000
  H   H2664     1.0  0.85102  0.95523  0.22258  1.0000
  H   H2665     1.0  0.90577  0.95312  0.22716  1.0000
  H   H2666     1.0  0.67878  0.67712  0.99844  1.0000
  H   H2667     1.0  0.77535  0.70829  0.98570  1.0000
  C   C1668     1.0  0.81815  0.96196  0.22736  1.0000
  H   H2668     1.0  0.96306  0.66423  0.20695  1.0000
  C   C1669     1.0  0.93822  0.66313  0.12661  1.0000
  S   S660      1.0  0.94895  0.65868  0.14276  1.0000
  H   H2669     1.0  0.97145  0.66101  0.18622  1.0000
  Fe  Fe328     1.0  0.70865  0.91368  0.42648  1.0000
  S   S661      1.0  0.72397  0.89016  0.43816  1.0000
  S   S662      1.0  0.68598  0.92570  0.44271  1.0000
  Fe  Fe329     1.0  0.72892  0.91217  0.39208  1.0000
  S   S663      1.0  0.74599  0.88835  0.40077  1.0000
  S   S664      1.0  0.73316  0.92173  0.36449  1.0000
  Fe  Fe330     1.0  0.72301  0.88030  0.41672  1.0000
  S   S665      1.0  0.72143  0.85346  0.42270  1.0000
  Fe  Fe331     1.0  0.74567  0.90000  0.42147  1.0000
  S   S666      1.0  0.76834  0.89575  0.43202  1.0000
  S   S667      1.0  0.70572  0.90301  0.40624  1.0000
  S   S668      1.0  0.73052  0.92476  0.41160  1.0000
  H   H2670     1.0  0.80251  0.89092  0.37857  1.0000
  Fe  Fe332     1.0  0.64997  0.81626  0.45374  1.0000
  S   S669      1.0  0.66343  0.79300  0.44495  1.0000
  S   S670      1.0  0.64938  0.84008  0.43481  1.0000
  S   S671      1.0  0.66365  0.81121  0.47416  1.0000
  S   S672      1.0  0.82105  0.98005  0.26524  1.0000
  S   S673      1.0  0.78521  0.97321  0.28891  1.0000
  S   S674      1.0  0.62810  0.80577  0.46958  1.0000
  H   H2671     1.0  0.67847  0.89415  0.45335  1.0000
  S   S675      1.0  0.79533  0.81840  0.45022  1.0000
  H   H2672     1.0  0.78054  0.89440  0.37967  1.0000
  S   S676      1.0  0.51590  0.78463  0.30399  1.0000
  H   H2673     1.0  0.60382  0.80893  0.40845  1.0000
  S   S677      1.0  0.82020  0.95552  0.30241  1.0000
  H   H2674     1.0  0.75635  0.86096  0.48087  1.0000
  C   C1670     1.0  0.58431  0.76780  0.45164  1.0000
  Fe  Fe333     1.0  0.81021  0.95805  0.27981  1.0000
  S   S678      1.0  0.81335  0.93754  0.26663  1.0000
  C   C1671     1.0  0.84506  0.81518  0.47763  1.0000
  Fe  Fe334     1.0  0.55727  0.74783  0.41731  1.0000
  S   S679      1.0  0.57352  0.73755  0.39538  1.0000
  S   S680      1.0  0.56551  0.75588  0.43717  1.0000
  Fe  Fe335     1.0  0.52505  0.74527  0.40816  1.0000
  S   S681      1.0  0.53908  0.73504  0.38582  1.0000
  H   H2675     1.0  0.87395  0.94479  0.24713  1.0000
  Fe  Fe336     1.0  0.55659  0.71944  0.40197  1.0000
  S   S682      1.0  0.56354  0.69219  0.40179  1.0000
  Fe  Fe337     1.0  0.55432  0.75411  0.38125  1.0000
  S   S683      1.0  0.56130  0.77025  0.35630  1.0000
  S   S684      1.0  0.54152  0.72829  0.42499  1.0000
  S   S685      1.0  0.53912  0.76577  0.40253  1.0000
  H   H2676     1.0  0.58477  0.72567  0.42647  1.0000
  H   H2677     1.0  0.58409  0.70657  0.42159  1.0000
  S   S686      1.0  0.51415  0.68754  0.28887  1.0000
  H   H2678     1.0  0.77103  0.93758  0.38580  1.0000
  S   S687      1.0  0.63374  0.76696  0.44740  1.0000
  H   H2679     1.0  0.54389  0.73786  0.32477  1.0000
  H   H2680     1.0  0.75419  0.82939  0.44051  1.0000
  H   H2681     1.0  0.74668  0.88001  0.46900  1.0000
  H   H2682     1.0  0.74816  0.98711  0.29446  1.0000
  H   H2683     1.0  0.50475  0.76847  0.37626  1.0000
  C   C1672     1.0  0.59912  0.77040  0.45422  1.0000
  C   C1673     1.0  0.77253  0.92384  0.38872  1.0000
  Fe  Fe338     1.0  0.82917  0.97881  0.28848  1.0000
  H   H2684     1.0  0.83066  0.78974  0.48007  1.0000
  H   H2685     1.0  0.60813  0.68421  0.44356  1.0000
  C   C1674     1.0  0.54907  0.77304  0.34167  1.0000
  C   C1675     1.0  0.55283  0.78343  0.32621  1.0000
  C   C1676     1.0  0.54273  0.78670  0.31464  1.0000
  C   C1677     1.0  0.52863  0.77980  0.31855  1.0000
  C   C1678     1.0  0.52507  0.76909  0.33387  1.0000
  C   C1679     1.0  0.53530  0.76565  0.34537  1.0000
  H   H2686     1.0  0.56351  0.78912  0.32322  1.0000
  H   H2687     1.0  0.54568  0.79485  0.30276  1.0000
  H   H2688     1.0  0.51460  0.76324  0.33681  1.0000
  H   H2689     1.0  0.53236  0.75754  0.35717  1.0000
  H   H2690     1.0  0.73447  0.82337  0.44658  1.0000
  H   H2691     1.0  0.51903  0.67002  0.26188  1.0000
  H   H2692     1.0  0.52564  0.68025  0.36614  1.0000
  C   C1680     1.0  0.67118  0.87172  0.48102  1.0000
  Fe  Fe339     1.0  0.52699  0.66760  0.30691  1.0000
  C   C1681     1.0  0.87589  0.95729  0.24671  1.0000
  H   H2693     1.0  0.89534  0.98001  0.23662  1.0000
  H   H2694     1.0  0.81468  0.91343  0.38118  1.0000
  H   H2695     1.0  0.80373  0.91594  0.35595  1.0000
  H   H2696     1.0  0.77045  0.91982  0.40241  1.0000
  S   S688      1.0  0.88995  0.90701  0.24908  1.0000
  C   C1682     1.0  0.86837  0.91364  0.25466  1.0000
  C   C1683     1.0  0.86135  0.91812  0.27001  1.0000
  C   C1684     1.0  0.84443  0.92544  0.27373  1.0000
  C   C1685     1.0  0.83433  0.92759  0.26245  1.0000
  H   H2697     1.0  0.56276  0.70120  0.44691  1.0000
  C   C1686     1.0  0.67600  0.91892  0.47628  1.0000
  H   H2698     1.0  0.86906  0.91630  0.27886  1.0000
  H   H2699     1.0  0.83914  0.92912  0.28548  1.0000
  C   C1687     1.0  0.90561  0.94719  0.24039  1.0000
  C   C1688     1.0  0.54176  0.71554  0.29792  1.0000
  C   C1689     1.0  0.61444  0.76489  0.44429  1.0000
  C   C1690     1.0  0.61462  0.75719  0.43147  1.0000
  C   C1691     1.0  0.59977  0.75496  0.42863  1.0000
  C   C1692     1.0  0.58449  0.76005  0.43887  1.0000
  C   C1693     1.0  0.79150  0.92200  0.36255  1.0000
  H   H2700     1.0  0.58926  0.72589  0.45392  1.0000
  H   H2701     1.0  0.62638  0.75288  0.42368  1.0000
  H   H2702     1.0  0.60022  0.74905  0.41871  1.0000
  C   C1694     1.0  0.56523  0.68431  0.35024  1.0000
  H   H2703     1.0  0.51861  0.80818  0.36755  1.0000
  H   H2704     1.0  0.80140  0.93297  0.38449  1.0000
  C   C1695     1.0  0.74521  0.93694  0.35614  1.0000
  C   C1696     1.0  0.74586  0.94788  0.36553  1.0000
  C   C1697     1.0  0.75662  0.95903  0.35912  1.0000
  C   C1698     1.0  0.76674  0.95928  0.34332  1.0000
  C   C1699     1.0  0.76564  0.94881  0.33365  1.0000
  C   C1700     1.0  0.75478  0.93772  0.34003  1.0000
  H   H2705     1.0  0.73819  0.94761  0.37781  1.0000
  H   H2706     1.0  0.75735  0.96725  0.36656  1.0000
  H   H2707     1.0  0.77347  0.94888  0.32146  1.0000
  H   H2708     1.0  0.75421  0.92934  0.33269  1.0000
  C   C1701     1.0  0.77672  0.87439  0.43665  1.0000
  C   C1702     1.0  0.77721  0.86424  0.42595  1.0000
  C   C1703     1.0  0.78343  0.84711  0.42992  1.0000
  C   C1704     1.0  0.78864  0.83998  0.44489  1.0000
  C   C1705     1.0  0.78817  0.85010  0.45563  1.0000
  C   C1706     1.0  0.78256  0.86735  0.45132  1.0000
  H   H2709     1.0  0.57099  0.71242  0.36923  1.0000
  S   S689      1.0  0.49710  0.75048  0.41080  1.0000
  H   H2710     1.0  0.79225  0.84471  0.46717  1.0000
  H   H2711     1.0  0.78232  0.87517  0.45958  1.0000
  C   C1707     1.0  0.70166  0.84981  0.42440  1.0000
  C   C1708     1.0  0.68891  0.86240  0.41873  1.0000
  C   C1709     1.0  0.67293  0.85927  0.42118  1.0000
  C   C1710     1.0  0.66973  0.84357  0.42939  1.0000
  C   C1711     1.0  0.68267  0.83093  0.43453  1.0000
  C   C1712     1.0  0.69855  0.83403  0.43207  1.0000
  H   H2712     1.0  0.69130  0.87454  0.41251  1.0000
  H   H2713     1.0  0.66300  0.86910  0.41709  1.0000
  H   H2714     1.0  0.68053  0.81870  0.44056  1.0000
  H   H2715     1.0  0.70831  0.82418  0.43644  1.0000
  C   C1713     1.0  0.83659  0.79545  0.46739  1.0000
  H   H2716     1.0  0.90458  0.93413  0.24192  1.0000
  C   C1714     1.0  0.68891  0.92260  0.46292  1.0000
  C   C1715     1.0  0.70416  0.92318  0.46585  1.0000
  C   C1716     1.0  0.79016  0.89755  0.38436  1.0000
  H   H2717     1.0  0.65186  0.85501  0.47468  1.0000
  H   H2718     1.0  0.71412  0.92619  0.45554  1.0000
  C   C1717     1.0  0.59493  0.71240  0.45500  1.0000
  H   H2719     1.0  0.88081  0.95331  0.27734  1.0000
  Fe  Fe340     1.0  0.64227  0.78176  0.46168  1.0000
  H   H2720     1.0  0.60350  0.71041  0.42281  1.0000
  H   H2721     1.0  0.64972  0.80513  0.39839  1.0000
  H   H2722     1.0  0.71648  0.88938  0.47522  1.0000
  C   C1718     1.0  0.56887  0.69874  0.35216  1.0000
  H   H2723     1.0  0.86793  0.77848  0.46815  1.0000
  N   N167      1.0  0.49867  0.79496  0.37415  1.0000
  N   N168      1.0  0.50053  0.68666  0.37954  1.0000
  C   C1719     1.0  0.59001  0.71209  0.42851  1.0000
  C   C1720     1.0  0.89430  0.97305  0.24966  1.0000
  H   H2724     1.0  0.57262  0.77172  0.45972  1.0000
  H   H2725     1.0  0.53639  0.65812  0.23772  1.0000
  N   N169      1.0  0.78907  0.91568  0.38065  1.0000
  C   C1721     1.0  0.56404  0.68914  0.38200  1.0000
  H   H2726     1.0  0.74818  0.78571  0.45230  1.0000
  N   N170      1.0  0.89177  0.95614  0.25137  1.0000
  C   C1722     1.0  0.52540  0.71661  0.32539  1.0000
  H   H2727     1.0  0.86930  0.81453  0.45048  1.0000
  H   H2728     1.0  0.87406  0.79316  0.47602  1.0000
  H   H2729     1.0  0.51985  0.72417  0.33506  1.0000
  H   H2730     1.0  0.51511  0.71285  0.32237  1.0000
  C   C1723     1.0  0.51521  0.65787  0.26718  1.0000
  H   H2731     1.0  0.59336  0.70672  0.46843  1.0000
  C   C1724     1.0  0.54857  0.73041  0.31495  1.0000
  H   H2732     1.0  0.53048  0.74909  0.29296  1.0000
  N   N171      1.0  0.66360  0.87607  0.46632  1.0000
  H   H2733     1.0  0.90586  0.97282  0.25362  1.0000
  H   H2734     1.0  0.57260  0.70795  0.34140  1.0000
  Fe  Fe341     1.0  0.67575  0.78703  0.46658  1.0000
  H   H2735     1.0  0.82685  0.80537  0.46207  1.0000
  H   H2736     1.0  0.61883  0.79071  0.41461  1.0000
  H   H2737     1.0  0.86511  0.96326  0.25532  1.0000
  H   H2738     1.0  0.60466  0.82000  0.43214  1.0000
  H   H2739     1.0  0.51772  0.74906  0.31318  1.0000
  H   H2740     1.0  0.60848  0.71135  0.44974  1.0000
  H   H2741     1.0  0.78393  0.83940  0.42148  1.0000
  C   C1725     1.0  0.59448  0.68651  0.44856  1.0000
  H   H2742     1.0  0.55750  0.71911  0.31960  1.0000
  S   S690      1.0  0.56653  0.68173  0.33009  1.0000
  H   H2743     1.0  0.53360  0.70512  0.33088  1.0000
  H   H2744     1.0  0.50148  0.69637  0.35350  1.0000
  H   H2745     1.0  0.54898  0.72219  0.28649  1.0000
  H   H2746     1.0  0.61049  0.83697  0.40371  1.0000
  H   H2747     1.0  0.59240  0.68028  0.46187  1.0000
  H   H2748     1.0  0.67373  0.88288  0.48359  1.0000
  H   H2749     1.0  0.63920  0.88413  0.48044  1.0000
  C   C1726     1.0  0.72053  0.79344  0.47790  1.0000
  H   H2750     1.0  0.65028  0.81329  0.41557  1.0000
  H   H2751     1.0  0.76246  0.92080  0.38465  1.0000
  S   S691      1.0  0.52580  0.67127  0.33215  1.0000
  Fe  Fe342     1.0  0.79609  0.97264  0.31040  1.0000
  H   H2752     1.0  0.66977  0.88678  0.44036  1.0000
  H   H2753     1.0  0.79098  0.93564  0.35929  1.0000
  H   H2754     1.0  0.78167  0.91977  0.35743  1.0000
  H   H2755     1.0  0.78818  0.89247  0.39795  1.0000
  N   N172      1.0  0.75405  0.80691  0.43356  1.0000
  C   C1727     1.0  0.74558  0.79273  0.43998  1.0000
  C   C1728     1.0  0.77218  0.80075  0.43200  1.0000
  C   C1729     1.0  0.74812  0.81848  0.44509  1.0000
  C   C1730     1.0  0.75033  0.81569  0.41717  1.0000
  H   H2756     1.0  0.74962  0.78382  0.43152  1.0000
  H   H2757     1.0  0.73184  0.79691  0.44144  1.0000
  H   H2758     1.0  0.55827  0.66099  0.36290  1.0000
  H   H2759     1.0  0.77710  0.79169  0.42369  1.0000
  H   H2760     1.0  0.77898  0.81109  0.42688  1.0000
  H   H2761     1.0  0.77545  0.79450  0.44425  1.0000
  C   C1731     1.0  0.80200  0.91935  0.38703  1.0000
  H   H2762     1.0  0.75087  0.81231  0.45754  1.0000
  H   H2763     1.0  0.80044  0.91472  0.40068  1.0000
  H   H2764     1.0  0.75519  0.80758  0.40794  1.0000
  H   H2765     1.0  0.88950  0.93417  0.27025  1.0000
  H   H2766     1.0  0.73669  0.81994  0.41782  1.0000
  H   H2767     1.0  0.49858  0.80540  0.39457  1.0000
  H   H2768     1.0  0.50420  0.71652  0.42933  1.0000
  C   C1732     1.0  0.56049  0.67460  0.38014  1.0000
  H   H2769     1.0  0.56636  0.70147  0.46667  1.0000
  H   H2770     1.0  0.50808  0.69966  0.39393  1.0000
  C   C1733     1.0  0.84121  0.92237  0.24743  1.0000
  C   C1734     1.0  0.56906  0.70698  0.45321  1.0000
  C   C1735     1.0  0.67524  0.88298  0.45163  1.0000
  H   H2771     1.0  0.55570  0.73789  0.30411  1.0000
  H   H2772     1.0  0.68706  0.87381  0.44897  1.0000
  C   C1736     1.0  0.64360  0.80597  0.41140  1.0000
  H   H2773     1.0  0.52256  0.67177  0.38797  1.0000
  C   C1737     1.0  0.70644  0.92007  0.48217  1.0000
  H   H2774     1.0  0.71271  0.86989  0.47474  1.0000
  H   H2775     1.0  0.51352  0.73842  0.29969  1.0000
  H   H2776     1.0  0.84946  0.81944  0.44463  1.0000
  C   C1738     1.0  0.71418  0.77977  0.47791  1.0000
  C   C1739     1.0  0.51577  0.79685  0.36570  1.0000
  H   H2777     1.0  0.84042  0.78568  0.45989  1.0000
  C   C1740     1.0  0.61739  0.80366  0.40721  1.0000
  H   H2778     1.0  0.62269  0.80292  0.39402  1.0000
  C   C1741     1.0  0.56088  0.67227  0.36429  1.0000
  H   H2779     1.0  0.55026  0.70387  0.30265  1.0000
  Fe  Fe343     1.0  0.55343  0.66352  0.32642  1.0000
  H   H2780     1.0  0.64551  0.79313  0.41904  1.0000
  H   H2781     1.0  0.64159  0.89175  0.45843  1.0000
  H   H2782     1.0  0.59871  0.77626  0.46418  1.0000
  H   H2783     1.0  0.77306  0.86956  0.41447  1.0000
  H   H2784     1.0  0.58892  0.68028  0.44198  1.0000
  H   H2785     1.0  0.61953  0.80174  0.43849  1.0000
  H   H2786     1.0  0.63001  0.83852  0.40699  1.0000
  H   H2787     1.0  0.75581  0.82698  0.41230  1.0000
  C   C1742     1.0  0.74483  0.86742  0.47606  1.0000
  Fe  Fe344     1.0  0.79038  0.81025  0.47779  1.0000
  C   C1743     1.0  0.86322  0.78857  0.47529  1.0000
  S   S692      1.0  0.78144  0.97194  0.33649  1.0000
  C   C1744     1.0  0.89125  0.94704  0.26868  1.0000
  N   N173      1.0  0.62573  0.81369  0.41294  1.0000
  C   C1745     1.0  0.61817  0.81437  0.43044  1.0000
  H   H2788     1.0  0.50077  0.72269  0.28115  1.0000
  H   H2789     1.0  0.50351  0.65862  0.26325  1.0000
  H   H2790     1.0  0.66407  0.91894  0.47406  1.0000
  C   C1746     1.0  0.56803  0.70127  0.36796  1.0000
  H   H2791     1.0  0.53177  0.71184  0.29434  1.0000
  N   N174      1.0  0.58713  0.70448  0.44634  1.0000
  H   H2792     1.0  0.52518  0.78607  0.37044  1.0000
  N   N175      1.0  0.53485  0.72597  0.31050  1.0000
  S   S693      1.0  0.70388  0.78042  0.46221  1.0000
  H   H2793     1.0  0.74377  0.86053  0.46708  1.0000
  C   C1747     1.0  0.62382  0.83073  0.40281  1.0000
  H   H2794     1.0  0.62415  0.82190  0.43514  1.0000
  H   H2795     1.0  0.86315  0.79972  0.44286  1.0000
  H   H2796     1.0  0.71716  0.80513  0.46960  1.0000
  H   H2797     1.0  0.51182  0.70801  0.37210  1.0000
  H   H2798     1.0  0.62948  0.83073  0.38953  1.0000
  C   C1748     1.0  0.52367  0.74126  0.30377  1.0000
  H   H2799     1.0  0.56314  0.72045  0.45163  1.0000
  H   H2800     1.0  0.65035  0.90031  0.47045  1.0000
  H   H2801     1.0  0.88372  0.98030  0.25728  1.0000
  H   H2802     1.0  0.65345  0.86405  0.45315  1.0000
  H   H2803     1.0  0.91784  0.94683  0.24303  1.0000
  N   N176      1.0  0.85087  0.80211  0.46773  1.0000
  C   C1749     1.0  0.85856  0.80927  0.45066  1.0000
  S   S694      1.0  0.65624  0.77317  0.48284  1.0000
  C   C1750     1.0  0.65998  0.86104  0.46362  1.0000
  S   S695      1.0  0.55465  0.66161  0.30041  1.0000
  H   H2804     1.0  0.83580  0.82568  0.47226  1.0000
  S   S696      1.0  0.85541  0.98133  0.28565  1.0000
  H   H2805     1.0  0.67154  0.85164  0.46073  1.0000
  H   H2806     1.0  0.51536  0.66309  0.37474  1.0000
  C   C1751     1.0  0.51672  0.67494  0.37699  1.0000
  H   H2807     1.0  0.83340  0.92362  0.23884  1.0000
  C   C1752     1.0  0.50297  0.70211  0.38256  1.0000
  C   C1753     1.0  0.71506  0.87696  0.48287  1.0000
  H   H2808     1.0  0.51775  0.79777  0.35212  1.0000
  C   C1754     1.0  0.49860  0.70067  0.30014  1.0000
  H   H2809     1.0  0.90296  0.94610  0.27268  1.0000
  H   H2810     1.0  0.55749  0.66513  0.39095  1.0000
  H   H2811     1.0  0.50548  0.78325  0.39759  1.0000
  C   C1755     1.0  0.85830  0.91580  0.24336  1.0000
  H   H2812     1.0  0.85551  0.82028  0.47850  1.0000
  H   H2813     1.0  0.82294  0.96139  0.23847  1.0000
  H   H2814     1.0  0.68302  0.86241  0.47937  1.0000
  C   C1756     1.0  0.64799  0.88859  0.46900  1.0000
  Fe  Fe345     1.0  0.92739  0.77778  0.54987  1.0000
  S   S697      1.0  0.92842  0.77656  0.57606  1.0000
  S   S698      1.0  0.94852  0.76176  0.53566  1.0000
  Fe  Fe346     1.0  0.89372  0.80167  0.55167  1.0000
  S   S699      1.0  0.89238  0.80310  0.57800  1.0000
  S   S700      1.0  0.87148  0.81540  0.53998  1.0000
  Fe  Fe347     1.0  0.91951  0.80408  0.57016  1.0000
  S   S701      1.0  0.93325  0.82019  0.57662  1.0000
  Fe  Fe348     1.0  0.90150  0.77559  0.58145  1.0000
  S   S702      1.0  0.89064  0.75816  0.60355  1.0000
  S   S703      1.0  0.92009  0.80553  0.54329  1.0000
  S   S704      1.0  0.90122  0.77399  0.55583  1.0000
  Fe  Fe349     1.0  0.97176  0.81812  0.64948  1.0000
  S   S705      1.0  0.97553  0.80662  0.67542  1.0000
  S   S706      1.0  0.94608  0.82779  0.64367  1.0000
  H   H2815     1.0  0.98750  0.76018  0.71447  1.0000
  C   C1757     1.0  0.91158  0.66182  0.60433  1.0000
  H   H2816     1.0  0.58461  0.98970  0.66924  1.0000
  C   C1758     1.0  0.97714  0.81956  0.57127  1.0000
  N   N177      1.0  0.63754  0.89320  0.65731  1.0000
  H   H2817     1.0  0.67355  0.80796  0.51021  1.0000
  Fe  Fe350     1.0  0.95071  0.68354  0.62463  1.0000
  S   S707      1.0  0.93390  0.68698  0.64883  1.0000
  S   S708      1.0  0.94143  0.69024  0.60096  1.0000
  Fe  Fe351     1.0  0.95322  0.69857  0.65241  1.0000
  S   S709      1.0  0.94597  0.72512  0.65611  1.0000
  H   H2818     1.0  0.74362  0.87189  0.50615  1.0000
  S   S710      1.0  0.96904  0.69665  0.62741  1.0000
  S   S711      1.0  0.76436  0.81572  0.49219  1.0000
  Fe  Fe352     1.0  0.66721  0.93970  0.64801  1.0000
  S   S712      1.0  0.64088  0.95402  0.64996  1.0000
  S   S713      1.0  0.68062  0.92655  0.62680  1.0000
  Fe  Fe353     1.0  0.66887  0.94359  0.68260  1.0000
  S   S714      1.0  0.64272  0.95791  0.68693  1.0000
  S   S715      1.0  0.68360  0.93710  0.70283  1.0000
  Fe  Fe354     1.0  0.63722  0.93933  0.67594  1.0000
  S   S716      1.0  0.61547  0.92729  0.68776  1.0000
  Fe  Fe355     1.0  0.64934  0.97110  0.66062  1.0000
  H   H2819     1.0  0.66228  0.87850  0.65197  1.0000
  S   S717      1.0  0.66292  0.92375  0.67345  1.0000
  S   S718      1.0  0.67617  0.95808  0.65676  1.0000
  Fe  Fe356     1.0  0.67876  0.89507  0.53240  1.0000
  S   S719      1.0  0.67713  0.87131  0.52711  1.0000
  S   S720      1.0  0.69731  0.90978  0.51570  1.0000
  Fe  Fe357     1.0  0.65315  0.89178  0.56449  1.0000
  S   S721      1.0  0.64880  0.86757  0.56195  1.0000
  S   S722      1.0  0.64008  0.90559  0.58529  1.0000
  Fe  Fe358     1.0  0.67655  0.86118  0.55407  1.0000
  S   S723      1.0  0.69189  0.83555  0.55972  1.0000
  Fe  Fe359     1.0  0.64963  0.87941  0.53507  1.0000
  S   S724      1.0  0.63477  0.87625  0.51809  1.0000
  S   S725      1.0  0.68088  0.88428  0.55874  1.0000
  S   S726      1.0  0.65121  0.90438  0.53818  1.0000
  H   H2820     1.0  0.66274  0.86634  0.49230  1.0000
  S   S727      1.0  0.63683  0.80196  0.51560  1.0000
  H   H2821     1.0  0.97043  0.80963  0.57224  1.0000
  Fe  Fe360     1.0  0.80494  0.79148  0.50785  1.0000
  H   H2822     1.0  0.98220  0.74931  0.58294  1.0000
  S   S728      1.0  0.82958  0.77816  0.51518  1.0000
  Fe  Fe361     1.0  0.76993  0.78929  0.50549  1.0000
  H   H2823     1.0  0.97637  0.77941  0.70468  1.0000
  S   S729      1.0  0.75051  0.77363  0.51161  1.0000
  H   H2824     1.0  0.66135  0.90023  0.64984  1.0000
  Fe  Fe362     1.0  0.77621  0.82062  0.51049  1.0000
  S   S730      1.0  0.76452  0.84248  0.52226  1.0000
  H   H2825     1.0  0.61551  0.96044  0.72465  1.0000
  S   S731      1.0  0.78003  0.79452  0.52515  1.0000
  H   H2826     1.0  0.67129  0.81900  0.53499  1.0000
  Fe  Fe363     1.0  0.94888  0.66230  0.65902  1.0000
  C   C1759     1.0  0.98380  0.79893  0.72081  1.0000
  C   C1760     1.0  0.60793  0.95215  0.72342  1.0000
  H   H2827     1.0  0.99105  0.71921  0.59490  1.0000
  H   H2828     1.0  0.63479  0.91957  0.65401  1.0000
  C   C1761     1.0  0.98356  0.78481  0.53812  1.0000
  C   C1762     1.0  0.98116  0.77301  0.71615  1.0000
  S   S732      1.0  0.79538  0.78325  0.48962  1.0000
  C   C1763     1.0  0.71264  0.83667  0.55089  1.0000
  C   C1764     1.0  0.71814  0.85116  0.54951  1.0000
  C   C1765     1.0  0.73437  0.85262  0.54134  1.0000
  C   C1766     1.0  0.74507  0.83965  0.53433  1.0000
  C   C1767     1.0  0.73964  0.82506  0.53583  1.0000
  C   C1768     1.0  0.72348  0.82349  0.54427  1.0000
  H   H2829     1.0  0.71001  0.86118  0.55494  1.0000
  H   H2830     1.0  0.73852  0.86390  0.54023  1.0000
  H   H2831     1.0  0.74774  0.81506  0.53027  1.0000
  H   H2832     1.0  0.71930  0.81225  0.54533  1.0000
  C   C1769     1.0  0.63447  0.85562  0.51811  1.0000
  C   C1770     1.0  0.63881  0.84253  0.53103  1.0000
  C   C1771     1.0  0.63873  0.82617  0.53056  1.0000
  C   C1772     1.0  0.63535  0.82268  0.51673  1.0000
  C   C1773     1.0  0.63106  0.83577  0.50382  1.0000
  C   C1774     1.0  0.63011  0.85221  0.50478  1.0000
  H   H2833     1.0  0.64183  0.84507  0.54155  1.0000
  H   H2834     1.0  0.64144  0.81621  0.54088  1.0000
  C   C1775     1.0  0.73213  0.87775  0.50114  1.0000
  N   N178      1.0  0.59092  0.96122  0.72177  1.0000
  C   C1776     1.0  0.98661  0.71640  0.58499  1.0000
  S   S733      1.0  0.98810  0.79687  0.63862  1.0000
  H   H2835     1.0  0.98275  0.70423  0.58987  1.0000
  C   C1777     1.0  0.66926  0.92106  0.61514  1.0000
  C   C1778     1.0  0.67702  0.90854  0.60607  1.0000
  C   C1779     1.0  0.66817  0.90358  0.59701  1.0000
  C   C1780     1.0  0.65158  0.91131  0.59667  1.0000
  C   C1781     1.0  0.64388  0.92391  0.60564  1.0000
  C   C1782     1.0  0.65266  0.92876  0.61485  1.0000
  H   H2836     1.0  0.68983  0.90244  0.60633  1.0000
  H   H2837     1.0  0.67414  0.89358  0.59051  1.0000
  H   H2838     1.0  0.63106  0.93001  0.60539  1.0000
  H   H2839     1.0  0.64661  0.93858  0.62156  1.0000
  H   H2840     1.0  0.98266  0.81305  0.60226  1.0000
  C   C1783     1.0  0.68078  0.95084  0.71613  1.0000
  C   C1784     1.0  0.91677  0.65875  0.63156  1.0000
  H   H2841     1.0  0.67206  0.98990  0.69845  1.0000
  H   H2842     1.0  0.97785  0.72408  0.55538  1.0000
  C   C1785     1.0  0.60576  0.90800  0.71784  1.0000
  C   C1786     1.0  0.61836  0.91562  0.70729  1.0000
  C   C1787     1.0  0.63280  0.91470  0.71275  1.0000
  H   H2843     1.0  0.68420  0.80827  0.54964  1.0000
  H   H2844     1.0  0.64247  0.92082  0.70485  1.0000
  H   H2845     1.0  0.68890  0.78978  0.50627  1.0000
  H   H2846     1.0  0.63581  0.86843  0.65750  1.0000
  C   C1788     1.0  0.98019  0.74969  0.67117  1.0000
  H   H2847     1.0  0.64385  0.87685  0.67965  1.0000
  C   C1789     1.0  0.96918  0.72519  0.67360  1.0000
  C   C1790     1.0  0.95983  0.73396  0.66160  1.0000
  C   C1791     1.0  0.96067  0.75057  0.65450  1.0000
  C   C1792     1.0  0.97075  0.75840  0.65928  1.0000
  N   N179      1.0  0.99262  0.78186  0.71908  1.0000
  H   H2848     1.0  0.96833  0.71247  0.67943  1.0000
  H   H2849     1.0  0.95352  0.75748  0.64524  1.0000
  H   H2850     1.0  0.97101  0.77126  0.65387  1.0000
  C   C1793     1.0  0.86029  0.80505  0.53251  1.0000
  C   C1794     1.0  0.84442  0.81318  0.52945  1.0000
  C   C1795     1.0  0.83479  0.80503  0.52434  1.0000
  C   C1796     1.0  0.84107  0.78873  0.52199  1.0000
  C   C1797     1.0  0.85700  0.78066  0.52487  1.0000
  C   C1798     1.0  0.86657  0.78877  0.53010  1.0000
  H   H2851     1.0  0.83945  0.82578  0.53127  1.0000
  H   H2852     1.0  0.82250  0.81137  0.52225  1.0000
  H   H2853     1.0  0.86199  0.76807  0.52304  1.0000
  H   H2854     1.0  0.87885  0.78243  0.53218  1.0000
  C   C1799     1.0  0.93432  0.81989  0.59706  1.0000
  C   C1800     1.0  0.92598  0.83377  0.60392  1.0000
  C   C1801     1.0  0.92933  0.83566  0.61849  1.0000
  C   C1802     1.0  0.94147  0.82400  0.62611  1.0000
  C   C1803     1.0  0.94952  0.80976  0.61959  1.0000
  C   C1804     1.0  0.94590  0.80769  0.60511  1.0000
  H   H2855     1.0  0.91735  0.84346  0.59760  1.0000
  H   H2856     1.0  0.92299  0.84664  0.62347  1.0000
  H   H2857     1.0  0.95858  0.80046  0.62563  1.0000
  H   H2858     1.0  0.95254  0.79702  0.59978  1.0000
  C   C1805     1.0  0.90303  0.73842  0.60235  1.0000
  C   C1806     1.0  0.90264  0.72560  0.61636  1.0000
  C   C1807     1.0  0.91389  0.71038  0.61578  1.0000
  C   C1808     1.0  0.92534  0.70790  0.60115  1.0000
  C   C1809     1.0  0.92487  0.72030  0.58685  1.0000
  C   C1810     1.0  0.91400  0.73567  0.58755  1.0000
  H   H2859     1.0  0.89403  0.72757  0.62779  1.0000
  H   H2860     1.0  0.91359  0.70060  0.62665  1.0000
  H   H2861     1.0  0.93335  0.71832  0.57538  1.0000
  H   H2862     1.0  0.91434  0.74538  0.57661  1.0000
  H   H2863     1.0  0.97294  0.79897  0.73134  1.0000
  H   H2864     1.0  0.98635  0.72629  0.68782  1.0000
  H   H2865     1.0  0.97886  0.82637  0.55815  1.0000
  H   H2866     1.0  0.68224  0.95879  0.53509  1.0000
  H   H2867     1.0  0.69298  0.81939  0.52986  1.0000
  C   C1811     1.0  0.98245  0.75564  0.52958  1.0000
  C   C1812     1.0  0.96763  0.76677  0.53423  1.0000
  C   C1813     1.0  0.96820  0.78135  0.53853  1.0000
  H   H2868     1.0  0.98347  0.79402  0.59635  1.0000
  C   C1814     1.0  0.72963  0.76309  0.49895  1.0000
  H   H2869     1.0  0.58663  0.94387  0.70978  1.0000
  H   H2870     1.0  0.95681  0.79001  0.54209  1.0000
  H   H2871     1.0  0.89810  0.66670  0.60860  1.0000
  H   H2872     1.0  0.59459  0.90866  0.71367  1.0000
  C   C1815     1.0  0.58118  0.94953  0.72087  1.0000
  H   H2873     1.0  0.59879  0.98345  0.70666  1.0000
  S   S734      1.0  0.96455  0.65820  0.63434  1.0000
  C   C1816     1.0  0.96756  0.72509  0.56641  1.0000
  C   C1817     1.0  0.65495  0.89116  0.64803  1.0000
  C   C1818     1.0  0.67534  0.78573  0.53865  1.0000
  H   H2874     1.0  0.67556  0.78222  0.55208  1.0000
  C   C1819     1.0  0.69262  0.96169  0.73320  1.0000
  H   H2875     1.0  0.96205  0.73459  0.60401  1.0000
  H   H2876     1.0  0.62799  0.91327  0.63881  1.0000
  C   C1820     1.0  0.66370  0.97186  0.73155  1.0000
  H   H2877     1.0  0.66865  0.91168  0.50273  1.0000
  S   S735      1.0  0.96668  0.67423  0.66540  1.0000
  H   H2878     1.0  0.65559  0.89315  0.63450  1.0000
  H   H2879     1.0  0.73318  0.75125  0.50700  1.0000
  N   N180      1.0  0.68747  0.79624  0.52940  1.0000
  H   H2880     1.0  0.62429  0.89138  0.68262  1.0000
  H   H2881     1.0  0.66244  0.79224  0.53735  1.0000
  N   N181      1.0  0.68450  0.93629  0.55366  1.0000
  C   C1821     1.0  0.69152  0.94725  0.53843  1.0000
  C   C1822     1.0  0.67950  0.94498  0.56764  1.0000
  C   C1823     1.0  0.69716  0.92105  0.55741  1.0000
  C   C1824     1.0  0.66980  0.93183  0.55114  1.0000
  H   H2882     1.0  0.69547  0.94092  0.52770  1.0000
  H   H2883     1.0  0.70261  0.95092  0.53987  1.0000
  H   H2884     1.0  0.58076  0.93919  0.73195  1.0000
  H   H2885     1.0  0.67380  0.93714  0.57921  1.0000
  H   H2886     1.0  0.69032  0.94818  0.57022  1.0000
  H   H2887     1.0  0.67013  0.95668  0.56515  1.0000
  H   H2888     1.0  0.69232  0.91247  0.56882  1.0000
  H   H2889     1.0  0.70846  0.92393  0.55934  1.0000
  H   H2890     1.0  0.70113  0.91412  0.54716  1.0000
  H   H2891     1.0  0.66450  0.92309  0.56214  1.0000
  H   H2892     1.0  0.67303  0.92573  0.54037  1.0000
  H   H2893     1.0  0.65975  0.94294  0.54880  1.0000
  H   H2894     1.0  0.95432  0.71928  0.59899  1.0000
  N   N182      1.0  0.91170  0.76950  0.63809  1.0000
  C   C1825     1.0  0.92137  0.75722  0.62788  1.0000
  C   C1826     1.0  0.91168  0.76200  0.65575  1.0000
  C   C1827     1.0  0.89443  0.77451  0.63551  1.0000
  C   C1828     1.0  0.91926  0.78428  0.63318  1.0000
  H   H2895     1.0  0.93451  0.75326  0.62938  1.0000
  H   H2896     1.0  0.92130  0.76231  0.61451  1.0000
  H   H2897     1.0  0.91614  0.74579  0.63146  1.0000
  H   H2898     1.0  0.90428  0.77078  0.66387  1.0000
  H   H2899     1.0  0.90647  0.75054  0.65972  1.0000
  H   H2900     1.0  0.92449  0.75830  0.65821  1.0000
  H   H2901     1.0  0.88663  0.78344  0.64333  1.0000
  H   H2902     1.0  0.88852  0.76357  0.63849  1.0000
  H   H2903     1.0  0.89398  0.78062  0.62238  1.0000
  H   H2904     1.0  0.91231  0.79384  0.64062  1.0000
  H   H2905     1.0  0.91938  0.79027  0.61992  1.0000
  H   H2906     1.0  0.93231  0.78104  0.63491  1.0000
  N   N183      1.0  0.84123  0.78552  0.58162  1.0000
  C   C1829     1.0  0.85934  0.77909  0.57738  1.0000
  C   C1830     1.0  0.83288  0.78047  0.57110  1.0000
  C   C1831     1.0  0.83786  0.80385  0.57877  1.0000
  C   C1832     1.0  0.83493  0.77865  0.59922  1.0000
  H   H2907     1.0  0.86247  0.76531  0.57915  1.0000
  H   H2908     1.0  0.86601  0.78251  0.58520  1.0000
  H   H2909     1.0  0.86455  0.78424  0.56429  1.0000
  H   H2910     1.0  0.81919  0.78516  0.57388  1.0000
  H   H2911     1.0  0.83738  0.78546  0.55776  1.0000
  H   H2912     1.0  0.83528  0.76672  0.57277  1.0000
  H   H2913     1.0  0.82433  0.80919  0.58198  1.0000
  H   H2914     1.0  0.84232  0.80941  0.56555  1.0000
  H   H2915     1.0  0.84431  0.80813  0.58618  1.0000
  H   H2916     1.0  0.82128  0.78321  0.60288  1.0000
  H   H2917     1.0  0.84105  0.78222  0.60745  1.0000
  H   H2918     1.0  0.83741  0.76484  0.60176  1.0000
  H   H2919     1.0  0.62606  0.86227  0.49510  1.0000
  H   H2920     1.0  0.56811  0.95586  0.72015  1.0000
  H   H2921     1.0  0.72149  0.87829  0.51191  1.0000
  Fe  Fe364     1.0  0.98123  0.67168  0.63985  1.0000
  H   H2922     1.0  0.97023  0.77215  0.72656  1.0000
  H   H2923     1.0  0.62939  0.88388  0.64031  1.0000
  C   C1833     1.0  0.62936  0.88154  0.65378  1.0000
  C   C1834     1.0  0.68627  0.80094  0.51177  1.0000
  H   H2924     1.0  0.67793  0.77410  0.53393  1.0000
  H   H2925     1.0  0.69526  0.80881  0.50434  1.0000
  H   H2926     1.0  0.70386  0.87884  0.49291  1.0000
  H   H2927     1.0  0.64331  0.89835  0.67829  1.0000
  N   N184      1.0  0.99319  0.81264  0.57662  1.0000
  H   H2928     1.0  0.70584  0.78337  0.54410  1.0000
  H   H2929     1.0  0.59777  0.96881  0.69533  1.0000
  H   H2930     1.0  0.70614  0.94284  0.71927  1.0000
  H   H2931     1.0  0.61618  0.88282  0.66054  1.0000
  H   H2932     1.0  0.98392  0.79618  0.54130  1.0000
  H   H2933     1.0  0.70759  0.77523  0.52620  1.0000
  C   C1835     1.0  0.73178  0.79177  0.48809  1.0000
  C   C1836     1.0  0.72821  0.85148  0.49875  1.0000
  H   H2934     1.0  0.73676  0.80226  0.48791  1.0000
  H   H2935     1.0  0.61494  0.98262  0.65811  1.0000
  H   H2936     1.0  0.61560  0.91264  0.65935  1.0000
  H   H2937     1.0  0.73965  0.84451  0.50335  1.0000
  H   H2938     1.0  0.71398  0.79430  0.52393  1.0000
  C   C1837     1.0  0.66536  0.96114  0.72084  1.0000
  C   C1838     1.0  0.62859  0.91041  0.65212  1.0000
  H   H2939     1.0  0.72604  0.84422  0.49070  1.0000
  C   C1839     1.0  0.97828  0.74550  0.57328  1.0000
  H   H2940     1.0  0.61449  0.94691  0.71230  1.0000
  H   H2941     1.0  0.62804  0.83324  0.49329  1.0000
  H   H2942     1.0  0.57901  0.98127  0.70474  1.0000
  C   C1840     1.0  0.73659  0.77646  0.49845  1.0000
  H   H2943     1.0  0.90342  0.66332  0.63667  1.0000
  H   H2944     1.0  0.98204  0.74438  0.52621  1.0000
  H   H2945     1.0  0.98907  0.74462  0.56271  1.0000
  C   C1841     1.0  0.69377  0.91556  0.49548  1.0000
  Fe  Fe365     1.0  0.99320  0.78612  0.66402  1.0000
  C   C1842     1.0  0.63725  0.88973  0.67524  1.0000
  C   C1843     1.0  0.70443  0.78688  0.53098  1.0000
  H   H2946     1.0  0.95693  0.73457  0.56218  1.0000
  H   H2947     1.0  0.71775  0.85175  0.50972  1.0000
  S   S736      1.0  0.99340  0.75923  0.67686  1.0000
  H   H2948     1.0  0.99286  0.70884  0.65220  1.0000
  C   C1844     1.0  0.95863  0.73117  0.59381  1.0000
  C   C1845     1.0  0.59167  0.97424  0.70650  1.0000
  S   S737      1.0  0.99164  0.83307  0.64406  1.0000
  C   C1846     1.0  0.97928  0.73307  0.67842  1.0000
  C   C1847     1.0  0.68381  0.81137  0.53624  1.0000
  N   N185      1.0  0.97277  0.72955  0.57963  1.0000
  C   C1848     1.0  0.67855  0.91497  0.49252  1.0000
  C   C1849     1.0  0.69423  0.95085  0.72273  1.0000
  H   H2949     1.0  0.91766  0.67270  0.59934  1.0000
  H   H2950     1.0  0.96819  0.75561  0.56882  1.0000
  H   H2951     1.0  0.94783  0.74074  0.59006  1.0000
  H   H2952     1.0  0.96363  0.71293  0.57073  1.0000
  H   H2953     1.0  0.96871  0.82836  0.57898  1.0000
  S   S738      1.0  0.80175  0.81811  0.49461  1.0000
  H   H2954     1.0  0.92289  0.66958  0.62736  1.0000
  H   H2955     1.0  0.97917  0.80610  0.70943  1.0000
  H   H2956     1.0  0.99218  0.80604  0.72279  1.0000
  N   N186      1.0  0.73005  0.86841  0.48970  1.0000
  C   C1850     1.0  0.63454  0.90631  0.72882  1.0000
  H   H2957     1.0  0.99377  0.66807  0.60640  1.0000
  Fe  Fe366     1.0  0.64345  0.79813  0.48934  1.0000
  H   H2958     1.0  0.73299  0.89077  0.49488  1.0000
  C   C1851     1.0  0.99018  0.80419  0.59422  1.0000
  H   H2959     1.0  0.83897  0.81021  0.49048  1.0000
  H   H2960     1.0  0.65482  0.96094  0.71612  1.0000
  H   H2961     1.0  0.99433  0.83544  0.58225  1.0000
  H   H2962     1.0  0.71412  0.75397  0.48846  1.0000
  C   C1852     1.0  0.71865  0.76468  0.48861  1.0000
  H   H2963     1.0  0.64563  0.90581  0.73306  1.0000
  H   H2964     1.0  0.85771  0.78284  0.48814  1.0000
  H   H2965     1.0  0.71818  0.92069  0.48441  1.0000
  C   C1853     1.0  0.60741  0.89984  0.73398  1.0000
  S   S739      1.0  0.80321  0.68291  0.96604  1.0000
  C   C1854     1.0  0.53946  0.96955  0.74697  1.0000
  C   C1855     1.0  0.56518  0.77073  0.82565  1.0000
  H   H2966     1.0  0.67012  0.94325  0.76435  1.0000
  S   S740      1.0  0.63158  0.68733  0.92831  1.0000
  S   S741      1.0  0.50127  0.78642  0.84366  1.0000
  H   H2967     1.0  0.68537  0.91569  0.77639  1.0000
  H   H2968     1.0  0.56450  0.76532  0.83908  1.0000
  H   H2969     1.0  0.79451  0.66552  0.90947  1.0000
  Fe  Fe367     1.0  0.56358  0.91801  0.77367  1.0000
  S   S742      1.0  0.58738  0.92293  0.77568  1.0000
  S   S743      1.0  0.54862  0.93570  0.75577  1.0000
  Fe  Fe368     1.0  0.56680  0.88526  0.79856  1.0000
  S   S744      1.0  0.59103  0.88745  0.80326  1.0000
  S   S745      1.0  0.55263  0.86455  0.81106  1.0000
  Fe  Fe369     1.0  0.57916  0.91435  0.80295  1.0000
  S   S746      1.0  0.58180  0.93113  0.81824  1.0000
  Fe  Fe370     1.0  0.59747  0.89596  0.77568  1.0000
  S   S747      1.0  0.62302  0.89041  0.76019  1.0000
  S   S748      1.0  0.55421  0.91154  0.80101  1.0000
  S   S749      1.0  0.57433  0.89170  0.77097  1.0000
  C   C1856     1.0  0.53446  0.66358  0.83238  1.0000
  H   H2970     1.0  0.55507  0.76731  0.82199  1.0000
  C   C1857     1.0  0.51641  0.88055  0.77177  1.0000
  H   H2971     1.0  0.70187  0.65976  0.98282  1.0000
  H   H2972     1.0  0.51363  0.87763  0.76093  1.0000
  H   H2973     1.0  0.50464  0.68583  0.85421  1.0000
  Fe  Fe371     1.0  0.55779  0.70582  0.86867  1.0000
  S   S750      1.0  0.56178  0.73167  0.86399  1.0000
  S   S751      1.0  0.55333  0.69253  0.89509  1.0000
  H   H2974     1.0  0.74948  0.68139  0.92447  1.0000
  Fe  Fe372     1.0  0.51235  0.76596  0.79051  1.0000
  S   S752      1.0  0.51879  0.74006  0.78518  1.0000
  Fe  Fe373     1.0  0.52056  0.80078  0.78394  1.0000
  H   H2975     1.0  0.51960  0.66990  0.94000  1.0000
  S   S753      1.0  0.53918  0.81727  0.77135  1.0000
  C   C1858     1.0  0.65899  0.93776  0.76671  1.0000
  H   H2976     1.0  0.52476  0.86930  0.77744  1.0000
  S   S754      1.0  0.66294  0.67791  0.95946  1.0000
  S   S755      1.0  0.52724  0.77686  0.80174  1.0000
  Fe  Fe374     1.0  0.65290  0.67159  0.94034  1.0000
  H   H2977     1.0  0.50129  0.70412  0.86222  1.0000
  H   H2978     1.0  0.51918  0.78197  0.86914  1.0000
  C   C1859     1.0  0.62171  0.89912  0.73954  1.0000
  H   H2979     1.0  0.65158  0.93967  0.77914  1.0000
  H   H2980     1.0  0.52082  0.70735  0.78052  1.0000
  H   H2981     1.0  0.53699  0.88776  0.78707  1.0000
  C   C1860     1.0  0.54348  0.74558  0.86002  1.0000
  C   C1861     1.0  0.53745  0.75924  0.86767  1.0000
  C   C1862     1.0  0.52366  0.77126  0.86342  1.0000
  C   C1863     1.0  0.51633  0.76990  0.85110  1.0000
  C   C1864     1.0  0.52210  0.75605  0.84371  1.0000
  C   C1865     1.0  0.53562  0.74381  0.84827  1.0000
  H   H2982     1.0  0.54354  0.76058  0.87677  1.0000
  H   H2983     1.0  0.51170  0.66006  0.80627  1.0000
  H   H2984     1.0  0.68640  0.98511  0.85113  1.0000
  H   H2985     1.0  0.54045  0.73339  0.84216  1.0000
  H   H2986     1.0  0.50689  0.76287  0.73893  1.0000
  H   H2987     1.0  0.51157  0.71697  0.88905  1.0000
  H   H2988     1.0  0.58931  0.78718  0.82204  1.0000
  C   C1866     1.0  0.59900  0.68057  0.90450  1.0000
  H   H2989     1.0  0.49976  0.69319  0.77802  1.0000
  H   H2990     1.0  0.66656  0.92459  0.73954  1.0000
  C   C1867     1.0  0.54885  0.85179  0.79964  1.0000
  C   C1868     1.0  0.55782  0.85080  0.78359  1.0000
  C   C1869     1.0  0.55454  0.84041  0.77493  1.0000
  C   C1870     1.0  0.54233  0.83087  0.78224  1.0000
  C   C1871     1.0  0.53331  0.83192  0.79827  1.0000
  C   C1872     1.0  0.53658  0.84233  0.80691  1.0000
  H   H2991     1.0  0.56754  0.85774  0.77798  1.0000
  H   H2992     1.0  0.56171  0.83952  0.76262  1.0000
  H   H2993     1.0  0.52395  0.82459  0.80410  1.0000
  H   H2994     1.0  0.52959  0.84302  0.81933  1.0000
  C   C1873     1.0  0.60235  0.93181  0.81809  1.0000
  C   C1874     1.0  0.61565  0.91896  0.81397  1.0000
  C   C1875     1.0  0.63196  0.91998  0.81365  1.0000
  C   C1876     1.0  0.63516  0.93428  0.81640  1.0000
  C   C1877     1.0  0.62186  0.94717  0.82042  1.0000
  C   C1878     1.0  0.60547  0.94570  0.82176  1.0000
  H   H2995     1.0  0.61333  0.90805  0.81146  1.0000
  H   H2996     1.0  0.64209  0.90968  0.81118  1.0000
  H   H2997     1.0  0.62420  0.95807  0.82296  1.0000
  H   H2998     1.0  0.59517  0.95541  0.82545  1.0000
  H   H2999     1.0  0.57774  0.78943  0.79719  1.0000
  H   H3000     1.0  0.59034  0.97719  0.73775  1.0000
  H   H3001     1.0  0.57724  0.76442  0.81897  1.0000
  N   N187      1.0  0.54564  0.66052  0.94028  1.0000
  Fe  Fe375     1.0  0.53315  0.68445  0.88884  1.0000
  H   H3002     1.0  0.54604  0.97695  0.78751  1.0000
  C   C1879     1.0  0.54717  0.95870  0.77367  1.0000
  C   C1880     1.0  0.54463  0.95597  0.75913  1.0000
  Fe  Fe376     1.0  0.50270  0.78609  0.81733  1.0000
  C   C1881     1.0  0.57665  0.79284  0.82819  1.0000
  H   H3003     1.0  0.55106  0.94829  0.78318  1.0000
  H   H3004     1.0  0.55564  0.79336  0.79913  1.0000
  H   H3005     1.0  0.58109  0.95936  0.74786  1.0000
  H   H3006     1.0  0.71338  0.70941  0.95104  1.0000
  C   C1882     1.0  0.60853  0.68780  0.91080  1.0000
  H   H3007     1.0  0.60810  0.70102  0.90699  1.0000
  Fe  Fe377     1.0  0.57016  0.67063  0.88549  1.0000
  H   H3008     1.0  0.70336  0.96225  0.73744  1.0000
  C   C1883     1.0  0.75241  0.67076  0.91815  1.0000
  S   S756      1.0  0.71005  0.68315  0.93809  1.0000
  C   C1884     1.0  0.72125  0.69814  0.95634  1.0000
  H   H3009     1.0  0.58199  0.98559  0.81079  1.0000
  S   S757      1.0  0.50843  0.78895  0.77077  1.0000
  H   H3010     1.0  0.80389  0.73713  0.96446  1.0000
  C   C1885     1.0  0.61885  0.67800  0.92167  1.0000
  N   N188      1.0  0.66377  0.91995  0.76600  1.0000
  C   C1886     1.0  0.67380  0.91095  0.77862  1.0000
  C   C1887     1.0  0.67370  0.91794  0.74941  1.0000
  C   C1888     1.0  0.73179  0.69895  0.96615  1.0000
  C   C1889     1.0  0.64866  0.91314  0.76925  1.0000
  H   H3011     1.0  0.77012  0.66530  0.94183  1.0000
  C   C1890     1.0  0.53973  0.98852  0.76373  1.0000
  C   C1891     1.0  0.58290  0.96893  0.73624  1.0000
  C   C1892     1.0  0.59248  0.98756  0.80010  1.0000
  H   H3012     1.0  0.50460  0.88248  0.78106  1.0000
  H   H3013     1.0  0.57482  0.96661  0.79849  1.0000
  C   C1893     1.0  0.74279  0.68471  0.97226  1.0000
  H   H3014     1.0  0.54604  0.90280  0.75080  1.0000
  H   H3015     1.0  0.64096  0.91942  0.75978  1.0000
  H   H3016     1.0  0.73169  0.71080  0.96866  1.0000
  H   H3017     1.0  0.51655  0.90019  0.79154  1.0000
  C   C1894     1.0  0.60415  0.98624  0.77147  1.0000
  C   C1895     1.0  0.61924  0.66094  0.92654  1.0000
  C   C1896     1.0  0.54439  0.97494  0.77610  1.0000
  H   H3018     1.0  0.53488  0.67277  0.80632  1.0000
  H   H3019     1.0  0.65179  0.89964  0.76909  1.0000
  Fe  Fe378     1.0  0.68842  0.67027  0.94434  1.0000
  H   H3020     1.0  0.50952  0.90807  0.74855  1.0000
  H   H3021     1.0  0.54863  0.88093  0.75952  1.0000
  C   C1897     1.0  0.52894  0.66563  0.81770  1.0000
  S   S758      1.0  0.55127  0.67229  0.83195  1.0000
  S   S759      1.0  0.67659  0.98867  0.74708  1.0000
  S   S760      1.0  0.64683  0.97790  0.78767  1.0000
  H   H3022     1.0  0.60215  0.98464  0.75968  1.0000
  C   C1898     1.0  0.58544  0.96838  0.78785  1.0000
  C   C1899     1.0  0.67743  0.97239  0.73750  1.0000
  C   C1900     1.0  0.50320  0.72977  0.78512  1.0000
  C   C1901     1.0  0.50785  0.71357  0.78215  1.0000
  C   C1902     1.0  0.52788  0.89833  0.78166  1.0000
  H   H3023     1.0  0.56519  0.80906  0.80095  1.0000
  N   N189      1.0  0.52415  0.89521  0.76691  1.0000
  H   H3024     1.0  0.49731  0.68816  0.82729  1.0000
  H   H3025     1.0  0.53691  0.79401  0.82636  1.0000
  H   H3026     1.0  0.51816  0.71740  0.83591  1.0000
  Fe  Fe379     1.0  0.66004  0.96212  0.80754  1.0000
  Fe  Fe380     1.0  0.55370  0.67748  0.85579  1.0000
  H   H3027     1.0  0.68521  0.92293  0.74647  1.0000
  H   H3028     1.0  0.65592  0.67607  0.87823  1.0000
  C   C1903     1.0  0.78142  0.67215  0.90920  1.0000
  H   H3029     1.0  0.58207  0.96633  0.77692  1.0000
  S   S761      1.0  0.68521  0.96760  0.79412  1.0000
  H   H3030     1.0  0.81005  0.71569  0.97370  1.0000
  H   H3031     1.0  0.57578  0.80651  0.82578  1.0000
  S   S762      1.0  0.53587  0.69997  0.86326  1.0000
  C   C1904     1.0  0.53973  0.89207  0.75454  1.0000
  C   C1905     1.0  0.54709  0.79672  0.83057  1.0000
  H   H3032     1.0  0.78036  0.67681  0.89601  1.0000
  H   H3033     1.0  0.50086  0.91281  0.76876  1.0000
  H   H3034     1.0  0.59769  0.89391  0.74202  1.0000
  C   C1906     1.0  0.56060  0.66711  0.93849  1.0000
  H   H3035     1.0  0.54549  0.81045  0.82819  1.0000
  H   H3036     1.0  0.67741  0.89740  0.77874  1.0000
  Fe  Fe381     1.0  0.67125  0.98470  0.77507  1.0000
  C   C1907     1.0  0.56565  0.79545  0.80407  1.0000
  H   H3037     1.0  0.51632  0.75489  0.83431  1.0000
  H   H3038     1.0  0.55076  0.65948  0.91466  1.0000
  H   H3039     1.0  0.54518  0.79209  0.84421  1.0000
  H   H3040     1.0  0.74313  0.66286  0.92463  1.0000
  N   N190      1.0  0.56364  0.78892  0.82211  1.0000
  S   S763      1.0  0.57623  0.68456  0.85921  1.0000
  S   S764      1.0  0.65585  0.93587  0.81447  1.0000
  C   C1908     1.0  0.51294  0.71082  0.82942  1.0000
  H   H3041     1.0  0.57550  0.78806  0.84178  1.0000
  H   H3042     1.0  0.59132  0.68824  0.89590  1.0000
  H   H3043     1.0  0.76634  0.73792  0.97312  1.0000
  S   S765      1.0  0.50815  0.68370  0.90564  1.0000
  H   H3044     1.0  0.59622  0.95835  0.79082  1.0000
  N   N191      1.0  0.76961  0.66123  0.91819  1.0000
  H   H3045     1.0  0.75022  0.67587  0.90534  1.0000
  H   H3046     1.0  0.51830  0.92116  0.75588  1.0000
  H   H3047     1.0  0.56329  0.67567  0.92632  1.0000
  C   C1909     1.0  0.72104  0.68297  0.95307  1.0000
  H   H3048     1.0  0.61518  0.97676  0.77480  1.0000
  H   H3049     1.0  0.52161  0.69867  0.82852  1.0000
  H   H3050     1.0  0.53283  0.68323  0.92693  1.0000
  C   C1910     1.0  0.65180  0.66716  0.88971  1.0000
  H   H3051     1.0  0.67751  0.90465  0.74843  1.0000
  H   H3052     1.0  0.66685  0.91253  0.79126  1.0000
  C   C1911     1.0  0.51581  0.65846  0.81766  1.0000
  H   H3053     1.0  0.51317  0.71817  0.81661  1.0000
  S   S766      1.0  0.54945  0.66131  0.88114  1.0000
  H   H3054     1.0  0.65147  0.94501  0.75735  1.0000
  H   H3055     1.0  0.53326  0.90961  0.77855  1.0000
  H   H3056     1.0  0.64068  0.91463  0.78152  1.0000
  H   H3057     1.0  0.53738  0.88986  0.74315  1.0000
  C   C1912     1.0  0.53105  0.67439  0.93905  1.0000
  H   H3058     1.0  0.79402  0.72191  0.96194  1.0000
  S   S767      1.0  0.67810  0.66709  0.92391  1.0000
  H   H3059     1.0  0.77918  0.68311  0.91489  1.0000
  N   N192      1.0  0.58926  0.98500  0.78484  1.0000
  Fe  Fe382     1.0  0.78202  0.67199  0.98287  1.0000
  C   C1913     1.0  0.74263  0.66938  0.96912  1.0000
  C   C1914     1.0  0.53734  0.98583  0.74911  1.0000
  H   H3060     1.0  0.77619  0.75326  0.97539  1.0000
  H   H3061     1.0  0.52861  0.68160  0.94888  1.0000
  C   C1915     1.0  0.73164  0.66850  0.95964  1.0000
  H   H3062     1.0  0.65408  0.67105  0.90027  1.0000
  C   C1916     1.0  0.79914  0.72564  0.97085  1.0000
  C   C1917     1.0  0.59966  0.66347  0.90915  1.0000
  H   H3063     1.0  0.98826  0.77215  0.74530  1.0000
  C   C1918     1.0  0.49897  0.71591  0.88987  1.0000
  H   H3064     1.0  0.55919  0.67412  0.94826  1.0000
  H   H3065     1.0  0.60396  0.97898  0.80346  1.0000
  Fe  Fe383     1.0  0.67812  0.98875  0.80793  1.0000
  C   C1919     1.0  0.51267  0.90994  0.75970  1.0000
  S   S768      1.0  0.65376  0.98197  0.82265  1.0000
  H   H3066     1.0  0.53746  0.96752  0.73570  1.0000
  H   H3067     1.0  0.63810  0.66870  0.89145  1.0000
  H   H3068     1.0  0.60784  0.94161  0.73432  1.0000
  H   H3069     1.0  0.57048  0.97673  0.73480  1.0000
  H   H3070     1.0  0.65194  0.98013  0.73487  1.0000
  H   H3071     1.0  0.75087  0.65826  0.97410  1.0000
  H   H3072     1.0  0.49833  0.76363  0.76024  1.0000
  Fe  Fe384     1.0  0.81315  0.65733  0.96033  1.0000
  C   C1920     1.0  0.77226  0.74130  0.98164  1.0000
