data_image0
_chemical_formula_structural       FeS2FeS2FeSFeS3FeS2FeS2FeSFeS3FeS2FeS2FeSFeS3FeS2FeS2FeSFeS3FeS2FeS2FeSFeS3FeS2FeS2FeSFeS3FeS2FeS2FeSFeS3FeS2FeS2FeSFeS3FeS2FeS2FeSFeS3FeS2FeS2FeSFeS3FeS2FeS2FeSFeS3FeS2FeS2FeSFeS3FeS2FeS2FeSFeS3FeS2FeS2FeSFeS3FeS2FeS2FeSFeS3FeS2FeS2FeSFeS3FeS2FeS2FeSFeS3FeS2FeS2FeSFeS3FeS2FeS2FeSFeS3FeS2FeS2FeSFeS3FeS2FeS2FeSFeS3FeS2FeS2FeSFeS3FeS2FeS2FeSFeS3FeS2FeS2FeSFeS3C6H4C6H4C6H4C6H4C6H4C6H4C6H4C6H4C6H4C6H4C6H4C6H4C6H4C6H4C6H4C6H4C6H4C6H4C6H4C6H4C6H4C6H4C6H4C6H4C6H4C6H4C6H4C6H4C6H4C6H4C6H4C6H4C6H4C6H4C6H4C6H4C6H4C6H4C6H4C6H4C6H4C6H4C6H4C6H4C6H4C6H4C6H4C6H4NC4H12NC4H12NC4H12NC4H12NC4H12NC4H12NC4H12NC4H12NC4H12NC4H12NC4H12NC4H12NC4H12NC4H12NC4H12NC4H12NC4H12NC4H12NC4H12NC4H12NC4H12NC4H12NC4H12NC4H12NC4H12NC4H12NC4H12NC4H12NC4H12NC4H12NC4H12NC4H12NC4H12NC4H12NC4H12NC4H12NC4H12NC4H12NC4H12NC4H12NC4H12NC4H12NC4H12NC4H12NC4H12NC4H12NC4H12NC4H12
_chemical_formula_sum              "Fe96 S192 C480 H768 N48"
_cell_length_a       43.27993415230689
_cell_length_b       47.836413738247686
_cell_length_c       45.3178007869931
_cell_angle_alpha    89.97658529580117
_cell_angle_beta     89.94172858179033
_cell_angle_gamma    89.67670967523276

_space_group_name_H-M_alt    "P 1"
_space_group_IT_number       1

loop_
  _space_group_symop_operation_xyz
  'x, y, z'

loop_
  _atom_site_type_symbol
  _atom_site_label
  _atom_site_symmetry_multiplicity
  _atom_site_fract_x
  _atom_site_fract_y
  _atom_site_fract_z
  _atom_site_occupancy
  Fe  Fe1       1.0  0.3256651225768102  0.7213980317034705  0.021523833765132006  1.0000
  S   S1        1.0  0.37237492979755094  0.7034900991906667  0.031600732999647274  1.0000
  S   S2        1.0  0.28159949240685833  0.7098929394367202  0.044288887187196924  1.0000
  Fe  Fe2       1.0  0.3495750761064934  0.7602779962463444  0.9739491735428973  1.0000
  S   S3        1.0  0.39859924825058735  0.7457882706873152  0.9792463109277066  1.0000
  S   S4        1.0  0.337040986791508  0.7950874366293216  0.9427051086907716  1.0000
  Fe  Fe3       1.0  0.37807785134583677  0.702955511190006  0.9824342674769491  1.0000
  S   S5        1.0  0.39418765747562334  0.6650273108791234  0.9580056771120373  1.0000
  Fe  Fe4       1.0  0.3886931208992408  0.7477390094944536  0.027818622474427457  1.0000
  S   S6        1.0  0.41915523919796344  0.7676432279032455  0.06182562898401622  1.0000
  S   S7        1.0  0.3298005106015379  0.7171394064617207  0.9725605470631856  1.0000
  S   S8        1.0  0.3411994559664372  0.7658941349432021  0.022259733783460245  1.0000
  Fe  Fe5       1.0  0.17917741130677997  0.810622626376684  0.8752367790677718  1.0000
  S   S9        1.0  0.1712654359647291  0.7763977593222616  0.8424068801758064  1.0000
  S   S10       1.0  0.19306384900785056  0.7972122184071886  0.920972399504795  1.0000
  Fe  Fe6       1.0  0.1592620294463009  0.8559916815385851  0.832418310596136  1.0000
  S   S11       1.0  0.14986382839828152  0.8257463219132795  0.7957815067888098  1.0000
  S   S12       1.0  0.14709824425002743  0.9016709371514099  0.8297110976768859  1.0000
  Fe  Fe7       1.0  0.12805396633536748  0.7997364764158497  0.8308863511876473  1.0000
  S   S13       1.0  0.08209218271995544  0.7807036789591875  0.821149829077691  1.0000
  Fe  Fe8       1.0  0.19392435642649827  0.805362118378034  0.8101728010500503  1.0000
  S   S14       1.0  0.22791774554256375  0.7873311028374844  0.7779146018537155  1.0000
  S   S15       1.0  0.13357286553413117  0.8314639957415034  0.8666132112399783  1.0000
  S   S16       1.0  0.20577331619769132  0.8379242844089645  0.8440530083674823  1.0000
  Fe  Fe9       1.0  0.2972429403793182  0.6463588308513938  0.8249141769893229  1.0000
  S   S17       1.0  0.2823317640001025  0.6352600252386608  0.7789268085166928  1.0000
  S   S18       1.0  0.3313350344179135  0.680496971770792  0.833950044865658  1.0000
  Fe  Fe10      1.0  0.250957535318451  0.6081396136854471  0.8540331637450708  1.0000
  S   S19       1.0  0.23196045518972416  0.5935077164817687  0.8108341095957945  1.0000
  S   S20       1.0  0.23219496471846424  0.5920700405863043  0.8968332111300122  1.0000
  Fe  Fe11      1.0  0.281313382032437  0.5912355428934505  0.7963203606466719  1.0000
  S   S21       1.0  0.2980161778412128  0.5510156297367347  0.7759229168556976  1.0000
  Fe  Fe12      1.0  0.23434846251728622  0.6385087802610162  0.7976825682097481  1.0000
  S   S22       1.0  0.19306823979079596  0.6604530203167964  0.7785538419572987  1.0000
  S   S23       1.0  0.3002873728334863  0.6020718444019674  0.8409188082066812  1.0000
  S   S24       1.0  0.2493240218969672  0.6532690558414189  0.8422240213488963  1.0000
  Fe  Fe13      1.0  0.7643796220750493  0.9910154664032728  0.033944294689279175  1.0000
  S   S25       1.0  0.7754390116490644  0.978363508590768  0.08015695451847282  1.0000
  S   S26       1.0  0.7341540023405279  0.9657244314915818  0.004097859962475248  1.0000
  Fe  Fe14      1.0  0.7999126358285261  0.044561267886750855  0.03861923658045274  1.0000
  S   S27       1.0  0.8146750864608527  0.03651714218943947  0.085408242183592  1.0000
  S   S28       1.0  0.815087943699984  0.08325126725682826  0.01483307240781051  1.0000
  Fe  Fe15      1.0  0.8231634765094111  0.9928125501489694  0.06972370508272352  1.0000
  S   S29       1.0  0.8632980474839689  0.9678385878946949  0.08673521452396216  1.0000
  Fe  Fe16      1.0  0.7658312125012078  0.022764532972165963  0.09209083443604227  1.0000
  S   S30       1.0  0.7414405736860813  0.026742002682264458  0.13564486440552592  1.0000
  S   S31       1.0  0.8131435167343612  0.0019065729335205894  0.02217235243350979  1.0000
  S   S32       1.0  0.7500151567680392  0.03453143766024236  0.0466002149910707  1.0000
  Fe  Fe17      1.0  0.5876215363810912  0.04792843073142809  0.23428208538029735  1.0000
  S   S33       1.0  0.5895914614351013  0.09196290444874788  0.2173640654447473  1.0000
  S   S34       1.0  0.6207498345330922  0.03443201374692018  0.2699450368214303  1.0000
  Fe  Fe18      1.0  0.5350731802202726  0.03220137124311048  0.19407304038755724  1.0000
  S   S35       1.0  0.532502827117972  0.07430611780357747  0.17279577620000963  1.0000
  S   S36       1.0  0.5075403131897566  0.9952442268787733  0.17975029273747384  1.0000
  Fe  Fe19      1.0  0.584167706531513  0.07262843093070549  0.17280422976528115  1.0000
  S   S37       1.0  0.6125904842863937  0.08896929519986191  0.13517644801206383  1.0000
  Fe  Fe20      1.0  0.5379010863781766  0.09052228443137136  0.218876132100799  1.0000
  S   S38       1.0  0.5094428546071128  0.12865591513257407  0.2291259553466321  1.0000
  S   S39       1.0  0.5862842946336012  0.028629980535233104  0.18932697278675822  1.0000
  S   S40       1.0  0.5360656092875561  0.04832558572079802  0.2405277795481856  1.0000
  Fe  Fe21      1.0  0.5739844857038998  0.9115645749864797  0.06314369113204495  1.0000
  S   S41       1.0  0.605359622644724  0.8989094109096355  0.09994190918541071  1.0000
  S   S42       1.0  0.5663316144217095  0.9578131359000317  0.05917217690489052  1.0000
  Fe  Fe22      1.0  0.5636804421643669  0.8520461318376209  0.04321334454093995  1.0000
  S   S43       1.0  0.5944004530883098  0.8341376458913546  0.07814108807167797  1.0000
  S   S44       1.0  0.541000769059165  0.8219138049891387  0.012006206245942952  1.0000
  Fe  Fe23      1.0  0.5711221127535667  0.8649643054632513  0.10794396646870429  1.0000
  S   S45       1.0  0.5589458216971136  0.8511374543563437  0.15368498543014655  1.0000
  Fe  Fe24      1.0  0.626270809168758  0.8692416608911444  0.0672801612226987  1.0000
  S   S46       1.0  0.6776575880157911  0.8624747188237752  0.07011582682898232  1.0000
  S   S47       1.0  0.537446756038151  0.8801158974862979  0.07405631029621408  1.0000
  S   S48       1.0  0.597741290851451  0.8848491894957705  0.029189615022153115  1.0000
  Fe  Fe25      1.0  0.5126495594976886  0.22429201756656314  0.3601477737624424  1.0000
  S   S49       1.0  0.5263320548412498  0.26207262136717907  0.3862206574628155  1.0000
  S   S50       1.0  0.5484718555290551  0.1937383668576573  0.34384068574616616  1.0000
  Fe  Fe26      1.0  0.4443571090934875  0.2349664272791857  0.3686835720502542  1.0000
  S   S51       1.0  0.4515332476918912  0.27356209146524185  0.39539449610358934  1.0000
  S   S52       1.0  0.3960216611739413  0.22116715509757132  0.3590985715901555  1.0000
  Fe  Fe27      1.0  0.48792950693525994  0.2837984545290337  0.3620014912457783  1.0000
  S   S53       1.0  0.4923181638509027  0.3287777932006435  0.348282360295137  1.0000
  Fe  Fe28      1.0  0.48908757423302807  0.248800889290935  0.41737265905291104  1.0000
  S   S54       1.0  0.49694556205856744  0.25126569212686833  0.46604702210230287  1.0000
  S   S55       1.0  0.47740800719119747  0.24716096425708942  0.33283647984936143  1.0000
  S   S56       1.0  0.4785955651019929  0.20896956488679974  0.39372932908946495  1.0000
  Fe  Fe29      1.0  0.29055050471216226  0.2747690085721219  0.46908537813010914  1.0000
  S   S57       1.0  0.24230551000084746  0.2768126109201745  0.4515619613286575  1.0000
  S   S58       1.0  0.3173859059101686  0.23524847639696403  0.4756950796929668  1.0000
  Fe  Fe30      1.0  0.2969065846442474  0.3375368888758263  0.47359972149714424  1.0000
  S   S59       1.0  0.2489904849089419  0.3454040930398492  0.45685444828335015  1.0000
  S   S60       1.0  0.32866298459844767  0.3737853612252481  0.4805647944860644  1.0000
  Fe  Fe31      1.0  0.23548307997989712  0.3098365079151827  0.4864227132992833  1.0000
  S   S61       1.0  0.19626306735905946  0.3138781735715985  0.5190623697285007  1.0000
  Fe  Fe32      1.0  0.25999403931180926  0.3121214082998476  0.4237109942470969  1.0000
  S   S62       1.0  0.2524053229781053  0.31622123557461224  0.3748806830263049  1.0000
  S   S63       1.0  0.28268434513915247  0.30488930019258487  0.5061916902173134  1.0000
  S   S64       1.0  0.30900084635084446  0.3069357168560973  0.43828996751632804  1.0000
  Fe  Fe33      1.0  0.38726362403097686  0.45597151711702144  0.31435773073329126  1.0000
  S   S65       1.0  0.39705825896687275  0.44342820964902635  0.26761214673433736  1.0000
  S   S66       1.0  0.4254408569546296  0.46663133885463265  0.3457688424762171  1.0000
  Fe  Fe34      1.0  0.3194070435207594  0.441811013841685  0.3101921632989691  1.0000
  S   S67       1.0  0.3232734902087521  0.4271692143125686  0.26345144770450546  1.0000
  S   S68       1.0  0.2750267682143739  0.4410358971344123  0.3356342860606438  1.0000
  Fe  Fe35      1.0  0.36720452107997725  0.4066788775638347  0.27813478716219814  1.0000
  S   S69       1.0  0.3801086502854315  0.36255520678610614  0.2671997398129161  1.0000
  Fe  Fe36      1.0  0.3523041751888722  0.4653785723889895  0.25740969597496083  1.0000
  S   S70       1.0  0.34434958643801133  0.49059235536228535  0.2162608525623997  1.0000
  S   S71       1.0  0.3605551709932795  0.4175428770670715  0.325684412746931  1.0000
  S   S72       1.0  0.3452710519980078  0.4817484326720108  0.3034012915347978  1.0000
  Fe  Fe37      1.0  0.8301016233604204  0.9471328803063346  0.26581166034519627  1.0000
  S   S73       1.0  0.8368264641760466  0.946749429583244  0.31474683427874484  1.0000
  S   S74       1.0  0.8661481433543716  0.9467076251713383  0.2306827964287039  1.0000
  Fe  Fe38      1.0  0.7609688105114581  0.9442779420969637  0.2692051826836759  1.0000
  S   S75       1.0  0.7601743698184656  0.9435373049369958  0.318652021125468  1.0000
  S   S76       1.0  0.7214635218238694  0.9436830932087673  0.23733946552880028  1.0000
  Fe  Fe39      1.0  0.7965764310891397  0.9765156250906085  0.31554758319378295  1.0000
  S   S77       1.0  0.7929073977275345  0.013937702592333734  0.3453259274965496  1.0000
  Fe  Fe40      1.0  0.8001459571900008  0.9138446204738258  0.3145500968928294  1.0000
  S   S78       1.0  0.8050296838809912  0.8769615653031632  0.3446165310072791  1.0000
  S   S79       1.0  0.7935489062934207  0.980239214078483  0.2662796735422331  1.0000
  S   S80       1.0  0.7973637726093433  0.9110703823567622  0.265492582965737  1.0000
  Fe  Fe41      1.0  0.8583723140281954  0.8122419716687893  0.11698028679910343  1.0000
  S   S81       1.0  0.9044498668871155  0.8196142052517623  0.13783338876676854  1.0000
  S   S82       1.0  0.8292716979083706  0.8397560840984709  0.08800310734456951  1.0000
  Fe  Fe42      1.0  0.851522142555082  0.7554956639468213  0.14383608362542355  1.0000
  S   S83       1.0  0.8966424184935987  0.7566917732050596  0.1680399013798059  1.0000
  S   S84       1.0  0.8145333139269681  0.7232469388464058  0.14517250450505315  1.0000
  Fe  Fe43      1.0  0.8835580000401522  0.8009372002045181  0.17841369697792137  1.0000
  S   S85       1.0  0.893339939985581  0.8176994647177528  0.22356334133467418  1.0000
  Fe  Fe44      1.0  0.9151457726837726  0.7751337688275951  0.12620347121811026  1.0000
  S   S86       1.0  0.965006267776757  0.7695549020964787  0.11394846590702014  1.0000
  S   S87       1.0  0.836378435379823  0.7978964499501678  0.1589346787965535  1.0000
  S   S88       1.0  0.8712122529853988  0.7695404519765944  0.10055085410481042  1.0000
  Fe  Fe45      1.0  0.6778478399291373  0.775545006288598  0.24606727020882288  1.0000
  S   S89       1.0  0.6815454257462514  0.7288950366824644  0.24493901201683768  1.0000
  S   S90       1.0  0.6823927468239926  0.7998192900957204  0.20401654463526478  1.0000
  Fe  Fe46      1.0  0.6821608798870747  0.7781627231425642  0.3129270940614954  1.0000
  S   S91       1.0  0.6872661720984455  0.7318029604061537  0.3174633946303918  1.0000
  S   S92       1.0  0.684378306358946  0.8043858809787762  0.3538695212859232  1.0000
  Fe  Fe47      1.0  0.7190322080924119  0.7348003730731033  0.2784851918644823  1.0000
  S   S93       1.0  0.7672403264929463  0.7171423845871553  0.27670210644595133  1.0000
  Fe  Fe48      1.0  0.6493735418465553  0.7302896807869503  0.2837271035957284  1.0000
  S   S94       1.0  0.6072355808834439  0.7031986162592301  0.28786046606495835  1.0000
  S   S95       1.0  0.7172149515025914  0.7814004957254945  0.2771216250478996  1.0000
  S   S96       1.0  0.641971701162685  0.7768316155033052  0.28193791184872935  1.0000
  Fe  Fe49      1.0  0.9858445992061666  0.9466295231953902  0.7550121875914259  1.0000
  S   S97       1.0  0.003474155287687797  0.9197576334424337  0.7181760973494645  1.0000
  S   S98       1.0  0.9743525919820428  0.9314486540348631  0.8002928057636484  1.0000
  Fe  Fe50      1.0  0.9966354833333655  0.0005761128150549855  0.7220338660250804  1.0000
  S   S99       1.0  0.01651188707826723  0.9787906042604895  0.68251053757618  1.0000
  S   S100      1.0  0.988805130444167  0.04701700400943576  0.7245597354164446  1.0000
  Fe  Fe51      1.0  0.9773556175960957  0.9491695025125965  0.6886261292184502  1.0000
  S   S101      1.0  0.951665973454242  0.9380389224126757  0.6474319625849727  1.0000
  Fe  Fe52      1.0  0.04111138948535231  0.9515339859333924  0.7151435427946347  1.0000
  S   S102      1.0  0.08851950483543458  0.9341699050599872  0.7069970871444248  1.0000
  S   S103      1.0  0.9554653622592081  0.9727579589558044  0.7259694162521346  1.0000
  S   S104      1.0  0.025377952310435603  0.9764382962776929  0.754243372625344  1.0000
  Fe  Fe53      1.0  0.10253636515434324  0.19097754511813256  0.5807892818520501  1.0000
  S   S105      1.0  0.06675055795664608  0.22341788447761937  0.5918252159627364  1.0000
  S   S106      1.0  0.13841069052352067  0.195732557253935  0.5452573214165742  1.0000
  Fe  Fe54      1.0  0.07150942446914899  0.14614614325881417  0.6181056480343108  1.0000
  S   S107      1.0  0.03255669994084287  0.17440580186915963  0.6315137591727399  1.0000
  S   S108      1.0  0.07661502574560974  0.1008103843817471  0.6298760180110057  1.0000
  Fe  Fe55      1.0  0.03294044114423955  0.1887936244328011  0.5844834096942287  1.0000
  S   S109      1.0  0.9890942191359594  0.1966648626380481  0.5593342690817757  1.0000
  Fe  Fe56      1.0  0.07001278911073228  0.20598818237742528  0.6377046986015342  1.0000
  S   S110      1.0  0.06989184748420696  0.23141154415514076  0.6791303994337665  1.0000
  S   S111      1.0  0.06836645446783507  0.15746799927234692  0.5703898015321507  1.0000
  S   S112      1.0  0.10931741235185881  0.17666504709987757  0.6274789743011341  1.0000
  Fe  Fe57      1.0  0.8548317405636264  0.031539502873372316  0.49959357407236143  1.0000
  S   S113      1.0  0.8269735427759978  0.046811208817507347  0.5382954326626194  1.0000
  S   S114      1.0  0.8456871958073894  0.9925698782472151  0.473365469447392  1.0000
  Fe  Fe58      1.0  0.9020805782292944  0.07744336421540259  0.5047364603163939  1.0000
  S   S115      1.0  0.8785480706630193  0.09697085166930416  0.5436243905759506  1.0000
  S   S116      1.0  0.9474482851638794  0.09156677259699625  0.48620533519441383  1.0000
  Fe  Fe59      1.0  0.8729135671425676  0.05329665597353244  0.5599799607127876  1.0000
  S   S117      1.0  0.884086828096063  0.04920263640066347  0.6080988488215218  1.0000
  Fe  Fe60      1.0  0.8349777030291776  0.08921722513126873  0.5185169037587628  1.0000
  S   S118      1.0  0.7958577112244537  0.11999833069870175  0.5167574771303235  1.0000
  S   S119      1.0  0.9003026963506177  0.03415655332385051  0.5232317516107471  1.0000
  S   S120      1.0  0.8589469860889531  0.07348192125867208  0.47789946568108577  1.0000
  Fe  Fe61      1.0  0.09314316419793167  0.6967986424456131  0.9918194911841922  1.0000
  S   S121      1.0  0.07453042462436144  0.6534324736466208  0.996231827217469  1.0000
  S   S122      1.0  0.14109017081240993  0.7033940171844341  0.00832578840973519  1.0000
  Fe  Fe62      1.0  0.03615255344373569  0.7185864656441916  0.9610495322526442  1.0000
  S   S123      1.0  0.012264068979886522  0.6772274101647435  0.9628424381668612  1.0000
  S   S124      1.0  0.011493508195195234  0.7542570640989789  0.9393517830526877  1.0000
  Fe  Fe63      1.0  0.03052169246680103  0.6751205728965252  0.009129423787612945  1.0000
  S   S125      1.0  0.0006614899002814756  0.6596995328932759  0.046366407487996364  1.0000
  Fe  Fe64      1.0  0.058386580717708414  0.6598810636667987  0.9498303131548438  1.0000
  S   S126      1.0  0.06661904816460718  0.6292465368137754  0.9135162448787317  1.0000
  S   S127      1.0  0.050452634194131374  0.7183586026480391  0.008450066665226741  1.0000
  S   S128      1.0  0.08099204155187634  0.7013765885968998  0.9441879157642711  1.0000
  Fe  Fe65      1.0  0.22645424947127216  0.5769172976881062  0.10360910448061786  1.0000
  S   S129      1.0  0.218228299200278  0.5977917053702818  0.14729347230112183  1.0000
  S   S130      1.0  0.2715372559071678  0.5828978920015363  0.07970010523011238  1.0000
  Fe  Fe66      1.0  0.1631127085576287  0.5503036914859368  0.10276699543084508  1.0000
  S   S131      1.0  0.15015435476281508  0.5682087514989986  0.1466727550548845  1.0000
  S   S132      1.0  0.12503175508737932  0.5305306297595139  0.07690199488357684  1.0000
  Fe  Fe67      1.0  0.1710875555634331  0.60754938582502  0.1293902702585133  1.0000
  S   S133      1.0  0.1431177310057966  0.6471342042378652  0.1338022184385832  1.0000
  Fe  Fe68      1.0  0.19831637418850614  0.5563607941585698  0.1602543714848653  1.0000
  S   S134      1.0  0.20909550059989346  0.539299458018627  0.2055045118865651  1.0000
  S   S135      1.0  0.181086090218974  0.5902990987729928  0.08439430246957218  1.0000
  S   S136      1.0  0.20961806373186773  0.5346192523225641  0.11760771420061635  1.0000
  Fe  Fe69      1.0  0.11277809779581471  0.4854995947723527  0.8786399115894576  1.0000
  S   S137      1.0  0.13580937552438654  0.44466247203279835  0.8890099321608957  1.0000
  S   S138      1.0  0.12843998319312838  0.5161475508873064  0.844809779467428  1.0000
  Fe  Fe70      1.0  0.06602035781142868  0.4808904041226089  0.9279937018411267  1.0000
  S   S139      1.0  0.08442449899076432  0.4395233125163354  0.9433955294104325  1.0000
  S   S140      1.0  0.02944349654256606  0.5068655862708693  0.9499652599576506  1.0000
  Fe  Fe71      1.0  0.13118883794998645  0.45835418507378434  0.9361486186499199  1.0000
  S   S141      1.0  0.17032703253658077  0.45894656053874583  0.9683210591414377  1.0000
  Fe  Fe72      1.0  0.08716431231212729  0.42944581808163873  0.8950248449391685  1.0000
  S   S142      1.0  0.07090223664883233  0.38741117548150555  0.8797848067614944  1.0000
  S   S143      1.0  0.11238237189358898  0.5004908708218695  0.9251344061578378  1.0000
  S   S144      1.0  0.0644669255782746  0.46931979223296083  0.8802265216447521  1.0000
  Fe  Fe73      1.0  0.9355608651060006  0.346291335039668  0.7968565569594758  1.0000
  S   S145      1.0  0.9729663935708174  0.3209362912597165  0.775467949995341  1.0000
  S   S146      1.0  0.9475957372605359  0.39092599937923805  0.806195564344983  1.0000
  Fe  Fe74      1.0  0.8913301557208947  0.29839882191977846  0.8005540857688631  1.0000
  S   S147      1.0  0.9246343145503336  0.2686016422179949  0.7799396706713562  1.0000
  S   S148      1.0  0.8459923283532461  0.2796411258964787  0.8133250694585097  1.0000
  Fe  Fe75      1.0  0.9601968539632851  0.288365687533488  0.8084887419277174  1.0000
  S   S149      1.0  0.9951483485120097  0.2580730487315278  0.8262651321988171  1.0000
  Fe  Fe76      1.0  0.934939054618594  0.30282159203118014  0.7482339855849179  1.0000
  S   S150      1.0  0.9401470475530864  0.2888216121609233  0.7011699762508778  1.0000
  S   S151      1.0  0.9257742073664208  0.3150676602253361  0.832716808749135  1.0000
  S   S152      1.0  0.89825834685332  0.3315557744510701  0.7660742282593305  1.0000
  Fe  Fe77      1.0  0.8567919668296734  0.08595524693321961  0.8599842767419754  1.0000
  S   S153      1.0  0.8854337246150777  0.06367983493365607  0.8259384885904317  1.0000
  S   S154      1.0  0.8128394391163623  0.06761172304166548  0.8771139841940021  1.0000
  Fe  Fe78      1.0  0.902598695984348  0.13304099716917783  0.8668803348253415  1.0000
  S   S155      1.0  0.9357816713024966  0.1149053200291322  0.8340059355299374  1.0000
  S   S156      1.0  0.9066460436093415  0.17383623055130668  0.8905280805086233  1.0000
  Fe  Fe79      1.0  0.8931619803101135  0.10664555219995799  0.8072820702523572  1.0000
  S   S157      1.0  0.89355741155129  0.1190771470971245  0.7593694836641822  1.0000
  Fe  Fe80      1.0  0.9250819721805412  0.073942114122835  0.8558476539755407  1.0000
  S   S158      1.0  0.9605802861694439  0.043330707046507516  0.872346474447449  1.0000
  S   S159      1.0  0.8607202854517864  0.12789093160179374  0.8385803730897163  1.0000
  S   S160      1.0  0.8958289770995934  0.09299262638867296  0.8912363722804323  1.0000
  Fe  Fe81      1.0  0.7833099723753801  0.22269597464417085  0.6316414015348688  1.0000
  S   S161      1.0  0.7476255675593395  0.18924107452700709  0.6377202483119482  1.0000
  S   S162      1.0  0.8235998096602081  0.22088906193411978  0.6007362249284773  1.0000
  Fe  Fe82      1.0  0.7579579815226525  0.2583627988178718  0.6805494898744138  1.0000
  S   S163      1.0  0.720529991296949  0.2282326171596546  0.6918924271294907  1.0000
  S   S164      1.0  0.7641510850599212  0.3003540046489881  0.7010421427054256  1.0000
  Fe  Fe83      1.0  0.7571217717018339  0.19517652095636187  0.685916795375816  1.0000
  S   S165      1.0  0.7611144047320978  0.15824367650296328  0.7164523856267182  1.0000
  Fe  Fe84      1.0  0.714390491139201  0.22515314073946316  0.6428790352935029  1.0000
  S   S166      1.0  0.6658798405415688  0.22805954771096226  0.6255204299341247  1.0000
  S   S167      1.0  0.7953291080329858  0.2258167544570442  0.6794819663252218  1.0000
  S   S168      1.0  0.7492757478338433  0.2580048236552904  0.6320944150627188  1.0000
  Fe  Fe85      1.0  0.5325901792770709  0.5520268178896099  0.4211675301515335  1.0000
  S   S169      1.0  0.5450038676572094  0.586288627152208  0.4526579529824156  1.0000
  S   S170      1.0  0.5356836150283347  0.5056627897199487  0.4282046048488113  1.0000
  Fe  Fe86      1.0  0.5029162621345873  0.5916970517914953  0.3770417489663661  1.0000
  S   S171      1.0  0.5109265115710253  0.6296806244937241  0.40505270249815906  1.0000
  S   S172      1.0  0.47783053202799564  0.5881156378606165  0.3338911713209402  1.0000
  Fe  Fe87      1.0  0.5579408538375281  0.6104302292124634  0.41188019778731066  1.0000
  S   S173      1.0  0.6022274880263753  0.6341694358216863  0.40634948374068347  1.0000
  Fe  Fe88      1.0  0.4973521526563662  0.6024542422878782  0.4433471005807382  1.0000
  S   S174      1.0  0.46534760543771375  0.6124975084819391  0.4809355075013512  1.0000
  S   S175      1.0  0.550702982970132  0.574226478600574  0.38138245593803755  1.0000
  S   S176      1.0  0.48414414507577025  0.566815334653139  0.41436960744113344  1.0000
  Fe  Fe89      1.0  0.35830053999372047  0.5149155570670604  0.623944969861057  1.0000
  S   S177      1.0  0.3466622024216723  0.48715873934196907  0.5856120261655796  1.0000
  S   S178      1.0  0.3274449296076571  0.5499424162444921  0.6396051942604178  1.0000
  Fe  Fe90      1.0  0.4219878053929375  0.49070402165134364  0.6316706066777718  1.0000
  S   S179      1.0  0.4167423807819309  0.46041727524027054  0.5946206826891035  1.0000
  S   S180      1.0  0.4667182747201755  0.495022391141741  0.6558423558940093  1.0000
  Fe  Fe91      1.0  0.3948626254408264  0.4959285223810896  0.5702314640518835  1.0000
  S   S181      1.0  0.4101361127436735  0.4978063603759335  0.5230710000581417  1.0000
  Fe  Fe92      1.0  0.3693114765061447  0.45343814672387284  0.6125552495779965  1.0000
  S   S182      1.0  0.3516879346836765  0.40940517708787194  0.6124628448439866  1.0000
  S   S183      1.0  0.4045777808853669  0.5272199656707639  0.605649104823537  1.0000
  S   S184      1.0  0.37666293885450286  0.48022890579662736  0.6525881344256174  1.0000
  Fe  Fe93      1.0  0.5928640158588112  0.4253973113919555  0.5547920667260863  1.0000
  S   S185      1.0  0.5432376673435416  0.4166955901617851  0.5643316582037285  1.0000
  S   S186      1.0  0.6049119837597108  0.4699357865198772  0.5450898655485139  1.0000
  Fe  Fe94      1.0  0.6110390298526353  0.36417117408424116  0.5556574250093529  1.0000
  S   S187      1.0  0.5626589386210498  0.34985684788456795  0.5642630805705116  1.0000
  S   S188      1.0  0.6514280171188741  0.33575449976654753  0.5463451148717406  1.0000
  Fe  Fe95      1.0  0.5486963752464027  0.3825019863250884  0.5313605240361523  1.0000
  S   S189      1.0  0.5125078220296062  0.3785526445030982  0.4964401600644392  1.0000
  Fe  Fe96      1.0  0.5613773035740639  0.3852863645819287  0.59654747896095  1.0000
  S   S190      1.0  0.5347490016194892  0.3794930227178189  0.6383249939833285  1.0000
  S   S191      1.0  0.5972237591119666  0.39321446089081324  0.5191998867197712  1.0000
  S   S192      1.0  0.6110844231307981  0.39740888066492097  0.5907943245311614  1.0000
  C   C1        1.0  0.4858019633977397  0.46262282640683317  0.654244163003752  1.0000
  C   C2        1.0  0.5180650224029103  0.4615850679297254  0.6523109844474813  1.0000
  C   C3        1.0  0.5331728614251975  0.4359923385750109  0.6474209613606369  1.0000
  C   C4        1.0  0.5161673818838171  0.4112467462679415  0.6461467152369519  1.0000
  C   C5        1.0  0.48402365977318934  0.4121240717677959  0.6494411026016632  1.0000
  C   C6        1.0  0.4687727839583814  0.4378747820607779  0.6528344195404499  1.0000
  H   H1        1.0  0.5313348859995667  0.48063514849772176  0.6535795630180435  1.0000
  H   H2        1.0  0.5580296595243015  0.4353460751045629  0.6448319690507183  1.0000
  H   H3        1.0  0.4708864930940996  0.3929890132470152  0.6486625436851322  1.0000
  H   H4        1.0  0.44384932482884354  0.4385568529829373  0.654616323176443  1.0000
  C   C7        1.0  0.5555747520389561  0.4962275119924309  0.4603995250667236  1.0000
  C   C8        1.0  0.5512897895655161  0.4694902220043503  0.47205216604224376  1.0000
  C   C9        1.0  0.5667679431712356  0.4613671300632066  0.4977645740107103  1.0000
  C   C10       1.0  0.5867122467954997  0.479880702646948  0.5120252886160473  1.0000
  C   C11       1.0  0.5909468611385275  0.5067368992715439  0.5004516609594986  1.0000
  C   C12       1.0  0.5753529383883101  0.5149247685265808  0.47464093863971046  1.0000
  H   H5        1.0  0.535658240575096  0.4551165067387013  0.461473931646381  1.0000
  H   H6        1.0  0.5625786402174102  0.44093741309755285  0.5068046880755236  1.0000
  H   H7        1.0  0.6064006818427606  0.521138744726899  0.5113235551070066  1.0000
  H   H8        1.0  0.5791894933672662  0.5354478221974414  0.46546512843983207  1.0000
  C   C13       1.0  0.4516412705181402  0.5809122090778291  0.49544563035433653  1.0000
  C   C14       1.0  0.46503678127728315  0.5556384183361829  0.48649055027811056  1.0000
  C   C15       1.0  0.4519306080244426  0.5302334588105185  0.4949193202887363  1.0000
  C   C16       1.0  0.4264651571751453  0.5299126827079875  0.5138172743862797  1.0000
  C   C17       1.0  0.4141574226402444  0.5550542924500971  0.524508245442745  1.0000
  C   C18       1.0  0.4265220593895479  0.5806281069932787  0.5149687644087648  1.0000
  H   H9        1.0  0.48566333793345456  0.5555643672818271  0.47316309965579223  1.0000
  H   H10       1.0  0.46179692560713903  0.5108021573016903  0.48697590033840654  1.0000
  H   H11       1.0  0.3944299709473726  0.5548387437545879  0.5392034061688331  1.0000
  H   H12       1.0  0.4162669114350303  0.6001468641521348  0.5222006104172278  1.0000
  C   C19       1.0  0.6608355580658317  0.2564871789609147  0.6015335034109351  1.0000
  C   C20       1.0  0.6851181455964251  0.2653717703315184  0.5835482772934897  1.0000
  C   C21       1.0  0.6817343670844155  0.28947654602954714  0.5662340116225073  1.0000
  C   C22       1.0  0.6542157248922532  0.30496787792662067  0.5671448668586476  1.0000
  C   C23       1.0  0.6295166137785609  0.29560878530529505  0.5843477520585086  1.0000
  C   C24       1.0  0.6327688376380548  0.27123805506461723  0.6013892419227359  1.0000
  H   H13       1.0  0.7064817366639754  0.2535726775016751  0.5828402393072236  1.0000
  H   H14       1.0  0.7007125968117155  0.29640336248538135  0.5525293690991128  1.0000
  H   H15       1.0  0.6080640627261813  0.30725421050225526  0.5848298411632842  1.0000
  H   H16       1.0  0.6138343237355541  0.26422605021649176  0.6150952462794115  1.0000
  C   C25       1.0  0.8569257699497508  0.13058370070403835  0.7475469151974682  1.0000
  C   C26       1.0  0.8304751750422015  0.1230555331872714  0.7632942016168939  1.0000
  C   C27       1.0  0.8012379440636294  0.13172888362201057  0.7535181340880824  1.0000
  C   C28       1.0  0.7982726345416286  0.14844616095717889  0.7283008915223212  1.0000
  C   C29       1.0  0.8247307836988075  0.15600896938153416  0.7124482818795953  1.0000
  C   C30       1.0  0.8540193798278848  0.14680531374707878  0.7218932643934832  1.0000
  H   H17       1.0  0.8323521580208642  0.11005400187496057  0.7827359488908437  1.0000
  H   H18       1.0  0.780797517792956  0.12558109905229103  0.765645344637989  1.0000
  H   H19       1.0  0.822557548739299  0.1685834369899342  0.6927225288688679  1.0000
  H   H20       1.0  0.8743329762168457  0.1524722297309947  0.7094126424852801  1.0000
  C   C31       1.0  0.9732475513700536  0.23442797758618258  0.8468207235324853  1.0000
  C   C32       1.0  0.9792061357736176  0.20568804506826877  0.8452035087272347  1.0000
  C   C33       1.0  0.95892452963992  0.18676507949045956  0.8587549588836295  1.0000
  C   C34       1.0  0.9333350697881828  0.1967313953113109  0.8746069225212754  1.0000
  C   C35       1.0  0.9284281813778311  0.22550092320248702  0.8773382655338106  1.0000
  C   C36       1.0  0.9480089388107372  0.24426529598124183  0.8630371106677064  1.0000
  H   H21       1.0  0.9990644134586951  0.1981195797714909  0.8330533866999724  1.0000
  H   H22       1.0  0.9634276069530133  0.16459671467953446  0.8575108474960018  1.0000
  H   H23       1.0  0.9092744951043465  0.23341914207203648  0.8902058795417555  1.0000
  H   H24       1.0  0.9437264846539164  0.2664359613407855  0.8649233428007642  1.0000
  C   C37       1.0  0.8205161076615911  0.28603292395401  0.7841800411316836  1.0000
  C   C38       1.0  0.8180119227326725  0.3128885303810639  0.7721791082809417  1.0000
  C   C39       1.0  0.7993217582922132  0.3176091734475364  0.7474319329760235  1.0000
  C   C40       1.0  0.7837451194867584  0.2953177267247908  0.7343297207583078  1.0000
  C   C41       1.0  0.785812966156418  0.26854446002446614  0.74662989669499  1.0000
  C   C42       1.0  0.8040464620272684  0.2639283470755781  0.7716942404018635  1.0000
  H   H25       1.0  0.8305133146028039  0.3300464110259893  0.7820036726636013  1.0000
  H   H26       1.0  0.7977471405477581  0.3383306277348639  0.7379538787961034  1.0000
  H   H27       1.0  0.7735938832375858  0.25129056818191836  0.736705751127695  1.0000
  H   H28       1.0  0.8062121274023328  0.2430660632126373  0.7806597834844208  1.0000
  C   C43       1.0  0.9815656732376319  0.3907796316584666  0.8270619741528679  1.0000
  C   C44       1.0  0.9873831457093374  0.36885888582571424  0.8467124335454858  1.0000
  C   C45       1.0  0.014416152732332765  0.36850426862896674  0.8635298377751468  1.0000
  C   C46       1.0  0.036167987768815024  0.3897117820687571  0.8602649896543155  1.0000
  C   C47       1.0  0.030404152172961885  0.4118181054954051  0.8407593733953933  1.0000
  C   C48       1.0  0.0028898372607022438  0.41251998826559183  0.8243837812279945  1.0000
  H   H29       1.0  0.9707606630327924  0.35242671390904795  0.8495053077306899  1.0000
  H   H30       1.0  0.01839033956645686  0.35177811873045894  0.8791762827998513  1.0000
  H   H31       1.0  0.04752051715506411  0.427888547078389  0.8375437967733086  1.0000
  H   H32       1.0  0.9985227616756428  0.4294525080958526  0.8090638213062382  1.0000
  C   C49       1.0  0.15802268834206898  0.47749057939288253  0.9995577268896393  1.0000
  C   C50       1.0  0.12665962800845318  0.4837596183571506  0.003216739713279626  1.0000
  C   C51       1.0  0.11669329144594344  0.49941987380418135  0.02750518408191982  1.0000
  C   C52       1.0  0.13811772628239563  0.5093978620244831  0.04793908057474927  1.0000
  C   C53       1.0  0.1695626683238976  0.5033026120050103  0.04435317507046599  1.0000
  C   C54       1.0  0.17949386867910785  0.4871104645914123  0.020248502239970767  1.0000
  H   H33       1.0  0.10992764038279983  0.4763544967036246  0.9874819463017637  1.0000
  H   H34       1.0  0.09234328630794325  0.5040104530464333  0.030256926266865936  1.0000
  H   H35       1.0  0.18621220699420302  0.5109850878123438  0.06009435451506606  1.0000
  H   H36       1.0  0.20378666833418643  0.4823383343637164  0.017425014488215096  1.0000
  C   C55       1.0  0.14225351204719394  0.6893853772623214  0.04390374870212099  1.0000
  C   C56       1.0  0.1679958044876544  0.673888373073058  0.05289855431906277  1.0000
  C   C57       1.0  0.16845402418827196  0.6616811407346077  0.08093250422106238  1.0000
  C   C58       1.0  0.14360259574343134  0.6652322646257335  0.10020543680565162  1.0000
  C   C59       1.0  0.1183218262665613  0.6816888566772574  0.09166078654448517  1.0000
  C   C60       1.0  0.11737909448001332  0.6933345206357092  0.0632545958328052  1.0000
  H   H37       1.0  0.1873123858329695  0.6707950109593434  0.03805093875360144  1.0000
  H   H38       1.0  0.18811427673292225  0.6495774005442162  0.08781783611864476  1.0000
  H   H39       1.0  0.09921056747028499  0.6849106845630689  0.10670205050589487  1.0000
  H   H40       1.0  0.09758481848535519  0.7056161197803922  0.0564713770929346  1.0000
  C   C61       1.0  0.053526228524327646  0.5958344863738331  0.9228589639846638  1.0000
  C   C62       1.0  0.06107973127689359  0.5733357409187199  0.9045439271249053  1.0000
  C   C63       1.0  0.052727572058640204  0.5461739828475297  0.9125488656688883  1.0000
  C   C64       1.0  0.036770754348607326  0.5413382606486489  0.9388922876694615  1.0000
  C   C65       1.0  0.02846024875690678  0.563927729350292  0.956941251482961  1.0000
  C   C66       1.0  0.036994742254076396  0.5912282432137991  0.9489913427028265  1.0000
  H   H41       1.0  0.07386292901905112  0.5767922172191332  0.8843238158446453  1.0000
  H   H42       1.0  0.05880501900496071  0.5289784464943001  0.8982083404305043  1.0000
  H   H43       1.0  0.01609009578738907  0.5602585505623062  0.9773223527662988  1.0000
  H   H44       1.0  0.030955168249315657  0.6086323511373871  0.9631328911129708  1.0000
  C   C67       1.0  0.8158734566743924  0.19633973600698862  0.5731056311565234  1.0000
  C   C68       1.0  0.7853911889545583  0.1885894338028492  0.567256690929653  1.0000
  C   C69       1.0  0.7793269013880604  0.16613621081290647  0.5483455762392452  1.0000
  C   C70       1.0  0.803747654608501  0.1511744348478929  0.5355502171588487  1.0000
  C   C71       1.0  0.8341638455823537  0.1600229510268839  0.5399334444641469  1.0000
  C   C72       1.0  0.8402482884427783  0.1826611108585613  0.5586984556560703  1.0000
  H   H45       1.0  0.7664362758932923  0.19975341962955817  0.5774844441223683  1.0000
  H   H46       1.0  0.7557283883932006  0.15971800463009733  0.5444997567288951  1.0000
  H   H47       1.0  0.852999652385798  0.1493937617608475  0.5289952084230822  1.0000
  H   H48       1.0  0.8638495974864843  0.18891180981209743  0.56280901574801  1.0000
  C   C73       1.0  0.03367729876203529  0.24695952992800427  0.6849704936201293  1.0000
  C   C74       1.0  0.026807448301597203  0.2584267137304779  0.7125813720842689  1.0000
  C   C75       1.0  0.9979903829419725  0.2709752689285182  0.7176523464196948  1.0000
  C   C76       1.0  0.9760876836492625  0.27257411830782363  0.6950301570659723  1.0000
  C   C77       1.0  0.9828149828418843  0.26080662175503055  0.6674597770414448  1.0000
  C   C78       1.0  0.011544840746028573  0.2478406976145932  0.662472618610274  1.0000
  H   H49       1.0  0.043744525581133065  0.2574314843838946  0.730088229525763  1.0000
  H   H50       1.0  0.9927604078775712  0.27916757810849685  0.7391595847898531  1.0000
  H   H51       1.0  0.9659346210046759  0.2618255278133863  0.6498964708376738  1.0000
  H   H52       1.0  0.01673223195751672  0.23896020306329757  0.6410855708249458  1.0000
  C   C79       1.0  0.9779059103221364  0.16917901278756525  0.536149955076311  1.0000
  C   C80       1.0  0.9999150226770721  0.15134218052981083  0.5234357289794537  1.0000
  C   C81       1.0  0.9904834359085766  0.12814581101503192  0.5068985709402379  1.0000
  C   C82       1.0  0.9590097709979611  0.12275010438585059  0.503079894427384  1.0000
  C   C83       1.0  0.9370281789630563  0.14130330231880084  0.5146027277561285  1.0000
  C   C84       1.0  0.9464727887766912  0.1645346408316504  0.5310706641613004  1.0000
  H   H53       1.0  0.02417781725960233  0.1552810764359097  0.5263567905675784  1.0000
  H   H54       1.0  0.0075592818528542605  0.11396751310515478  0.4977742232635309  1.0000
  H   H55       1.0  0.9127068972111372  0.13778847662730115  0.5108699464493527  1.0000
  H   H56       1.0  0.9293406777506366  0.17854229638338664  0.5404352651047322  1.0000
  C   C85       1.0  0.9673765198726392  0.9615192903017962  0.8214228872664198  1.0000
  C   C86       1.0  0.9779472458075863  0.9630011446193064  0.8505212392329892  1.0000
  C   C87       1.0  0.9752157415638354  0.9881001750655994  0.8663274359802746  1.0000
  C   C88       1.0  0.9611822894203926  0.01148351570420214  0.8533233558987658  1.0000
  C   C89       1.0  0.949721920741253  0.009741361922333436  0.8245823897274828  1.0000
  C   C90       1.0  0.953168483643915  0.9848868832254563  0.8085400838250019  1.0000
  H   H57       1.0  0.9890984968128674  0.9450606428389907  0.8605185557823414  1.0000
  H   H58       1.0  0.9842742397673632  0.9894617351898786  0.8885295420345929  1.0000
  H   H59       1.0  0.9391051367657907  0.027768641521065437  0.8143615296453461  1.0000
  H   H60       1.0  0.9446264249454658  0.9837414709831855  0.7862568918092868  1.0000
  C   C91       1.0  0.015100987018665801  0.06360837039999226  0.7010795006771834  1.0000
  C   C92       1.0  0.04078604935345531  0.048902834732542345  0.6905641627692226  1.0000
  C   C93       1.0  0.0600611265944293  0.06092535092296322  0.66933526881637  1.0000
  C   C94       1.0  0.05425281592011099  0.0880186790128076  0.6591214697343429  1.0000
  C   C95       1.0  0.02955239545094357  0.1034222537323064  0.6709292727845935  1.0000
  C   C96       1.0  0.009852877772940305  0.09115360151129322  0.6918507781931796  1.0000
  H   H61       1.0  0.04586697482458346  0.028168821262822826  0.6986264158766524  1.0000
  H   H62       1.0  0.07937502499686566  0.04907177069466884  0.6605552570670334  1.0000
  H   H63       1.0  0.02511414503021614  0.12442377813288352  0.6634089289633254  1.0000
  H   H64       1.0  0.9901930523596685  0.10272684587141108  0.700266320470523  1.0000
  C   C97       1.0  0.9342537070523187  0.9689631715508852  0.6343783248644881  1.0000
  C   C98       1.0  0.9400501663061275  0.9941988462938368  0.6488375568083383  1.0000
  C   C99       1.0  0.9250793665086493  0.01872923934385584  0.6400081804343407  1.0000
  C   C100      1.0  0.9042716288920877  0.018375954074593803  0.6165380376324446  1.0000
  C   C101      1.0  0.8992302042738077  0.9934796676322132  0.6010850091932636  1.0000
  C   C102      1.0  0.9141461684887259  0.9686753223173387  0.6101382156886658  1.0000
  H   H65       1.0  0.9558661639329508  0.9949349542087786  0.6671004795189216  1.0000
  H   H66       1.0  0.9298791488550484  0.03804056808854095  0.651289804368912  1.0000
  H   H67       1.0  0.8831977270253053  0.9931179440438941  0.5827772171845497  1.0000
  H   H68       1.0  0.9096597494566461  0.9492475689261491  0.5987403205671826  1.0000
  C   C103      1.0  0.6063332317727449  0.6832093718482255  0.32021660201090174  1.0000
  C   C104      1.0  0.6336142213155866  0.6745936513127463  0.33408494567809915  1.0000
  C   C105      1.0  0.6322845421563964  0.6592694304125709  0.3604680762318466  1.0000
  C   C106      1.0  0.6036830963053186  0.652070335690942  0.3726709078192019  1.0000
  C   C107      1.0  0.5764469053257396  0.660310700665314  0.3584763090333105  1.0000
  C   C108      1.0  0.5777843192109271  0.6761504970841372  0.3325108546929489  1.0000
  H   H69       1.0  0.6557448407825379  0.6793993653214807  0.32433415992119535  1.0000
  H   H70       1.0  0.6534227326526489  0.6527892793164242  0.37131723743989026  1.0000
  H   H71       1.0  0.5543284619318171  0.6552914258828829  0.3679690457920076  1.0000
  H   H72       1.0  0.5566431055374369  0.6833463866205156  0.32220221634861845  1.0000
  C   C109      1.0  0.9756554607440445  0.7366323956768704  0.10029587643147128  1.0000
  C   C110      1.0  0.9539910878478562  0.7152251061107548  0.0970789557295032  1.0000
  C   C111      1.0  0.9622402957940375  0.6905600609545207  0.08205429711023501  1.0000
  C   C112      1.0  0.9920166235863785  0.6875082707966735  0.07023408132223799  1.0000
  C   C113      1.0  0.014095688433743092  0.708117981551413  0.07533535274228464  1.0000
  C   C114      1.0  0.005896809924420321  0.7327112422430065  0.09016388251897656  1.0000
  H   H73       1.0  0.9306134918855549  0.7181028693154408  0.1050721991690454  1.0000
  H   H74       1.0  0.9451492965089119  0.6745114439042847  0.0783501387256046  1.0000
  H   H75       1.0  0.037466975854790086  0.705282956001092  0.06750802076032276  1.0000
  H   H76       1.0  0.022812462578200243  0.7490677044891014  0.09295416907288169  1.0000
  C   C115      1.0  0.8019367356827549  0.7193754862130828  0.1816745318488953  1.0000
  C   C116      1.0  0.8227453057584015  0.7219806782222288  0.20511556045127796  1.0000
  C   C117      1.0  0.812268567427763  0.7196123087305915  0.23431364094881663  1.0000
  C   C118      1.0  0.7807696876869272  0.7159601621446031  0.24014039500332254  1.0000
  C   C119      1.0  0.7601160807760347  0.7130866775854813  0.21664557932977038  1.0000
  C   C120      1.0  0.7707203862615063  0.7144243052468446  0.18745168604655535  1.0000
  H   H77       1.0  0.8469898959796026  0.7252927739138242  0.20072507121821548  1.0000
  H   H78       1.0  0.8285043814334294  0.7209923567824463  0.25232279081887515  1.0000
  H   H79       1.0  0.7360304843091877  0.7093424002411294  0.2208809019361627  1.0000
  H   H80       1.0  0.7546185081892048  0.7121622410305375  0.16938101006033005  1.0000
  C   C121      1.0  0.8066341087114531  0.0076876305414408375  0.38119579899671563  1.0000
  C   C122      1.0  0.8024651247094884  0.02792750470719163  0.40320681082869986  1.0000
  C   C123      1.0  0.8140159312765586  0.023349285633343486  0.4317851497126351  1.0000
  C   C124      1.0  0.8299131907498237  0.998577478733177  0.4383089091620694  1.0000
  C   C125      1.0  0.8338665122988257  0.9783006263057128  0.41638559569074174  1.0000
  C   C126      1.0  0.8221506509797993  0.982784824007177  0.3879509935625991  1.0000
  H   H81       1.0  0.7902795227822874  0.04717288845344769  0.3981753695684078  1.0000
  H   H82       1.0  0.8104201657235093  0.03892550204412082  0.4487598031558648  1.0000
  H   H83       1.0  0.8464201385716738  0.9592312314328342  0.42130928991869604  1.0000
  H   H84       1.0  0.8253904942870761  0.9670304870549417  0.3712615872616749  1.0000
  C   C127      1.0  0.8775005473989346  0.9117030923318179  0.22836926275760322  1.0000
  C   C128      1.0  0.8798355794981172  0.8986448201209617  0.2008641730851599  1.0000
  C   C129      1.0  0.884385188445272  0.8696718020724373  0.1992750504795919  1.0000
  C   C130      1.0  0.8881507886552718  0.8539954749303402  0.22510924643835786  1.0000
  C   C131      1.0  0.8872024850159068  0.867299473976754  0.25255705761781067  1.0000
  C   C132      1.0  0.8810879623426157  0.8960261101577234  0.2542130117809165  1.0000
  H   H85       1.0  0.8767647697710906  0.9106891942017005  0.18084890967384817  1.0000
  H   H86       1.0  0.8845620410673278  0.8595923690941  0.17805225380635867  1.0000
  H   H87       1.0  0.8901413420464286  0.8552757485246887  0.2725986236214295  1.0000
  H   H88       1.0  0.8790681152947172  0.9060750599262714  0.2755184198660637  1.0000
  C   C133      1.0  0.7708950598761194  0.8577575545561291  0.34727410996358377  1.0000
  C   C134      1.0  0.7673757214411608  0.8387954101878676  0.37051068373003015  1.0000
  C   C135      1.0  0.7403207569426961  0.823030684029418  0.3729298867541729  1.0000
  C   C136      1.0  0.7171280873084648  0.82560426953571  0.35163263912406406  1.0000
  C   C137      1.0  0.7206515013132694  0.8445363169946193  0.3282999346602371  1.0000
  C   C138      1.0  0.7473559037829735  0.8609869105686949  0.3263826888380756  1.0000
  H   H89       1.0  0.7856086627302351  0.8362216854276746  0.38662773766484476  1.0000
  H   H90       1.0  0.7377404540587927  0.8082456564919904  0.3908322365176817  1.0000
  H   H91       1.0  0.7027383346281243  0.8465012268291221  0.31175214178138483  1.0000
  H   H92       1.0  0.7499892540379263  0.8756128281390696  0.3083442779435148  1.0000
  C   C139      1.0  0.3058994897640372  0.5019178402527056  0.21390906411731264  1.0000
  C   C140      1.0  0.29100746604939914  0.5021594687708716  0.1865284847267309  1.0000
  C   C141      1.0  0.2612402252673494  0.5135848189300798  0.18380077197699457  1.0000
  C   C142      1.0  0.2461736999218316  0.5245790489880472  0.2085320400546131  1.0000
  C   C143      1.0  0.2607371001037762  0.5236310508797334  0.23611139913669166  1.0000
  C   C144      1.0  0.2905738679810365  0.5122849137617261  0.23881719208460067  1.0000
  H   H93       1.0  0.3025521752312997  0.4934787734658345  0.16738847714971392  1.0000
  H   H94       1.0  0.24991472026589706  0.5136101376324631  0.16260588049138375  1.0000
  H   H95       1.0  0.24923976445030033  0.5322667261274586  0.2552900378856833  1.0000
  H   H96       1.0  0.30208429552333743  0.5123302453766364  0.2599895697625954  1.0000
  C   C145      1.0  0.4422360471605501  0.4989429802698305  0.3378011197282157  1.0000
  C   C146      1.0  0.42760501441906074  0.5183115831253495  0.31921238892803894  1.0000
  C   C147      1.0  0.4393676641555475  0.5455572488741521  0.31659475104908413  1.0000
  C   C148      1.0  0.46577408375910845  0.553188350775617  0.3324341263088312  1.0000
  C   C149      1.0  0.4813482673919451  0.5331528659222098  0.34934854823548633  1.0000
  C   C150      1.0  0.46949617438995445  0.5062090276509836  0.3522498531640626  1.0000
  H   H97       1.0  0.40662898104278267  0.5126858476047305  0.3077780856838307  1.0000
  H   H98       1.0  0.4273132811540858  0.5609397569006243  0.30333736148337037  1.0000
  H   H99       1.0  0.5022667025304225  0.5384775749090638  0.36088577160573754  1.0000
  H   H100      1.0  0.4811706114506401  0.49126515791631276  0.3663143546493094  1.0000
  C   C151      1.0  0.17767555644143093  0.2819156785995679  0.5256427675235928  1.0000
  C   C152      1.0  0.1615884641551913  0.27748755179087614  0.5521077859548169  1.0000
  C   C153      1.0  0.14867316704779746  0.25119402427239884  0.5582504481864596  1.0000
  C   C154      1.0  0.15183233249479808  0.22945066181674997  0.537823108181918  1.0000
  C   C155      1.0  0.16693951785859318  0.23421980943643403  0.5110256167789147  1.0000
  C   C156      1.0  0.1796447185811932  0.2604008589456149  0.5049120100275823  1.0000
  H   H101      1.0  0.1598156606305406  0.29413602140692213  0.5681904487404944  1.0000
  H   H102      1.0  0.13702189872080767  0.247574668616448  0.5790430344142673  1.0000
  H   H103      1.0  0.1689365593184796  0.217585621518691  0.49493893906938763  1.0000
  H   H104      1.0  0.19082769527964732  0.2639242070446197  0.484039434494399  1.0000
  C   C157      1.0  0.33726967029587723  0.3822276708271831  0.5171891320405099  1.0000
  C   C158      1.0  0.3316789941972416  0.36342259946180266  0.540207654929732  1.0000
  C   C159      1.0  0.3366584057977138  0.3715812075555411  0.5695791771254642  1.0000
  C   C160      1.0  0.3473908828468369  0.39848854495258906  0.575833156012413  1.0000
  C   C161      1.0  0.3543168918729247  0.4167335247785066  0.5526909637464266  1.0000
  C   C162      1.0  0.349164680542964  0.40865987101433454  0.5234475095309156  1.0000
  H   H105      1.0  0.32342081343632484  0.3426879163606871  0.535409857054991  1.0000
  H   H106      1.0  0.33184128103296445  0.35721983394473267  0.5874370781380888  1.0000
  H   H107      1.0  0.3635199783957134  0.4371871722219778  0.5571431410745583  1.0000
  H   H108      1.0  0.3539608461645955  0.4231437119071114  0.5056704660607628  1.0000
  C   C163      1.0  0.2672748032719415  0.40640826043503747  0.345721029569772  1.0000
  C   C164      1.0  0.2509566636447672  0.40083290470621286  0.371699598893952  1.0000
  C   C165      1.0  0.24596260926098804  0.37312203592742915  0.3805653196481989  1.0000
  C   C166      1.0  0.2564271167849436  0.35096079763489707  0.36301160094790325  1.0000
  C   C167      1.0  0.27149272719581624  0.35659533757944256  0.33632105004575824  1.0000
  C   C168      1.0  0.27753256348775496  0.3842780782955416  0.32799322204767284  1.0000
  H   H109      1.0  0.24289435354790065  0.41791514657692813  0.38537616646149225  1.0000
  H   H110      1.0  0.23364620034285355  0.36893665081139554  0.4007820682308705  1.0000
  H   H111      1.0  0.2791541504159578  0.33953985082762905  0.32242820167767605  1.0000
  H   H112      1.0  0.2899757909847732  0.3884458253527992  0.30777418283560976  1.0000
  C   C169      1.0  0.4997274408287423  0.286674684963821  0.47493340618991525  1.0000
  C   C170      1.0  0.5041153772464234  0.29489526560758367  0.5042143474281734  1.0000
  C   C171      1.0  0.5078142329718819  0.3232482940864707  0.5109891845439861  1.0000
  C   C172      1.0  0.5066940179167472  0.34331603541522143  0.48854055157622545  1.0000
  C   C173      1.0  0.5020526479048407  0.3351027263484337  0.45936381280936617  1.0000
  C   C174      1.0  0.4989608784155433  0.3067849382417263  0.4525336037921995  1.0000
  H   H113      1.0  0.5048545635432883  0.2793303468035999  0.5215446748633783  1.0000
  H   H114      1.0  0.5110511423358389  0.3295155653641734  0.5336113424580053  1.0000
  H   H115      1.0  0.5017369400055789  0.35047189709473825  0.44188771381966757  1.0000
  H   H116      1.0  0.4964366671388112  0.300615973974624  0.4298099987673125  1.0000
  C   C175      1.0  0.46351859053908  0.3383315078285569  0.3229630231589726  1.0000
  C   C176      1.0  0.45478880805494365  0.36641959483529885  0.3204070833653416  1.0000
  C   C177      1.0  0.42959331733540834  0.37401898743968126  0.3026873450928664  1.0000
  C   C178      1.0  0.41343720094370173  0.3535911368696279  0.28700678108436345  1.0000
  C   C179      1.0  0.4229466286922105  0.3256523103124689  0.288584396482936  1.0000
  C   C180      1.0  0.447843426162798  0.31801445923236205  0.30669555010010524  1.0000
  H   H117      1.0  0.46697185673517616  0.382250217852751  0.3326181326755725  1.0000
  H   H118      1.0  0.42256856110466545  0.39567723813277544  0.30138737442108104  1.0000
  H   H119      1.0  0.4106311662557679  0.3098381174309831  0.27631239951971925  1.0000
  H   H120      1.0  0.45467027045040687  0.296395703054526  0.30816636116483365  1.0000
  C   C181      1.0  0.37399668897852245  0.223537854941018  0.3915551416547398  1.0000
  C   C182      1.0  0.38827182787463776  0.22144165484524062  0.4191699412265882  1.0000
  C   C183      1.0  0.37065371663079505  0.22404167640278264  0.4450602422603446  1.0000
  C   C184      1.0  0.33895954396832645  0.22978293532033064  0.4433640334204573  1.0000
  C   C185      1.0  0.3247631918875148  0.23226115684119983  0.4157381629079818  1.0000
  C   C186      1.0  0.34214749696879054  0.2285155987479119  0.3898647954957585  1.0000
  H   H121      1.0  0.4129017145815128  0.21779386137007162  0.42066237404487083  1.0000
  H   H122      1.0  0.38179707673852165  0.22248591480090968  0.4663682430035852  1.0000
  H   H123      1.0  0.3003102178364794  0.23691033138189288  0.41430555046323864  1.0000
  H   H124      1.0  0.3310604610982011  0.2303227000465289  0.36854977450989584  1.0000
  C   C187      1.0  0.5928515253076472  0.8367306646134686  0.16841800889309574  1.0000
  C   C188      1.0  0.6208423161245082  0.8406586444060969  0.15363886403651283  1.0000
  C   C189      1.0  0.6481889612656704  0.829539789082968  0.16503830455372517  1.0000
  C   C190      1.0  0.6476668636997597  0.8138813085767654  0.19100095341994205  1.0000
  C   C191      1.0  0.6196734922132721  0.8096320898595301  0.2058265548688507  1.0000
  C   C192      1.0  0.592214282563629  0.8212892117500108  0.19462951395453898  1.0000
  H   H125      1.0  0.6217575746768759  0.8525276300857493  0.13351350217288588  1.0000
  H   H126      1.0  0.669795957348221  0.8332027832674734  0.15372272334256035  1.0000
  H   H127      1.0  0.6191592412215868  0.7973843878302226  0.2258210863872402  1.0000
  H   H128      1.0  0.5705841863254258  0.8181350603675582  0.2061158301539346  1.0000
  C   C193      1.0  0.5218792051129794  0.1471433609338227  0.26012304845322  1.0000
  C   C194      1.0  0.5447230022002968  0.13625006608344248  0.2786997530866429  1.0000
  C   C195      1.0  0.5535267174543853  0.15113537630876986  0.30398903661707705  1.0000
  C   C196      1.0  0.5393462312789583  0.17675278479677706  0.31076176087846946  1.0000
  C   C197      1.0  0.5171618384184271  0.18791349330126766  0.29165413320751493  1.0000
  C   C198      1.0  0.508501026899727  0.17315938633314892  0.2663218779266121  1.0000
  H   H129      1.0  0.555179787778777  0.11614511555664075  0.27395771766795096  1.0000
  H   H130      1.0  0.570777877825565  0.14247184526182352  0.31871852464194284  1.0000
  H   H131      1.0  0.5067524908524608  0.20794485651245323  0.29629680417115606  1.0000
  H   H132      1.0  0.49120658053595845  0.18182695054713144  0.25165015518370343  1.0000
  C   C199      1.0  0.6467986709200515  0.007242247141443726  0.2616586390326933  1.0000
  C   C200      1.0  0.670066276819906  0.000553929146259069  0.28195543348869256  1.0000
  C   C201      1.0  0.6927076734268038  0.9805588602919555  0.27486430128818506  1.0000
  C   C202      1.0  0.6921392265828303  0.967186274978573  0.24743689791130494  1.0000
  C   C203      1.0  0.6685416767415304  0.9733814349945915  0.227390716876692  1.0000
  C   C204      1.0  0.6459406567395162  0.9933722829398458  0.2345135602303175  1.0000
  H   H133      1.0  0.6708553351851623  0.011189101007132995  0.3030170675887537  1.0000
  H   H134      1.0  0.7108133308006592  0.975836919526341  0.2904813744840037  1.0000
  H   H135      1.0  0.6681041261614763  0.9631155343201131  0.2061266884835382  1.0000
  H   H136      1.0  0.6281851315244351  0.9981986524971501  0.21883577196857038  1.0000
  C   C205      1.0  0.5195085244718013  0.9865812059749666  0.14397970273853666  1.0000
  C   C206      1.0  0.5133305338242016  0.960040553468688  0.13268773029171185  1.0000
  C   C207      1.0  0.5271421900274231  0.9513958911390423  0.10624196802833215  1.0000
  C   C208      1.0  0.5462311601053159  0.9695771786866283  0.09046494645817729  1.0000
  C   C209      1.0  0.5506723683265589  0.9967866375968009  0.10078916896013833  1.0000
  C   C210      1.0  0.5378259975760091  0.005098134582385505  0.12779279216271053  1.0000
  H   H137      1.0  0.4986332449597142  0.9458512010054191  0.14479333186533994  1.0000
  H   H138      1.0  0.52270146973931  0.9307531287138564  0.09801427317575125  1.0000
  H   H139      1.0  0.5645540908634644  0.011294900461706447  0.08835938020194586  1.0000
  H   H140      1.0  0.5423390155389574  0.025794333217129983  0.1360974899521375  1.0000
  C   C211      1.0  0.8100198246315168  0.08117307398169239  0.9765133077393028  1.0000
  C   C212      1.0  0.7937497239725179  0.058987455049387356  0.9639107711611146  1.0000
  C   C213      1.0  0.7929137786861338  0.05589351611669283  0.9331071180316154  1.0000
  C   C214      1.0  0.808967786745376  0.07457410364035287  0.9149694610023078  1.0000
  C   C215      1.0  0.8240409568274355  0.097443609648028  0.9275365765672839  1.0000
  C   C216      1.0  0.824427230436919  0.10081410060397038  0.9582712476579512  1.0000
  H   H141      1.0  0.7822264253634471  0.04395517217715807  0.9778910546851086  1.0000
  H   H142      1.0  0.7809427494924144  0.03833794481923854  0.9234332015580823  1.0000
  H   H143      1.0  0.8358349697609886  0.11233098887996236  0.9136319157410525  1.0000
  H   H144      1.0  0.8368704869830567  0.11808229158465555  0.9679773511474916  1.0000
  C   C217      1.0  0.8545091709629071  0.9321425288259672  0.08655288320177923  1.0000
  C   C218      1.0  0.8710558318651264  0.9136591911734483  0.10464184030350365  1.0000
  C   C219      1.0  0.8633865667699696  0.8852023928567236  0.10530998466563894  1.0000
  C   C220      1.0  0.8393619077027712  0.8751881788192141  0.08766963679039652  1.0000
  C   C221      1.0  0.8228067356166687  0.8937074299958984  0.06964097322386878  1.0000
  C   C222      1.0  0.830415366487721  0.9221387226258698  0.0690337806392303  1.0000
  H   H145      1.0  0.8896227656300336  0.9214049794370551  0.11831245998421802  1.0000
  H   H146      1.0  0.8760337722829907  0.8711218016103212  0.11948139824235393  1.0000
  H   H147      1.0  0.8042309869171831  0.886046516985387  0.05590658811733574  1.0000
  H   H148      1.0  0.8179471896820196  0.9362142113974012  0.054605192762386956  1.0000
  C   C223      1.0  0.7058074083085817  0.044136367565599424  0.13452942160232914  1.0000
  C   C224      1.0  0.6854389623360733  0.04068510740331389  0.1581368781017701  1.0000
  C   C225      1.0  0.6572457512920463  0.055066671636147355  0.15864097063739943  1.0000
  C   C226      1.0  0.6487296066382285  0.07221250437580144  0.13500861618153068  1.0000
  C   C227      1.0  0.6690141187112449  0.07556229939033392  0.11116190118964361  1.0000
  C   C228      1.0  0.6976826039012095  0.061600398621353344  0.11098672201615731  1.0000
  H   H149      1.0  0.6913983232350044  0.026705260183888416  0.17599635966961774  1.0000
  H   H150      1.0  0.6422789085944246  0.05303775178553471  0.1775058281955037  1.0000
  H   H151      1.0  0.6626297190585528  0.0890180206226841  0.09293031344074812  1.0000
  H   H152      1.0  0.7136198638316734  0.0647176680682251  0.09291636667324248  1.0000
  C   C229      1.0  0.7219786761291727  0.9339703864674646  0.019523785286873707  1.0000
  C   C230      1.0  0.7373204455785524  0.9220647382733436  0.04367350998012376  1.0000
  C   C231      1.0  0.7244585445742243  0.8991386672061251  0.058501556343335315  1.0000
  C   C232      1.0  0.6961214031529951  0.8882869790536632  0.04922608077844082  1.0000
  C   C233      1.0  0.6818599785157435  0.8990808750351855  0.02400227522169618  1.0000
  C   C234      1.0  0.6949890741634976  0.9216325360102885  0.008932206781640861  1.0000
  H   H153      1.0  0.7590967234423038  0.9303918691537607  0.05085461115745149  1.0000
  H   H154      1.0  0.7360075396085592  0.8904042448981668  0.07757170153700618  1.0000
  H   H155      1.0  0.6607434733915326  0.8900003171624675  0.015970763457219483  1.0000
  H   H156      1.0  0.6835325065140757  0.9301958477090031  0.9897008238089058  1.0000
  C   C235      1.0  0.1996723143036979  0.5730733473468508  0.886536515665645  1.0000
  C   C236      1.0  0.1807945614127488  0.5830619054268444  0.8638019839882414  1.0000
  C   C237      1.0  0.15813261178658325  0.5658464314424924  0.8515808300342537  1.0000
  C   C238      1.0  0.15403650847781075  0.538801837314753  0.8624455949907489  1.0000
  C   C239      1.0  0.17186042265171095  0.529339795189688  0.8862802232362685  1.0000
  C   C240      1.0  0.1946356075042588  0.546534646288107  0.8984254892929715  1.0000
  H   H157      1.0  0.1842935196144807  0.6038175262807421  0.854953580026316  1.0000
  H   H158      1.0  0.14426912491191282  0.5732554828868321  0.833276571291518  1.0000
  H   H159      1.0  0.16937858275117057  0.5081768009999288  0.8942938700903528  1.0000
  H   H160      1.0  0.20953616945902123  0.5385744457650706  0.9156954964388873  1.0000
  C   C241      1.0  0.30292178249395096  0.5503913894041633  0.7375303359902412  1.0000
  C   C242      1.0  0.31330151136647044  0.525680294211704  0.7241433881899079  1.0000
  C   C243      1.0  0.31959955973521165  0.5250427609724249  0.6938043507932685  1.0000
  C   C244      1.0  0.315891529786177  0.5491973265050716  0.6767835500581434  1.0000
  C   C245      1.0  0.3045228417647877  0.5736758369677777  0.689996008744205  1.0000
  C   C246      1.0  0.2980259762949766  0.5742923435793073  0.720362354146489  1.0000
  H   H161      1.0  0.31691957896531114  0.5070847663448856  0.7373227067028387  1.0000
  H   H162      1.0  0.3274699906151007  0.505895602191595  0.6836721117641212  1.0000
  H   H163      1.0  0.3013246125372697  0.5923651113154729  0.676848525819884  1.0000
  H   H164      1.0  0.28976068221246926  0.5933676901201821  0.7304923424399724  1.0000
  C   C247      1.0  0.1337990249367612  0.9121678867109235  0.794858179896401  1.0000
  C   C248      1.0  0.11448765108873649  0.9356152153226526  0.7926851021508047  1.0000
  C   C249      1.0  0.10104244633179589  0.9427296893350862  0.7655748514533772  1.0000
  C   C250      1.0  0.10718033665988114  0.9266660165353093  0.740456625085083  1.0000
  C   C251      1.0  0.12762225200276722  0.9039685505769355  0.7423113245653729  1.0000
  C   C252      1.0  0.14084907464152252  0.8966732326489809  0.7695322064800544  1.0000
  H   H165      1.0  0.10948967303004772  0.947975122394846  0.8121176101634195  1.0000
  H   H166      1.0  0.08643095755547842  0.960952048863243  0.7640523849969422  1.0000
  H   H167      1.0  0.13294261917516748  0.8917733768016285  0.7228423390077752  1.0000
  H   H168      1.0  0.15678493186452558  0.8792851128025234  0.7708056119077639  1.0000
  C   C253      1.0  0.06275322485873036  0.773427730192597  0.8540950102602491  1.0000
  C   C254      1.0  0.03061697353341164  0.7705893678333955  0.85398422669417  1.0000
  C   C255      1.0  0.01480158814007071  0.7654381276015356  0.8804032624517104  1.0000
  C   C256      1.0  0.031231593045779826  0.7622937719463436  0.9067599175367055  1.0000
  C   C257      1.0  0.06342995462024881  0.764854609918277  0.9068109171955806  1.0000
  C   C258      1.0  0.07918079319763671  0.7707778895876588  0.8805136657789444  1.0000
  H   H169      1.0  0.017916532653899253  0.7726109031433521  0.8335325401844773  1.0000
  H   H170      1.0  0.9899308539792474  0.7632742894000419  0.8803113055563554  1.0000
  H   H171      1.0  0.07615487322959713  0.7627711600131036  0.9272388495159403  1.0000
  H   H172      1.0  0.10403158396318869  0.7730862990684169  0.8807085839073816  1.0000
  C   C259      1.0  0.2172719191523642  0.7525862443180524  0.7715449422928254  1.0000
  C   C260      1.0  0.24007724438150307  0.7323019767419162  0.7664249944260684  1.0000
  C   C261      1.0  0.2325798666308276  0.7038576124998794  0.7679489310553204  1.0000
  C   C262      1.0  0.20203285172237898  0.6957333686506385  0.7730656650469582  1.0000
  C   C263      1.0  0.17883946981162702  0.7160580872363008  0.7757474732742522  1.0000
  C   C264      1.0  0.18653584832059159  0.744472382277958  0.7755046914615183  1.0000
  H   H173      1.0  0.2638048933226778  0.738470574146417  0.7629676987179081  1.0000
  H   H174      1.0  0.2504940729030228  0.6882408141229229  0.7653685937338189  1.0000
  H   H175      1.0  0.15512153429993383  0.709879424984948  0.7790704275910189  1.0000
  H   H176      1.0  0.1687277767067911  0.7601211787931936  0.778771728381666  1.0000
  C   C265      1.0  0.5075248410819893  0.8064041479429568  0.02614476531591814  1.0000
  C   C266      1.0  0.4932937972648271  0.7847721080835902  0.010521431755717625  1.0000
  C   C267      1.0  0.46624473677758127  0.7724758639427552  0.021483088175726195  1.0000
  C   C268      1.0  0.4532763246005987  0.7819998428508226  0.04792991115097611  1.0000
  C   C269      1.0  0.4676242669255275  0.8034517212669907  0.06362619637152367  1.0000
  C   C270      1.0  0.4947785932449223  0.8154925322924291  0.052829016329812635  1.0000
  H   H177      1.0  0.503290951117524  0.7774288240862366  0.9900118466095045  1.0000
  H   H178      1.0  0.45576233447725245  0.7553651047868002  0.009698778695096388  1.0000
  H   H179      1.0  0.4576745229429781  0.8108271527533036  0.08414949273582106  1.0000
  H   H180      1.0  0.5056013572725822  0.8319376997646637  0.06512747298249004  1.0000
  C   C271      1.0  0.28068482192232347  0.6749593221845487  0.0558644470159686  1.0000
  C   C272      1.0  0.25555606039495177  0.665666828997659  0.07249778196462145  1.0000
  C   C273      1.0  0.25344084146192253  0.6374799945516196  0.08051756881352082  1.0000
  C   C274      1.0  0.2759727595580205  0.6184008921072816  0.071459945867148  1.0000
  C   C275      1.0  0.3016837436495072  0.6277335053914247  0.05561662009993795  1.0000
  C   C276      1.0  0.30408875787666156  0.6560868257709432  0.0478644904897183  1.0000
  H   H181      1.0  0.23763296921969976  0.6802343635726347  0.07912298453525721  1.0000
  H   H182      1.0  0.23429836291555242  0.630370590185278  0.09364744465685924  1.0000
  H   H183      1.0  0.3194919661642128  0.6130175436814899  0.04909697506098398  1.0000
  H   H184      1.0  0.3235989834748498  0.6631459986903077  0.0350937457449394  1.0000
  C   C277      1.0  0.23284305457043922  0.7982356686590619  0.9279401687698055  1.0000
  C   C278      1.0  0.25161263258989286  0.819072693801917  0.9159039802281588  1.0000
  C   C279      1.0  0.28369528015196904  0.8183879169703675  0.9207776328561511  1.0000
  C   C280      1.0  0.2968594196844149  0.7970728099921272  0.9379411499590979  1.0000
  C   C281      1.0  0.27789204648270527  0.7767523701686316  0.9504875750616806  1.0000
  C   C282      1.0  0.24606148837247466  0.7771138656991535  0.94514781178625  1.0000
  H   H185      1.0  0.24145680363877928  0.8355587796027202  0.9026833610942648  1.0000
  H   H186      1.0  0.2982642557080868  0.8342555331911852  0.91109422852002  1.0000
  H   H187      1.0  0.2877526038416107  0.7604550731313847  0.9639482168037125  1.0000
  H   H188      1.0  0.2317380244551943  0.7605895409481992  0.9537550141395399  1.0000
  C   C283      1.0  0.3804527225039628  0.6688251231901783  0.9219345322581837  1.0000
  C   C284      1.0  0.376156659083872  0.6955726850020924  0.9101373725113964  1.0000
  C   C285      1.0  0.3626929554430002  0.6988768726516662  0.88227267365733  1.0000
  C   C286      1.0  0.35208639753376164  0.6755434023752005  0.866774658699664  1.0000
  C   C287      1.0  0.3570915490431046  0.6487416186865349  0.8782448929971896  1.0000
  C   C288      1.0  0.3716865483712048  0.6453479849817179  0.9056519782825414  1.0000
  H   H189      1.0  0.38337062029035085  0.7137578931750547  0.9224313558907766  1.0000
  H   H190      1.0  0.3598979010382704  0.7195977660286591  0.8730805763800112  1.0000
  H   H191      1.0  0.3501615863308946  0.6306186862287632  0.8658557572847667  1.0000
  H   H192      1.0  0.3754927183909947  0.6246153960881068  0.9145110618079095  1.0000
  N   N1        1.0  0.4144748850071932  0.8363783414119437  0.9774122333702914  1.0000
  C   C289      1.0  0.44127864048547844  0.8504320932448501  0.9909834793834202  1.0000
  C   C290      1.0  0.4255028838634256  0.813985025062712  0.9574747657720402  1.0000
  C   C291      1.0  0.3960825942134355  0.8568826077474223  0.9603525993723326  1.0000
  C   C292      1.0  0.3949575008397143  0.8241389156502915  0.0008213552850693251  1.0000
  H   H193      1.0  0.4339109097879479  0.8676806347169678  0.005934088336447818  1.0000
  H   H194      1.0  0.456977645832195  0.8594040014759374  0.9740067996552485  1.0000
  H   H195      1.0  0.45523569214836573  0.8355518762441179  0.004395817814383918  1.0000
  H   H196      1.0  0.40581850533574404  0.8028659950460273  0.9469398562287002  1.0000
  H   H197      1.0  0.44028122237991424  0.8224421419881355  0.9394989986575657  1.0000
  H   H198      1.0  0.43948915196387356  0.7981282002100921  0.9695968738252763  1.0000
  H   H199      1.0  0.38710861611070696  0.8739487619323737  0.9747372489091946  1.0000
  H   H200      1.0  0.37576036249908656  0.8467616135954432  0.9497365072568544  1.0000
  H   H201      1.0  0.41007933800539825  0.866607939905816  0.9425150219470949  1.0000
  H   H202      1.0  0.4077007825889073  0.8078952151374139  0.013538814094206097  1.0000
  H   H203      1.0  0.3741103966465682  0.8140072455519988  0.9914130322551454  1.0000
  H   H204      1.0  0.38692881648450955  0.8402422706721157  0.016826816161844116  1.0000
  N   N2        1.0  0.5615470480113641  0.5997512765532638  0.290294725054441  1.0000
  C   C293      1.0  0.5482711323056999  0.5718419835245814  0.2959936350424527  1.0000
  C   C294      1.0  0.5385453894530265  0.621544179025733  0.2979200977205357  1.0000
  C   C295      1.0  0.5697346834564223  0.6021689415618533  0.25873034068116585  1.0000
  C   C296      1.0  0.5896063729882389  0.6035394874420106  0.3084424059989639  1.0000
  H   H205      1.0  0.5649625197406974  0.5547864898882368  0.2907600354209563  1.0000
  H   H206      1.0  0.5269243125397379  0.5683666817138838  0.28280622631248475  1.0000
  H   H207      1.0  0.5414377381378  0.5694729564971502  0.3194908166413918  1.0000
  H   H208      1.0  0.5468500755796926  0.6427352251436512  0.2918674789420295  1.0000
  H   H209      1.0  0.5161894857332334  0.6181299825449926  0.286355163208398  1.0000
  H   H210      1.0  0.5333774693700677  0.621594951901085  0.3220178582435269  1.0000
  H   H211      1.0  0.5490222869386969  0.5996739671934521  0.24443826339408276  1.0000
  H   H212      1.0  0.5869651909348846  0.5859555130562194  0.25217005092275496  1.0000
  H   H213      1.0  0.5799807520574077  0.6229863874642644  0.25375209411949784  1.0000
  H   H214      1.0  0.6004893466673883  0.6242038292319678  0.30423755013264536  1.0000
  H   H215      1.0  0.607263191098563  0.5871319153322716  0.30379981632443204  1.0000
  H   H216      1.0  0.5842419593508321  0.6025932619991139  0.33245794652223315  1.0000
  N   N3        1.0  0.21370429908245603  0.45208544134224443  0.26488029065715385  1.0000
  C   C297      1.0  0.2476726746878215  0.45437870067895075  0.26330240657260745  1.0000
  C   C298      1.0  0.1993519455152899  0.4776211836330644  0.25249243619617945  1.0000
  C   C299      1.0  0.204263818425789  0.44872864083014347  0.2960457797708786  1.0000
  C   C300      1.0  0.20372860325491904  0.4274862163169935  0.24769089796236096  1.0000
  H   H217      1.0  0.2562512493068825  0.4722958325968761  0.27661045509678056  1.0000
  H   H218      1.0  0.2558913288468343  0.4573574072445593  0.2402105135014167  1.0000
  H   H219      1.0  0.2589765612004937  0.4352493430161547  0.27226030342315327  1.0000
  H   H220      1.0  0.2059598833367986  0.480673903177463  0.22894596261011518  1.0000
  H   H221      1.0  0.1736978773422133  0.476782389498409  0.2534167919747011  1.0000
  H   H222      1.0  0.20670426874193315  0.4966670341079041  0.26465859969730793  1.0000
  H   H223      1.0  0.17873764564080408  0.4473565174875112  0.29832304978482915  1.0000
  H   H224      1.0  0.21233977344970967  0.4665597962050176  0.30979528333665923  1.0000
  H   H225      1.0  0.21454350494931007  0.4294519150957303  0.3059141732951265  1.0000
  H   H226      1.0  0.17817975940689212  0.42507017778874917  0.24831520446369457  1.0000
  H   H227      1.0  0.2142396329010774  0.4078612019937789  0.256489216517692  1.0000
  H   H228      1.0  0.2107773926330785  0.4293276306414089  0.22411468146350905  1.0000
  N   N4        1.0  0.9860153869842281  0.8186554675811449  0.18999806818790752  1.0000
  C   C301      1.0  0.995509050417333  0.8227222752938039  0.15894232880414227  1.0000
  C   C302      1.0  0.966732989377665  0.8426100913480636  0.19958866826818772  1.0000
  C   C303      1.0  0.013717929322979883  0.816595161395061  0.20891509760487162  1.0000
  C   C304      1.0  0.9680258059472961  0.7926025751282195  0.19252565030031116  1.0000
  H   H229      1.0  0.009451486117442842  0.8046770108782205  0.15071136879102753  1.0000
  H   H230      1.0  0.009423076419960763  0.8420141130947469  0.15612219983205114  1.0000
  H   H231      1.0  0.9750714381558193  0.8245057799728648  0.14411599721004956  1.0000
  H   H232      1.0  0.9587044179464209  0.8400567195315775  0.22279921274604883  1.0000
  H   H233      1.0  0.9794606895161556  0.8626960161306572  0.19809220743982536  1.0000
  H   H234      1.0  0.945615617775182  0.8446983424429586  0.18574093595024851  1.0000
  H   H235      1.0  0.007242366392883781  0.8134057153154033  0.23246823132359198  1.0000
  H   H236      1.0  0.02785857580178086  0.835920631755686  0.20760761227471508  1.0000
  H   H237      1.0  0.028698167241916206  0.7986743265881933  0.20220462494171518  1.0000
  H   H238      1.0  0.9816432204067603  0.7740121400397942  0.1852404789673634  1.0000
  H   H239      1.0  0.9471673978236907  0.7934908447778894  0.17840421310849805  1.0000
  H   H240      1.0  0.9599178637869377  0.7889583736793404  0.21553578889934952  1.0000
  N   N5        1.0  0.7918011263346489  0.9409594649371555  0.1629643482654672  1.0000
  C   C305      1.0  0.7961895204116594  0.9277338984936234  0.19208943670987025  1.0000
  C   C306      1.0  0.7635645713249136  0.9584784077530921  0.163727616978536  1.0000
  C   C307      1.0  0.7885896290205779  0.9190303068940925  0.14021525567821894  1.0000
  C   C308      1.0  0.8188611561052683  0.9585548703900154  0.1560693130348768  1.0000
  H   H241      1.0  0.7758846396956308  0.9148611158716123  0.19846896210593132  1.0000
  H   H242      1.0  0.7993897086822478  0.9437848342239796  0.2095499190688721  1.0000
  H   H243      1.0  0.817015642641211  0.9140160876841557  0.19239046776968668  1.0000
  H   H244      1.0  0.765587172093532  0.9756605676840616  0.18015698755193832  1.0000
  H   H245      1.0  0.7589560208187327  0.968303527859179  0.1419530147649311  1.0000
  H   H246      1.0  0.742851238626575  0.9460470313674189  0.16988209551740796  1.0000
  H   H247      1.0  0.7682157805061259  0.9055642396367846  0.1445474302863344  1.0000
  H   H248      1.0  0.8094284409456278  0.9052895001220329  0.139385419731684  1.0000
  H   H249      1.0  0.7857619645291453  0.9282557878989557  0.11783908473160751  1.0000
  H   H250      1.0  0.8161238383551459  0.9694427267016195  0.13451975131115496  1.0000
  H   H251      1.0  0.8404991947327499  0.9459068294695853  0.15475586755207535  1.0000
  H   H252      1.0  0.8225899389603297  0.9748164912747017  0.17324313839331648  1.0000
  N   N6        1.0  0.5470449336106061  0.7603849157733497  0.10631705971231353  1.0000
  C   C309      1.0  0.5635346481310147  0.7630722594849183  0.07785854628942213  1.0000
  C   C310      1.0  0.5162605462352026  0.7480729377367815  0.1011850244193635  1.0000
  C   C311      1.0  0.5434410723520627  0.7882924959654667  0.1198933234481947  1.0000
  C   C312      1.0  0.565033819278176  0.7421734492298696  0.12639444939689004  1.0000
  H   H253      1.0  0.5511326525040083  0.7774868369170257  0.0625284305158158  1.0000
  H   H254      1.0  0.5658344283817544  0.742570111997011  0.06646001223314002  1.0000
  H   H255      1.0  0.5871759108729824  0.7716189557547496  0.08094925869039482  1.0000
  H   H256      1.0  0.5026445714295845  0.746647088784168  0.12198044721897316  1.0000
  H   H257      1.0  0.5025181179651917  0.7608805293626426  0.08544147611630049  1.0000
  H   H258      1.0  0.5180682131267185  0.7267101828376766  0.09160426872745897  1.0000
  H   H259      1.0  0.5308130653295363  0.7873389476678605  0.14127911216393851  1.0000
  H   H260      1.0  0.5304944964805208  0.802938076992608  0.10530455158776131  1.0000
  H   H261      1.0  0.566285015519812  0.7979004364954987  0.12448152565359183  1.0000
  H   H262      1.0  0.5531454076348906  0.7396773493329061  0.14804082232362958  1.0000
  H   H263      1.0  0.5882746436639243  0.7511081843412754  0.13099173467876524  1.0000
  H   H264      1.0  0.5685483206169424  0.7209711703936249  0.11681404240851889  1.0000
  N   N7        1.0  0.5806270198534949  0.9299116437480338  0.19275730434935145  1.0000
  C   C313      1.0  0.6038419755332096  0.9072272032305446  0.19053071505820823  1.0000
  C   C314      1.0  0.5888370717380963  0.9526742494102102  0.17218600052360997  1.0000
  C   C315      1.0  0.579896133296938  0.9408435582411163  0.2232616109460415  1.0000
  C   C316      1.0  0.5498083555288342  0.91897557874759  0.1850057652318614  1.0000
  H   H265      1.0  0.5980805111679922  0.889414839951684  0.2053482834669605  1.0000
  H   H266      1.0  0.6273615027881281  0.9146051999932717  0.19653507127772638  1.0000
  H   H267      1.0  0.6049981378687691  0.8987344129308105  0.1677048266314733  1.0000
  H   H268      1.0  0.5719500937490016  0.9702003571993447  0.17370047307703473  1.0000
  H   H269      1.0  0.612091178397963  0.961276473254605  0.17708944320048878  1.0000
  H   H270      1.0  0.5887244754632015  0.9453981787872625  0.14883766498938916  1.0000
  H   H271      1.0  0.5631133739324703  0.9585212022447818  0.22542421897451934  1.0000
  H   H272      1.0  0.6029238217521911  0.9486964833452204  0.2301713178131583  1.0000
  H   H273      1.0  0.5729641771517073  0.924365148484808  0.23925194324339197  1.0000
  H   H274      1.0  0.5315127966231642  0.9351975030119349  0.18804102274573414  1.0000
  H   H275      1.0  0.5435419071159714  0.9006291408131147  0.19884275555135975  1.0000
  H   H276      1.0  0.5489483184462464  0.911992923999436  0.1615712762613946  1.0000
  N   N8        1.0  0.6764956835143  0.32470547177326825  0.6665438320002246  1.0000
  C   C317      1.0  0.6985213476235221  0.3250550733749619  0.6416021891107326  1.0000
  C   C318      1.0  0.6874088311205343  0.34380374997553087  0.6899064000904713  1.0000
  C   C319      1.0  0.6744834919887358  0.29598777895913453  0.6784530382391403  1.0000
  C   C320      1.0  0.6456814443292694  0.333937173335457  0.6562081386653085  1.0000
  H   H277      1.0  0.7221048593391914  0.3185298437774585  0.648760072869169  1.0000
  H   H278      1.0  0.7002477088522427  0.3462298544210315  0.6315643496846582  1.0000
  H   H279      1.0  0.6912497462494078  0.31048098995321094  0.6238584378249558  1.0000
  H   H280      1.0  0.671429386216575  0.34394631398134184  0.7091635157018752  1.0000
  H   H281      1.0  0.7106429082845624  0.33741317273981714  0.6981830180753344  1.0000
  H   H282      1.0  0.6892856892003808  0.36564278318301396  0.6816351045608536  1.0000
  H   H283      1.0  0.6578616268237407  0.29473153238584554  0.6971347423639542  1.0000
  H   H284      1.0  0.6973324580033587  0.28854634659144485  0.68666768614199  1.0000
  H   H285      1.0  0.6667494580059914  0.2808872652489095  0.6612985242687456  1.0000
  H   H286      1.0  0.6464511301682965  0.35527559907684925  0.6463891761317935  1.0000
  H   H287      1.0  0.6285320950356943  0.33434660713115677  0.6745299685299389  1.0000
  H   H288      1.0  0.6365565122526253  0.31967521087446704  0.6389896874095257  1.0000
  N   N9        1.0  0.7311956325981477  0.05861094059774844  0.23875763877694042  1.0000
  C   C321      1.0  0.7387245224231898  0.08757803671040706  0.24732385193960923  1.0000
  C   C322      1.0  0.7410384877969927  0.039196672434056196  0.2623780580444513  1.0000
  C   C323      1.0  0.7474484068764221  0.05135527229666999  0.21104019409462718  1.0000
  C   C324      1.0  0.6974954283940855  0.0562362355640604  0.23429544425333795  1.0000
  H   H289      1.0  0.7315436086232769  0.10273463796592906  0.2299402427318423  1.0000
  H   H290      1.0  0.7639995739704807  0.09013125767205406  0.25090710720975046  1.0000
  H   H291      1.0  0.7267592315473429  0.09360216968983873  0.2681746211526168  1.0000
  H   H292      1.0  0.7368373568698726  0.017099650704629266  0.25596900957606566  1.0000
  H   H293      1.0  0.7661330809337118  0.04116869930460066  0.26729500016865304  1.0000
  H   H294      1.0  0.7281848362406445  0.04307864575385545  0.2833087650077122  1.0000
  H   H295      1.0  0.7422958851215428  0.029556935886641635  0.20398499949388366  1.0000
  H   H296      1.0  0.772958706598119  0.052948078406244305  0.2134674688028806  1.0000
  H   H297      1.0  0.7403701849089402  0.06532046933467753  0.19252144265342047  1.0000
  H   H298      1.0  0.6843335836983186  0.061096060721445335  0.25483970045325915  1.0000
  H   H299      1.0  0.6911426664799614  0.03468351852479542  0.22764092266312605  1.0000
  H   H300      1.0  0.689081168240079  0.07064072591093401  0.21672461875770002  1.0000
  N   N10       1.0  0.04748135672827636  0.8898358451583046  0.6382850339841889  1.0000
  C   C325      1.0  0.053634873841636566  0.9201749261999435  0.6386998704466422  1.0000
  C   C326      1.0  0.061151462067916995  0.8767292304371649  0.6648473676702872  1.0000
  C   C327      1.0  0.06148335956934514  0.8773677335111575  0.6115702492164811  1.0000
  C   C328      1.0  0.013713065470685848  0.8851956015318749  0.6380414610260874  1.0000
  H   H301      1.0  0.043449140143748455  0.9309712877126115  0.619215079400245  1.0000
  H   H302      1.0  0.07888232607555468  0.924612692119091  0.6392223226474675  1.0000
  H   H303      1.0  0.04356414064634384  0.9300042121931337  0.6587017537677947  1.0000
  H   H304      1.0  0.057374949656239016  0.853749298090727  0.6652302227231824  1.0000
  H   H305      1.0  0.08651625205456837  0.8805032156510163  0.6661217608692941  1.0000
  H   H306      1.0  0.05101758719337224  0.8855768316126841  0.6854293915020024  1.0000
  H   H307      1.0  0.051728763592021165  0.8868655359355793  0.5911398337588734  1.0000
  H   H308      1.0  0.057319103969142304  0.8544410761460607  0.6105437246459771  1.0000
  H   H309      1.0  0.08695869791571309  0.8805977610178966  0.6111333607427143  1.0000
  H   H310      1.0  0.008044400090041925  0.8625474966898641  0.6376021184500057  1.0000
  H   H311      1.0  0.002517435208148955  0.8952586435822713  0.6185805263292153  1.0000
  H   H312      1.0  0.002403196040850153  0.8943604000931398  0.6579062405760782  1.0000
  N   N11       1.0  0.6229370115463981  0.7471180657016959  0.3895970997349775  1.0000
  C   C329      1.0  0.6542008322054234  0.734511786482006  0.3901615088537694  1.0000
  C   C330      1.0  0.6226414861035794  0.7727775396475426  0.4077487993949202  1.0000
  C   C331      1.0  0.6004105089250881  0.7269490091318399  0.4015735094666164  1.0000
  C   C332      1.0  0.6145373414740171  0.7542477166523353  0.3588732471391406  1.0000
  H   H313      1.0  0.6612426362447333  0.7286649008300418  0.4129556674853853  1.0000
  H   H314      1.0  0.67182293529805  0.7492257269005688  0.3813483535495134  1.0000
  H   H315      1.0  0.6553168593752124  0.7151863628498407  0.37652396602073995  1.0000
  H   H316      1.0  0.5994736298614638  0.7829836657556103  0.40759251791056045  1.0000
  H   H317      1.0  0.6288249441157917  0.7681737662532412  0.43108530221985336  1.0000
  H   H318      1.0  0.6395612610280509  0.788341076275779  0.39927072495315763  1.0000
  H   H319      1.0  0.6063375044801148  0.7205149479213444  0.42450387502983133  1.0000
  H   H320      1.0  0.5998457331330814  0.7076005056100243  0.38806439402551923  1.0000
  H   H321      1.0  0.5765595134156603  0.7357478698929824  0.4017670622349544  1.0000
  H   H322      1.0  0.5907847518093717  0.7631255126005899  0.3574026714449401  1.0000
  H   H323      1.0  0.6154172455427179  0.7355695485239758  0.34431098781393804  1.0000
  H   H324      1.0  0.6306400935807579  0.7698983558704856  0.34936724216090864  1.0000
  N   N12       1.0  0.033485663909861296  0.05451336083778088  0.8062930365757808  1.0000
  C   C333      1.0  0.035061633593438384  0.02823839578575822  0.8234635669919552  1.0000
  C   C334      1.0  0.05114774942565825  0.05126392573313761  0.778535919852435  1.0000
  C   C335      1.0  0.046751935188534814  0.07750728893747767  0.8238963138814218  1.0000
  C   C336      1.0  0.0008892535802889067  0.06108794334397955  0.7993442103722345  1.0000
  H   H325      1.0  0.022919477256717617  0.030397603399323906  0.8450346501438013  1.0000
  H   H326      1.0  0.05936294431221722  0.021980738589553628  0.8281786457608835  1.0000
  H   H327      1.0  0.023934213074517926  0.01063816332373757  0.8114880971779818  1.0000
  H   H328      1.0  0.041473769372860625  0.034324024037826216  0.7646113332669636  1.0000
  H   H329      1.0  0.050365549502509044  0.07066749152211332  0.7649530823128196  1.0000
  H   H330      1.0  0.0758384979164799  0.046049141058245306  0.7828017590173895  1.0000
  H   H331      1.0  0.07132905169964276  0.07319232006719426  0.8296436618514225  1.0000
  H   H332      1.0  0.03382724885052846  0.08049205661589706  0.8449827626819009  1.0000
  H   H333      1.0  0.04587977840432588  0.0976655727851903  0.8116393864806323  1.0000
  H   H334      1.0  0.9897062252076008  0.04347219696340703  0.7874992988230471  1.0000
  H   H335      1.0  0.9988209276163917  0.07985788773450975  0.7849545249470122  1.0000
  H   H336      1.0  0.9872054371027885  0.06507582520748727  0.8197065570194283  1.0000
  N   N13       1.0  0.3616349703356006  0.325690917515316  0.36442706413464065  1.0000
  C   C337      1.0  0.3517480557109979  0.3242224224337518  0.33326161771140045  1.0000
  C   C338      1.0  0.3938832624099838  0.3354888106928987  0.36599945640535525  1.0000
  C   C339      1.0  0.3595491184939382  0.29757456368255075  0.37780983703281634  1.0000
  C   C340      1.0  0.3413600962397296  0.34544008060965803  0.3805306481619633  1.0000
  H   H337      1.0  0.36716177781727777  0.31029292320658863  0.32010994807316584  1.0000
  H   H338      1.0  0.3520724200948399  0.34519718950557693  0.3225883961723208  1.0000
  H   H339      1.0  0.327840664495643  0.3159970057099541  0.3313238839384675  1.0000
  H   H340      1.0  0.4017972835135131  0.33756993614597974  0.38923902587116394  1.0000
  H   H341      1.0  0.4098724690236539  0.32050343159270067  0.3549930993881692  1.0000
  H   H342      1.0  0.39655557627782617  0.3561429460921384  0.3549918540480583  1.0000
  H   H343      1.0  0.3353962371810025  0.2896433049021441  0.3773651612669227  1.0000
  H   H344      1.0  0.36734135925455474  0.29759173081295237  0.40120881209165493  1.0000
  H   H345      1.0  0.3742148867235185  0.2821261344421568  0.36575096741265195  1.0000
  H   H346      1.0  0.348550337165402  0.3477586405494006  0.40397961729784787  1.0000
  H   H347      1.0  0.31699879058016206  0.33819882923560607  0.3805036105897566  1.0000
  H   H348      1.0  0.3415419796522881  0.3665962665142586  0.3702655184385154  1.0000
  N   N14       1.0  0.8566683269184834  0.29262067198761316  0.6586754809321631  1.0000
  C   C341      1.0  0.8717619168789422  0.2660181297181471  0.6501142231021062  1.0000
  C   C342      1.0  0.8518886238652819  0.2931437571915163  0.6909886921019115  1.0000
  C   C343      1.0  0.8264899076660138  0.29507116042197085  0.6436448573860185  1.0000
  C   C344      1.0  0.8764579310206436  0.3163047310134368  0.6499161864624443  1.0000
  H   H349      1.0  0.8752371174524455  0.26470129456273933  0.6257931268126901  1.0000
  H   H350      1.0  0.8575157864083747  0.2476973566272207  0.6565234899637202  1.0000
  H   H351      1.0  0.8947848826595182  0.2636354184649102  0.6608097067200545  1.0000
  H   H352      1.0  0.8369043703462963  0.27566791025714155  0.6984086574310635  1.0000
  H   H353      1.0  0.8741254305013709  0.2913376001380339  0.7031468441479857  1.0000
  H   H354      1.0  0.8405656526705699  0.3129439655793876  0.6981783220020678  1.0000
  H   H355      1.0  0.814282646743929  0.31479169458474254  0.6497541371816566  1.0000
  H   H356      1.0  0.8110561192656619  0.27760233992744215  0.6498634714939049  1.0000
  H   H357      1.0  0.8290757875516642  0.2944274706806826  0.6192014629855096  1.0000
  H   H358      1.0  0.8658140334559528  0.33668524304998426  0.6562001672591782  1.0000
  H   H359      1.0  0.8805671510396359  0.316512398576291  0.6256757698625032  1.0000
  H   H360      1.0  0.8994482817601434  0.3151298149797404  0.6608591650752063  1.0000
  N   N15       1.0  0.1104095345443561  0.687094777704324  0.8458919069334502  1.0000
  C   C345      1.0  0.07877315922529869  0.6948547375406193  0.8553168050248812  1.0000
  C   C346      1.0  0.10936420742439315  0.6742485804699161  0.8162437702280483  1.0000
  C   C347      1.0  0.12373586215802955  0.6668443880788262  0.8670730406299796  1.0000
  C   C348      1.0  0.129803833908425  0.7124144548087878  0.8448842970656202  1.0000
  H   H361      1.0  0.06781264350878291  0.7097615766550093  0.839531186040254  1.0000
  H   H362      1.0  0.07882280255088235  0.705228148780324  0.8772973764017329  1.0000
  H   H363      1.0  0.06368005454947645  0.6761340789398053  0.8571831497215782  1.0000
  H   H364      1.0  0.13287033423177316  0.6678336737995632  0.8086335503744417  1.0000
  H   H365      1.0  0.09467719658501467  0.6552163783998063  0.8161092577857103  1.0000
  H   H366      1.0  0.09990530482278956  0.6890757719239007  0.7995517156923443  1.0000
  H   H367      1.0  0.10991586298364188  0.6472718471054894  0.8679222846410807  1.0000
  H   H368      1.0  0.12418658793496902  0.6755302069901653  0.8898587701404247  1.0000
  H   H369      1.0  0.14778469889403942  0.6608523207230537  0.860853222212549  1.0000
  H   H370      1.0  0.15380755440040886  0.707395237508293  0.8376335577286617  1.0000
  H   H371      1.0  0.13114182504256136  0.7226703909199977  0.8668959840938355  1.0000
  H   H372      1.0  0.12028527608398573  0.7281706360505825  0.8291481453988213  1.0000
  N   N16       1.0  0.6573640197411696  0.9941092320780053  0.05990531864777551  1.0000
  C   C349      1.0  0.6438433639301948  0.9731613754784418  0.03980014741401661  1.0000
  C   C350      1.0  0.6835788527397323  0.9814876031278732  0.07611784387073192  1.0000
  C   C351      1.0  0.6335960383233381  0.0036486168836833426  0.08110929536470946  1.0000
  C   C352      1.0  0.6684069112950735  0.018175429559186274  0.0424428823127665  1.0000
  H   H373      1.0  0.622749313048304  0.9813907237113318  0.028646396452962186  1.0000
  H   H374      1.0  0.6369461658351075  0.9538454048379742  0.05180118268478129  1.0000
  H   H375      1.0  0.6604942556189435  0.9670188109312653  0.02226401675231826  1.0000
  H   H376      1.0  0.6941941697429311  0.9966970601980498  0.0916480176529422  1.0000
  H   H377      1.0  0.6762035282934625  0.9629004281930843  0.08904912080084725  1.0000
  H   H378      1.0  0.7020510954751095  0.974444801490588  0.06071325619103433  1.0000
  H   H379      1.0  0.6431729808140938  0.018730054525523343  0.09737182765272004  1.0000
  H   H380      1.0  0.6235651998943472  0.9857672806470849  0.09353616860155102  1.0000
  H   H381      1.0  0.6141672767860826  0.014284995543424108  0.06952841177569825  1.0000
  H   H382      1.0  0.6784591527720962  0.03457626686979805  0.05686393338450165  1.0000
  H   H383      1.0  0.6492782057085225  0.02797318230378173  0.0296316851824896  1.0000
  H   H384      1.0  0.6865864251882154  0.011643381771562877  0.026347485128517704  1.0000
  N   N17       1.0  0.494458260081598  0.4182123542115743  0.39835492420577123  1.0000
  C   C353      1.0  0.5018758791909981  0.425219043887679  0.3673727339308164  1.0000
  C   C354      1.0  0.47317958585664366  0.3941497573067669  0.3990790509362536  1.0000
  C   C355      1.0  0.4795372413654783  0.4425470632521526  0.4126643568999493  1.0000
  C   C356      1.0  0.5232121343863283  0.4109803753690321  0.4142844819379449  1.0000
  H   H385      1.0  0.5178195143338292  0.44337379055102905  0.36602057687014944  1.0000
  H   H386      1.0  0.48067141435276173  0.4308913191152158  0.3547133078366429  1.0000
  H   H387      1.0  0.5130482066110212  0.4072441643596  0.35583559816965266  1.0000
  H   H388      1.0  0.4667684649267268  0.3885419389652975  0.4221269810279824  1.0000
  H   H389      1.0  0.4514864698620464  0.3987521705492425  0.38673821329658503  1.0000
  H   H390      1.0  0.4838995064398278  0.3752730310741481  0.3888219999221896  1.0000
  H   H391      1.0  0.4576802307195666  0.4483879431344209  0.4012254269513033  1.0000
  H   H392      1.0  0.4948668693965055  0.46116105362528587  0.4121925771435765  1.0000
  H   H393      1.0  0.4740284375966524  0.43816162363043976  0.4362131794365022  1.0000
  H   H394      1.0  0.5185074484563186  0.40582422131172796  0.43784326112882943  1.0000
  H   H395      1.0  0.5398572511741021  0.4286771019243619  0.4139905142504579  1.0000
  H   H396      1.0  0.5349054809170809  0.39249565359472305  0.4042424970156167  1.0000
  N   N18       1.0  0.4431491818608608  0.3705842653139896  0.570911314379054  1.0000
  C   C357      1.0  0.44156562080647127  0.34104046182909675  0.5615118323036973  1.0000
  C   C358      1.0  0.4310286492307911  0.388629639982209  0.5470371057469658  1.0000
  C   C359      1.0  0.47556258238022736  0.3780762481675817  0.5770975931443096  1.0000
  C   C360      1.0  0.42449022622145505  0.3745415712169925  0.597937753491293  1.0000
  H   H397      1.0  0.4172454320649868  0.3344694721284906  0.5576996660682179  1.0000
  H   H398      1.0  0.45179567680356086  0.32681613392391057  0.5783634112538791  1.0000
  H   H399      1.0  0.4542257778662996  0.3376494208944453  0.5404303571644493  1.0000
  H   H400      1.0  0.43067085945021993  0.4110323678881501  0.5536409056484962  1.0000
  H   H401      1.0  0.44543138338702193  0.38688963765898154  0.5266935767822579  1.0000
  H   H402      1.0  0.407027149793998  0.3827608321934587  0.5409754001377708  1.0000
  H   H403      1.0  0.4775106058337492  0.4002475295867611  0.5843189391309014  1.0000
  H   H404      1.0  0.49032519513758527  0.3753549377910412  0.5572040696724337  1.0000
  H   H405      1.0  0.48563129537744404  0.36487608536557037  0.5949593551818666  1.0000
  H   H406      1.0  0.4242571655571637  0.39679383702499504  0.6051648276595191  1.0000
  H   H407      1.0  0.4336486498717978  0.36185200215662094  0.6165990840910514  1.0000
  H   H408      1.0  0.40006553558421326  0.3683253660334287  0.5944220350392597  1.0000
  N   N19       1.0  0.9125250186416156  0.039880193560703825  0.40710211868426144  1.0000
  C   C361      1.0  0.9101683301056148  0.02085064900435052  0.432719502560313  1.0000
  C   C362      1.0  0.9260876823088451  0.06669840536656957  0.41661029834682756  1.0000
  C   C363      1.0  0.8814204871524267  0.04504466036303589  0.3947461865984327  1.0000
  C   C364      1.0  0.9324031012896421  0.02690610342700195  0.38431589556208  1.0000
  H   H409      1.0  0.9331470427340403  0.016667383589513474  0.4428438087634816  1.0000
  H   H410      1.0  0.8998375438855771  0.00041733300577417864  0.4264837969643946  1.0000
  H   H411      1.0  0.895227475421919  0.029851020533416817  0.45029298218734987  1.0000
  H   H412      1.0  0.9492780781058552  0.06363278604255318  0.4267947392769896  1.0000
  H   H413      1.0  0.9287022862884035  0.08148133819971348  0.3978332724100817  1.0000
  H   H414      1.0  0.9113594478987215  0.07725760736153275  0.4334605408322685  1.0000
  H   H415      1.0  0.8821891205316956  0.05946051692099896  0.37548895459218073  1.0000
  H   H416      1.0  0.8657044086668146  0.054599988369552266  0.4114462417725067  1.0000
  H   H417      1.0  0.8705442527442886  0.025285501209026506  0.3871835235693327  1.0000
  H   H418      1.0  0.9345903788915042  0.04063695009043711  0.3645856353538311  1.0000
  H   H419      1.0  0.9227494823839505  0.006593095679850336  0.376731710763146  1.0000
  H   H420      1.0  0.956092768438138  0.022793736546311116  0.39290452756810723  1.0000
  N   N20       1.0  0.058333357357321924  0.23932103246998165  0.4997884375334928  1.0000
  C   C365      1.0  0.08143797415231946  0.25895143398962445  0.5117348839529007  1.0000
  C   C366      1.0  0.02819513190813594  0.2442782970867582  0.5143276730991134  1.0000
  C   C367      1.0  0.06855816558033712  0.2102740498598947  0.505421575648735  1.0000
  C   C368      1.0  0.055143773129522344  0.2437241363858205  0.46765326667173207  1.0000
  H   H421      1.0  0.10436723217863819  0.25606596354229005  0.500960621904865  1.0000
  H   H422      1.0  0.08490540025231952  0.2557570335438468  0.5358515746689139  1.0000
  H   H423      1.0  0.07428351424573565  0.28110305817082587  0.5084000949519926  1.0000
  H   H424      1.0  0.029860490155485087  0.24159174822410473  0.5386811590511758  1.0000
  H   H425      1.0  0.019365139336171344  0.2657981614861062  0.5101599458473808  1.0000
  H   H426      1.0  0.010357040103450954  0.22929079865820723  0.5065068418853961  1.0000
  H   H427      1.0  0.051690869093394154  0.19482744813563405  0.4967820015431768  1.0000
  H   H428      1.0  0.07109428008262308  0.20622391604159293  0.5294269348703671  1.0000
  H   H429      1.0  0.09147384223743327  0.2058145196495183  0.49518107494305313  1.0000
  H   H430      1.0  0.03777730509122157  0.22926958973749284  0.4580047048513633  1.0000
  H   H431      1.0  0.0774819107239797  0.24000496561237872  0.4560211115773242  1.0000
  H   H432      1.0  0.047576852944029024  0.2654812140826232  0.46256727934000846  1.0000
  N   N21       1.0  0.20786431633704397  0.7644554073822046  0.02960274891182513  1.0000
  C   C369      1.0  0.2402771424724025  0.7678389946827213  0.020044566288410337  1.0000
  C   C370      1.0  0.18748723271780585  0.7632264041602251  0.0034497565961124636  1.0000
  C   C371      1.0  0.19872206247265248  0.7884421991894939  0.04825006406609056  1.0000
  C   C372      1.0  0.2049847425370705  0.7383019893403011  0.046741188282864554  1.0000
  H   H433      1.0  0.24348544118794016  0.7874311551501314  0.00718134923754632  1.0000
  H   H434      1.0  0.247885809790105  0.7499971780350658  0.005997152110666981  1.0000
  H   H435      1.0  0.25632419470455514  0.7684640925021236  0.039231637472485925  1.0000
  H   H436      1.0  0.18982656132665032  0.7821315742439713  0.9892549774438346  1.0000
  H   H437      1.0  0.19279563960943147  0.7446420913524757  0.9895144450100332  1.0000
  H   H438      1.0  0.1627446001794039  0.7614827662525263  0.009910854530745583  1.0000
  H   H439      1.0  0.20051596903436422  0.8084818673884964  0.03586364306564338  1.0000
  H   H440      1.0  0.21370741796506462  0.7899833170276275  0.06813396883215854  1.0000
  H   H441      1.0  0.1743961445520371  0.7864167668952217  0.05595916795526423  1.0000
  H   H442      1.0  0.18097079127179824  0.7353101118576516  0.054870076671923236  1.0000
  H   H443      1.0  0.22071705495761695  0.7380312280428  0.06616755538952436  1.0000
  H   H444      1.0  0.211083584893516  0.7197198817772253  0.033073577321911074  1.0000
  N   N22       1.0  0.06751059985337626  0.6055318574572467  0.08300561329323213  1.0000
  C   C373      1.0  0.09923878645752741  0.6071297892200316  0.0710900919993149  1.0000
  C   C374      1.0  0.058563096954724836  0.6329835938072741  0.0954141631462808  1.0000
  C   C375      1.0  0.06641756957482148  0.5841190843017989  0.1065111258976041  1.0000
  C   C376      1.0  0.04594606663821077  0.5979019779863888  0.05908887755217015  1.0000
  H   H445      1.0  0.10651394929946359  0.5869826981622703  0.060918497372059184  1.0000
  H   H446      1.0  0.11609003440334374  0.611838729641181  0.08887561562462691  1.0000
  H   H447      1.0  0.1013594931191839  0.6239140148444652  0.05420766100381602  1.0000
  H   H448      1.0  0.034350472760166895  0.6329223646111958  0.10373481276774676  1.0000
  H   H449      1.0  0.07394291963627263  0.6389549476245991  0.11405639839343322  1.0000
  H   H450      1.0  0.05996195330636822  0.6497926700962814  0.07846072783401407  1.0000
  H   H451      1.0  0.04287718902581616  0.5824959526210868  0.11621419782178756  1.0000
  H   H452      1.0  0.08277007618836592  0.5891059977469871  0.12472839425679018  1.0000
  H   H453      1.0  0.0729919388809863  0.5630909338200241  0.09792465210055638  1.0000
  H   H454      1.0  0.02164321426422289  0.5972280773581223  0.06715769893808478  1.0000
  H   H455      1.0  0.05171233118896423  0.5770444633427246  0.049595652371901666  1.0000
  H   H456      1.0  0.04648750063333406  0.6134782255875313  0.04086390964044151  1.0000
  N   N23       1.0  0.44037970590375014  0.14836150680874538  0.33092658927259905  1.0000
  C   C377      1.0  0.43808413968254345  0.17467208758547229  0.3139543208619238  1.0000
  C   C378      1.0  0.42292099851994747  0.15131830587550135  0.3588290372545763  1.0000
  C   C379      1.0  0.4731817924129964  0.14221487986856385  0.3375199342572268  1.0000
  C   C380      1.0  0.42731213561615766  0.12528797360827845  0.3132988226514779  1.0000
  H   H457      1.0  0.4135794572788331  0.18062124309964317  0.30963962436618275  1.0000
  H   H458      1.0  0.4500319058648165  0.17298862546737695  0.29231179664665924  1.0000
  H   H459      1.0  0.4486325235591719  0.19233214197356402  0.32619827073988417  1.0000
  H   H460      1.0  0.42386439153988675  0.13185935216691738  0.37223238888110305  1.0000
  H   H461      1.0  0.432260828184088  0.1685659076671089  0.37260617151218456  1.0000
  H   H462      1.0  0.398177408496714  0.1565419709202672  0.35468114280453006  1.0000
  H   H463      1.0  0.4757877912421412  0.12315713912776108  0.3513758240429355  1.0000
  H   H464      1.0  0.4843624293062796  0.15980382982074556  0.34950630382345627  1.0000
  H   H465      1.0  0.4866957441140489  0.1386630283398997  0.3169515883427128  1.0000
  H   H466      1.0  0.42872432422499046  0.10505661147202322  0.32536912392172385  1.0000
  H   H467      1.0  0.4400343828850043  0.12260942095376114  0.29205010962221467  1.0000
  H   H468      1.0  0.4026022059240636  0.12931644252460153  0.30785355187448227  1.0000
  N   N24       1.0  0.39591397010423807  0.5222211607824062  0.4197125750416987  1.0000
  C   C381      1.0  0.4006353948671676  0.5447249537465917  0.39781678678439564  1.0000
  C   C382      1.0  0.37321689332429836  0.5019936494635849  0.4081744306415929  1.0000
  C   C383      1.0  0.3843341612950586  0.5344737065121598  0.4475842150221914  1.0000
  C   C384      1.0  0.42554573277801666  0.507650726315281  0.4252504822339522  1.0000
  H   H469      1.0  0.41711091764656155  0.5607099580503929  0.406038133949169  1.0000
  H   H470      1.0  0.37861353435916245  0.5556947244685574  0.39248279192365354  1.0000
  H   H471      1.0  0.41024222461539495  0.5363527661940654  0.37681997972930936  1.0000
  H   H472      1.0  0.369339681906513  0.48456675857249915  0.4240290186938435  1.0000
  H   H473      1.0  0.35047186775359934  0.5121313049212621  0.4038200209449178  1.0000
  H   H474      1.0  0.38125088372228516  0.49255249549369773  0.3869999190130243  1.0000
  H   H475      1.0  0.38110793635282536  0.5181744373802641  0.46488882757902933  1.0000
  H   H476      1.0  0.361778087465189  0.5453045329182653  0.4444003133761585  1.0000
  H   H477      1.0  0.40080683850313975  0.5501315029942869  0.45657698772711347  1.0000
  H   H478      1.0  0.42301477096282275  0.4910820549431807  0.44233696370730574  1.0000
  H   H479      1.0  0.4434949849084771  0.5223591852012999  0.43317392374987207  1.0000
  H   H480      1.0  0.4345892102216633  0.49770104353024774  0.4047976824249015  1.0000
  N   N25       1.0  0.7961181082846469  0.11250054535576778  0.6235202005994075  1.0000
  C   C385      1.0  0.7709294041679746  0.11437806275215773  0.6015828116962489  1.0000
  C   C386      1.0  0.7829308233787405  0.11370473046469029  0.6536073168034462  1.0000
  C   C387      1.0  0.8176345468919648  0.13605438015876262  0.6192888329870989  1.0000
  C   C388      1.0  0.813040219178484  0.0858473685244477  0.6194761201410216  1.0000
  H   H481      1.0  0.7799651629903172  0.11243841494982408  0.578664061555517  1.0000
  H   H482      1.0  0.7584673695214997  0.13476301893147377  0.6030078280244033  1.0000
  H   H483      1.0  0.7536386961316239  0.09751791765243777  0.6047083328396777  1.0000
  H   H484      1.0  0.7698478118930749  0.13350087250600975  0.657283483213371  1.0000
  H   H485      1.0  0.7666027654473243  0.09624525280792408  0.6576942780634162  1.0000
  H   H486      1.0  0.8012243420455519  0.11269073912419585  0.670809113500342  1.0000
  H   H487      1.0  0.8367679204129868  0.13554015280114046  0.6356391202506949  1.0000
  H   H488      1.0  0.8056487095919989  0.15658448792781537  0.6216645296850458  1.0000
  H   H489      1.0  0.8281636666470618  0.13557760934683605  0.5968799101782348  1.0000
  H   H490      1.0  0.8234683684013678  0.0844551612228286  0.5970152010455692  1.0000
  H   H491      1.0  0.79754664583849  0.06753427029450887  0.6221162468791172  1.0000
  H   H492      1.0  0.8322573050695967  0.08362270052126085  0.6356100144415993  1.0000
  N   N26       1.0  0.5124166993823734  0.5150248245022697  0.5629730180904056  1.0000
  C   C389      1.0  0.4885647406803166  0.537231106588754  0.5638770257575116  1.0000
  C   C390      1.0  0.5075597055884127  0.4971366483857867  0.5368353162594633  1.0000
  C   C391      1.0  0.510220296324024  0.4977401943331326  0.5898833777843495  1.0000
  C   C392      1.0  0.543349557631668  0.5278791593732953  0.5614017790249932  1.0000
  H   H493      1.0  0.49119018926188734  0.5507497089323738  0.5836667989996326  1.0000
  H   H494      1.0  0.46491128687694844  0.5282278048057669  0.564651393436503  1.0000
  H   H495      1.0  0.48990819661095764  0.5509595342184247  0.5440854568643753  1.0000
  H   H496      1.0  0.5237585145199469  0.47902655358887025  0.5368582424262612  1.0000
  H   H497      1.0  0.4836655307168835  0.48860941947657033  0.5362575598491385  1.0000
  H   H498      1.0  0.5114739820887328  0.5088826160901008  0.51594604569248  1.0000
  H   H499      1.0  0.5281584999402724  0.4809258324779415  0.5901460352495278  1.0000
  H   H500      1.0  0.48726654546885145  0.48746647734620285  0.5916475489452718  1.0000
  H   H501      1.0  0.5134087775396952  0.5105335289102316  0.6101415434799333  1.0000
  H   H502      1.0  0.5619067023115897  0.5117046815951184  0.5616517233591827  1.0000
  H   H503      1.0  0.5475395438767232  0.5420095211328143  0.5804414082283336  1.0000
  H   H504      1.0  0.5462612204460503  0.5402724193013524  0.5407694019716137  1.0000
  N   N27       1.0  0.2910362340541073  0.6305711474857545  0.9600088961103921  1.0000
  C   C393      1.0  0.27974157773362407  0.6015019085106212  0.9616379840343331  1.0000
  C   C394      1.0  0.2915570892493349  0.639948733982147  0.9289027473260522  1.0000
  C   C395      1.0  0.3226266079096294  0.6318127019857394  0.9722462466100122  1.0000
  C   C396      1.0  0.2702580139026007  0.6489731004917383  0.977301378816206  1.0000
  H   H505      1.0  0.28040480446035154  0.593364622440684  0.9846767825715377  1.0000
  H   H506      1.0  0.2938928258199214  0.587214138395732  0.947628415480521  1.0000
  H   H507      1.0  0.2554463903291648  0.6000069834122199  0.9538863829054345  1.0000
  H   H508      1.0  0.26800564584708636  0.6399267701500932  0.9190519092515242  1.0000
  H   H509      1.0  0.3011015951839263  0.6614429306554206  0.9268135108603848  1.0000
  H   H510      1.0  0.30618459385401153  0.625941365886528  0.915025190750138  1.0000
  H   H511      1.0  0.33146311207356455  0.6535859652166907  0.9724823265842542  1.0000
  H   H512      1.0  0.3392185128128044  0.6191128825643195  0.9590046794465186  1.0000
  H   H513      1.0  0.32351716056007407  0.6239182510776906  0.9952735613942842  1.0000
  H   H514      1.0  0.2466396487362675  0.6497056451671537  0.9676351543515083  1.0000
  H   H515      1.0  0.27905816179571935  0.6707852838547061  0.9782469204847645  1.0000
  H   H516      1.0  0.2678538489411597  0.6414686865021522  0.0004238992059097946  1.0000
  N   N28       1.0  0.5733458928816135  0.1700024717661612  0.17328366596120692  1.0000
  C   C397      1.0  0.6042394867214786  0.15876882362168274  0.16563903720543305  1.0000
  C   C398      1.0  0.5495380902369019  0.14954197676569922  0.1647709763706675  1.0000
  C   C399      1.0  0.5679144855694576  0.1964850353920775  0.15726588991606727  1.0000
  C   C400      1.0  0.5715646565840548  0.17509242021207722  0.20543819978381106  1.0000
  H   H517      1.0  0.6228886924592774  0.1736589186988615  0.17150137601724924  1.0000
  H   H518      1.0  0.6061585604179978  0.1540836436325804  0.14160909718944037  1.0000
  H   H519      1.0  0.6090483171010983  0.13877180547824286  0.17739150037601648  1.0000
  H   H520      1.0  0.5258198055361895  0.15714324490582043  0.1701831574844992  1.0000
  H   H521      1.0  0.5504668286328934  0.14456216494567214  0.14078526659229196  1.0000
  H   H522      1.0  0.5528258058464728  0.1296166118761569  0.17687972988415024  1.0000
  H   H523      1.0  0.585422656349088  0.21247573502349432  0.16321613149049408  1.0000
  H   H524      1.0  0.5447010785005985  0.20537398719242417  0.1625192051961486  1.0000
  H   H525      1.0  0.569044455767074  0.1933010202214472  0.13294125029922288  1.0000
  H   H526      1.0  0.5483744542950864  0.1832236977136483  0.21198275974711622  1.0000
  H   H527      1.0  0.589111413449739  0.19046425260789326  0.21284121103838305  1.0000
  H   H528      1.0  0.5753522579494927  0.15546503522093139  0.2182032869484989  1.0000
  N   N29       1.0  0.06726692799436895  0.31531634835062233  0.811818928542386  1.0000
  C   C401      1.0  0.057312810173227195  0.2941294331483976  0.7901142224221467  1.0000
  C   C402      1.0  0.10117804927211  0.31388353176343897  0.8153949296144101  1.0000
  C   C403      1.0  0.0523067345382866  0.30978515523310646  0.8405546055638808  1.0000
  C   C404      1.0  0.05833976856724443  0.34350769692024463  0.801341322274214  1.0000
  H   H529      1.0  0.03185140442849854  0.2946417858064757  0.7870210239903037  1.0000
  H   H530      1.0  0.06329250008671039  0.27257620587334835  0.7975299184912266  1.0000
  H   H531      1.0  0.06811349256793231  0.2975447823945442  0.7681151568298678  1.0000
  H   H532      1.0  0.1093460624241227  0.32965382813041144  0.831713457844504  1.0000
  H   H533      1.0  0.10868096924774422  0.29292503369311934  0.8234306819097971  1.0000
  H   H534      1.0  0.11326468002562547  0.31800625099759705  0.7941579893644577  1.0000
  H   H535      1.0  0.05730085635107595  0.2882241462255197  0.8485570493468968  1.0000
  H   H536      1.0  0.026696225100948597  0.3117697732711902  0.8389809399832396  1.0000
  H   H537      1.0  0.060337017666279184  0.3246898727413497  0.8577694196797994  1.0000
  H   H538      1.0  0.06674631027050992  0.3600262974144848  0.816611913422305  1.0000
  H   H539      1.0  0.032768997122896604  0.3458957702161098  0.799859316788244  1.0000
  H   H540      1.0  0.06806298970186009  0.34799498550916397  0.7791230337599254  1.0000
  N   N30       1.0  0.24075052061963564  0.39024170628902544  0.552213588520911  1.0000
  C   C405      1.0  0.24864577978401248  0.3640347365597588  0.5678620702902955  1.0000
  C   C406      1.0  0.20856056751026886  0.3982840568678008  0.5592767547803451  1.0000
  C   C407      1.0  0.24372851587606403  0.38579024040392523  0.5200790901154051  1.0000
  C   C408      1.0  0.2619513537447504  0.4127181415230386  0.5615032667855002  1.0000
  H   H541      1.0  0.23286503736141206  0.3467387668327628  0.561448649450748  1.0000
  H   H542      1.0  0.24714345048851416  0.3666491813846482  0.5922178161297111  1.0000
  H   H543      1.0  0.27251345727636545  0.35700505410987693  0.5625829092964357  1.0000
  H   H544      1.0  0.20165382267943865  0.41780522212979787  0.5475702785888652  1.0000
  H   H545      1.0  0.19208090883149853  0.38159909303069994  0.5525670147909537  1.0000
  H   H546      1.0  0.20549582321234183  0.40191394886745946  0.5833668449853118  1.0000
  H   H547      1.0  0.23854303546372257  0.4051935255229091  0.507423751502023  1.0000
  H   H548      1.0  0.22759080146265598  0.3693049056927964  0.5123272514304684  1.0000
  H   H549      1.0  0.26759493325141115  0.37910296648456304  0.5139494663026145  1.0000
  H   H550      1.0  0.2862051391114626  0.4078221693332973  0.5552157360997191  1.0000
  H   H551      1.0  0.2615581198024204  0.4158529497898808  0.5858473964110998  1.0000
  H   H552      1.0  0.2559807947897952  0.43301685765444864  0.5508717209287926  1.0000
  N   N31       1.0  0.25520398395023214  0.20403764050688916  0.5384115007528696  1.0000
  C   C409      1.0  0.22483207912284994  0.19006033437117859  0.5381356001053915  1.0000
  C   C410      1.0  0.2520579722476604  0.2324497535613965  0.5258796977825002  1.0000
  C   C411      1.0  0.2774937355368277  0.18769079148382317  0.5205615943891414  1.0000
  C   C412      1.0  0.2664782166131414  0.2060130887797053  0.5691129458085264  1.0000
  H   H553      1.0  0.22630687692126067  0.1684118705833753  0.547031054451464  1.0000
  H   H554      1.0  0.21526521685081101  0.18873116396479914  0.5153901828300311  1.0000
  H   H555      1.0  0.20763646717130047  0.2015730010030911  0.5518775040787232  1.0000
  H   H556      1.0  0.23528378617679716  0.2454222038352354  0.538627720383794  1.0000
  H   H557      1.0  0.2746086629344397  0.24354176280509904  0.5257892279643062  1.0000
  H   H558      1.0  0.24391653895987608  0.23177862610315172  0.5025895455847673  1.0000
  H   H559      1.0  0.30098741007152396  0.19707636301962234  0.521291589734917  1.0000
  H   H560      1.0  0.2705950541840838  0.18709476557416796  0.49688149983380236  1.0000
  H   H561      1.0  0.2795840180163951  0.1657720471606691  0.5285349518972101  1.0000
  H   H562      1.0  0.2893396426179689  0.21656861482845333  0.5700867801263875  1.0000
  H   H563      1.0  0.2692017307586826  0.1849406783569746  0.5792490111029666  1.0000
  H   H564      1.0  0.2501370690054237  0.21822778988991953  0.5831553531374865  1.0000
  N   N32       1.0  0.27665744669503284  0.7526586333228164  0.8509984626926062  1.0000
  C   C413      1.0  0.2985381080797556  0.7563246687783439  0.8262454724478497  1.0000
  C   C414      1.0  0.2598465376249548  0.7791302408974191  0.8560847307191378  1.0000
  C   C415      1.0  0.2937420503299503  0.7447477562945415  0.8779714621220852  1.0000
  C   C416      1.0  0.2543727084389971  0.7304340988665892  0.843705430937784  1.0000
  H   H565      1.0  0.31159050690436685  0.7366945979110604  0.8215754048205367  1.0000
  H   H566      1.0  0.3156892076043369  0.7729272992950298  0.8310716138854815  1.0000
  H   H567      1.0  0.28622255973364596  0.7623834169088123  0.8056203070547348  1.0000
  H   H568      1.0  0.2417074916908087  0.7766410692332948  0.8732226553385458  1.0000
  H   H569      1.0  0.27575863249041954  0.7960693055874247  0.8629838845509729  1.0000
  H   H570      1.0  0.24803342608408382  0.7864253646895042  0.8357534010706102  1.0000
  H   H571      1.0  0.3050592788320343  0.7239942921332877  0.8753047330290886  1.0000
  H   H572      1.0  0.27806021106812756  0.7433280868873794  0.897355906082267  1.0000
  H   H573      1.0  0.31194875471704514  0.7602724873753913  0.8834585754971218  1.0000
  H   H574      1.0  0.23956466495824608  0.7250789881517475  0.862937107915119  1.0000
  H   H575      1.0  0.2664831671126994  0.711091357226787  0.8362887497410486  1.0000
  H   H576      1.0  0.2386400338401879  0.7370258144856918  0.8256774207344361  1.0000
  N   N33       1.0  0.31916085158195434  0.5812813369376053  0.15878603204663277  1.0000
  C   C417      1.0  0.3097497930111019  0.6074207689622959  0.14377896369470491  1.0000
  C   C418      1.0  0.31277065412756716  0.5571825821463862  0.13935752401426862  1.0000
  C   C419      1.0  0.3016101130810727  0.5783181795913096  0.18661408196675527  1.0000
  C   C420      1.0  0.3525819739378604  0.5821184890149743  0.16539298147424264  1.0000
  H   H577      1.0  0.3142969837511667  0.6261210543840171  0.1576472674239389  1.0000
  H   H578      1.0  0.28465985681547534  0.6073703499867563  0.13850214270023384  1.0000
  H   H579      1.0  0.32219198607892885  0.6101487270983507  0.12244913040160038  1.0000
  H   H580      1.0  0.3236854764358696  0.5597335976623485  0.11726471096431179  1.0000
  H   H581      1.0  0.3217719646177546  0.537368296628737  0.1489463899425123  1.0000
  H   H582      1.0  0.2875102525062343  0.5545849163962581  0.13560051313934954  1.0000
  H   H583      1.0  0.3089026445861635  0.5592804693358397  0.1989365879088536  1.0000
  H   H584      1.0  0.2763243611478644  0.5765042547215334  0.18245143808770167  1.0000
  H   H585      1.0  0.30508459699709795  0.5965258223093033  0.20146780912980713  1.0000
  H   H586      1.0  0.3603172524194252  0.5626505795407477  0.17686504228858832  1.0000
  H   H587      1.0  0.3583193461995371  0.6000696361715697  0.17996292745123463  1.0000
  H   H588      1.0  0.36649569762127315  0.5840894428230488  0.14482497475018286  1.0000
  N   N34       1.0  0.823418943597677  0.20773330038405555  0.8588460168246792  1.0000
  C   C421      1.0  0.8374287939765434  0.2273212185100545  0.8801375479896093  1.0000
  C   C422      1.0  0.7950010686940899  0.22035196374238378  0.8464448632097477  1.0000
  C   C423      1.0  0.8157359033289822  0.18132907855710476  0.8741121728178212  1.0000
  C   C424      1.0  0.8455972781577004  0.20198033986724562  0.8347288269210267  1.0000
  H   H589      1.0  0.8449575233814519  0.24698308809439026  0.8691091160827085  1.0000
  H   H590      1.0  0.8580950056209837  0.21785370640153057  0.8908809054017247  1.0000
  H   H591      1.0  0.8209277909197069  0.23312515466963318  0.8979655803702263  1.0000
  H   H592      1.0  0.7843815136609152  0.20655531155675952  0.8295139562552482  1.0000
  H   H593      1.0  0.7774137496874977  0.22431553996250259  0.8638901224531552  1.0000
  H   H594      1.0  0.7999433372090614  0.24079636291866802  0.8356924354827873  1.0000
  H   H595      1.0  0.8051431708566122  0.16595172967023802  0.8587621699336663  1.0000
  H   H596      1.0  0.7991821370263187  0.1848940701162195  0.8925542867459902  1.0000
  H   H597      1.0  0.8367640373403127  0.17134471456092149  0.8837828910862249  1.0000
  H   H598      1.0  0.8517066305566237  0.22143651447054363  0.8226587924671803  1.0000
  H   H599      1.0  0.8359570419448302  0.18703825115744993  0.8183731017810745  1.0000
  H   H600      1.0  0.8675245276845474  0.1929621287567428  0.843400562376087  1.0000
  N   N35       1.0  0.13940271527474601  0.5722263216274626  0.9726107629887385  1.0000
  C   C425      1.0  0.14949309568645758  0.5967091032903645  0.9899539394640083  1.0000
  C   C426      1.0  0.13519354207951825  0.580489931559023  0.9414305959176619  1.0000
  C   C427      1.0  0.10981950387952703  0.561831483750932  0.9845709146463281  1.0000
  C   C428      1.0  0.16313983212330846  0.5499581296059078  0.9745625855121878  1.0000
  H   H601      1.0  0.15289339318520362  0.5911862838676507  0.013627235931571224  1.0000
  H   H602      1.0  0.13219296974242423  0.6140007168668807  0.9888694372066645  1.0000
  H   H603      1.0  0.1717712436438028  0.6050685531935255  0.9815240779836744  1.0000
  H   H604      1.0  0.1273817690774828  0.5625927195716791  0.9276573112706462  1.0000
  H   H605      1.0  0.11757853087697188  0.5973609351370875  0.9391643514463335  1.0000
  H   H606      1.0  0.15703049031120056  0.5883998641485986  0.9316432714917219  1.0000
  H   H607      1.0  0.09132730859946923  0.5780109086925639  0.9830891587777708  1.0000
  H   H608      1.0  0.11211644483335857  0.5555456819591984  0.008118925311119352  1.0000
  H   H609      1.0  0.10157324570475317  0.5431925796551793  0.9721966694778631  1.0000
  H   H610      1.0  0.15619817677711081  0.5309205874501635  0.9621635991576168  1.0000
  H   H611      1.0  0.16711923942584464  0.5434495217872052  0.9978241453896554  1.0000
  H   H612      1.0  0.18565352986049624  0.5569062412901897  0.965337523546572  1.0000
  N   N36       1.0  0.9721044688877009  0.449867060214665  0.9094389156020388  1.0000
  C   C429      1.0  0.9552238844991269  0.4647235972043045  0.9331390077948495  1.0000
  C   C430      1.0  0.9822921059648848  0.47022259924712495  0.8869284304967451  1.0000
  C   C431      1.0  0.9515705423162374  0.42906998848476974  0.8955916723247551  1.0000
  C   C432      1.0  0.9993598004884638  0.4354699996683897  0.9220947585250298  1.0000
  H   H613      1.0  0.947483065603946  0.45006313541798154  0.9506862649648846  1.0000
  H   H614      1.0  0.9344902608150945  0.4758088159110367  0.924409377429661  1.0000
  H   H615      1.0  0.9700999863294808  0.48070240847031936  0.9438977652299281  1.0000
  H   H616      1.0  0.9951597330430118  0.45972877274565577  0.8687081514846363  1.0000
  H   H617      1.0  0.9623481786834645  0.48147892931539654  0.8768847949718835  1.0000
  H   H618      1.0  0.9978315323904967  0.4862745859583761  0.8966497850641892  1.0000
  H   H619      1.0  0.9637571197425254  0.4174004130389064  0.8778262721779796  1.0000
  H   H620      1.0  0.9309654037812861  0.43915768162090224  0.8853533996149902  1.0000
  H   H621      1.0  0.9433015092074765  0.4133924938125964  0.9118893117609572  1.0000
  H   H622      1.0  0.013200612190735317  0.4246832588470464  0.9047672679219254  1.0000
  H   H623      1.0  0.9925945347099749  0.4194704132274603  0.938666695592245  1.0000
  H   H624      1.0  0.014953856321987535  0.45047278160886783  0.933348585060866  1.0000
  N   N37       1.0  0.8837307936660286  0.01805907912553617  0.9506528865207599  1.0000
  C   C433      1.0  0.8534703296554291  0.009211679055967759  0.9388997510296316  1.0000
  C   C434      1.0  0.9068462354664611  0.01774813400636677  0.9265878664633737  1.0000
  C   C435      1.0  0.8935286416286977  0.9987111833958167  0.9743539936204025  1.0000
  C   C436      1.0  0.8809852983321845  0.04664577361578071  0.962768819105056  1.0000
  H   H625      1.0  0.8351982933559934  0.010023156660440515  0.9562188999864107  1.0000
  H   H626      1.0  0.8543623931103136  0.9874831949358984  0.9302050797475769  1.0000
  H   H627      1.0  0.8457555937915103  0.023041287615144682  0.9204952250642764  1.0000
  H   H628      1.0  0.8998155229669342  0.031786532622642624  0.9081407720388599  1.0000
  H   H629      1.0  0.9298644795520522  0.024988573011736962  0.9343249238196811  1.0000
  H   H630      1.0  0.9099085434522288  0.996444233658489  0.9171408578437665  1.0000
  H   H631      1.0  0.9162913133613763  0.00480457543760049  0.9837013698914536  1.0000
  H   H632      1.0  0.895599821783222  0.9768572629238107  0.9661481576390178  1.0000
  H   H633      1.0  0.8766058998678913  0.9986381470908671  0.9929096124233282  1.0000
  H   H634      1.0  0.8639480946476603  0.04761489780347803  0.9812135353655774  1.0000
  H   H635      1.0  0.8730980240293823  0.06170717790888688  0.9456365724679316  1.0000
  H   H636      1.0  0.9034166525054345  0.054310587022547874  0.9714656930541613  1.0000
  N   N38       1.0  0.9447966964081808  0.7594169498605933  0.0033550103504611517  1.0000
  C   C437      1.0  0.9730547115953355  0.7766224091574444  0.0023907391925961363  1.0000
  C   C438      1.0  0.9448856767388736  0.7396187570776045  0.9783143045721561  1.0000
  C   C439      1.0  0.9172491192943723  0.7777443320878414  0.0015755543236102287  1.0000
  C   C440      1.0  0.9441182381545042  0.7436035515868303  0.031304854412109284  1.0000
  H   H637      1.0  0.9739519583109164  0.7915613244948417  0.02119143273041746  1.0000
  H   H638      1.0  0.9745139193759756  0.7888256686510089  0.9815014046045001  1.0000
  H   H639      1.0  0.9942679090488925  0.7633453976600996  0.0034894848933615386  1.0000
  H   H640      1.0  0.9240150121551606  0.7261520990994338  0.9784133222137826  1.0000
  H   H641      1.0  0.945728706749413  0.7507958841225986  0.9567623187932778  1.0000
  H   H642      1.0  0.9654836909094925  0.7255527469938784  0.9790641482799788  1.0000
  H   H643      1.0  0.8955339187453081  0.7653927041906272  0.00242642345981281  1.0000
  H   H644      1.0  0.917073396553146  0.7900117887589697  0.9806899382064452  1.0000
  H   H645      1.0  0.9164988007573452  0.792873586780838  0.02026348733026273  1.0000
  H   H646      1.0  0.9648506277909152  0.7298676932925492  0.03341598462339124  1.0000
  H   H647      1.0  0.923418416984842  0.7299831008548986  0.03289315339796306  1.0000
  H   H648      1.0  0.9437674319586322  0.7578782268036578  0.05071055277118597  1.0000
  N   N39       1.0  0.40739699234808907  0.5692213443933072  0.7008904741223124  1.0000
  C   C441      1.0  0.43994984191706915  0.5757738059726396  0.70769266474581  1.0000
  C   C442      1.0  0.40548988028967975  0.5403290699896414  0.6895971114085301  1.0000
  C   C443      1.0  0.39562795683707075  0.5888079878121188  0.6782172475197217  1.0000
  C   C444      1.0  0.3884907393141032  0.5718564497173092  0.72794880637466  1.0000
  H   H649      1.0  0.4423400877267044  0.5974456279259805  0.7162981247906125  1.0000
  H   H650      1.0  0.4548064326918861  0.5738007198989729  0.6876956110273666  1.0000
  H   H651      1.0  0.4494918670331231  0.5611943312386545  0.7246014671086942  1.0000
  H   H652      1.0  0.38139806842389906  0.5349524110766161  0.6834944620762234  1.0000
  H   H653      1.0  0.41997385357351863  0.5374670834946523  0.6695358600482154  1.0000
  H   H654      1.0  0.4135579351333125  0.5247502082673542  0.7061865241670007  1.0000
  H   H655      1.0  0.37097920796843853  0.5845650829800101  0.672839543359599  1.0000
  H   H656      1.0  0.40883870900679664  0.5869029647247445  0.6572120853356136  1.0000
  H   H657      1.0  0.39694236805422434  0.6108954968569049  0.6857702790875402  1.0000
  H   H658      1.0  0.36385452486438435  0.5670186849081233  0.7234633874496225  1.0000
  H   H659      1.0  0.38920715895652896  0.5934331572655744  0.7370988249082091  1.0000
  H   H660      1.0  0.39641369564377027  0.5571836211078425  0.7454836436749186  1.0000
  N   N40       1.0  0.741054432562556  0.8036104389284374  0.10997767826371474  1.0000
  C   C445      1.0  0.7453026674662029  0.8078338299060792  0.0779022719635849  1.0000
  C   C446      1.0  0.746330704977801  0.8303221666534691  0.12551020762125975  1.0000
  C   C447      1.0  0.763371329786246  0.7823455819089243  0.12059176829389351  1.0000
  C   C448      1.0  0.7092117847741954  0.7940686923303442  0.11588169224541867  1.0000
  H   H661      1.0  0.7288017772438387  0.8237189112952608  0.06910328766354223  1.0000
  H   H662      1.0  0.7416872849169497  0.7881160179272764  0.0654263412408671  1.0000
  H   H663      1.0  0.7690182102772392  0.8153885021105053  0.07276493465375933  1.0000
  H   H664      1.0  0.7702574133020751  0.8380195119657426  0.12171257890566456  1.0000
  H   H665      1.0  0.7300151003774675  0.8468278359664165  0.11762940598685545  1.0000
  H   H666      1.0  0.7429052967863412  0.8279886942002216  0.1497545962809177  1.0000
  H   H667      1.0  0.7595322394163603  0.7616312505827854  0.11006953535504582  1.0000
  H   H668      1.0  0.7616520297505425  0.7792005295724913  0.14490501396968747  1.0000
  H   H669      1.0  0.7875588681045771  0.7884684879973144  0.1154401556697795  1.0000
  H   H670      1.0  0.6918457098536964  0.8096631001168526  0.10796564023314037  1.0000
  H   H671      1.0  0.7052119605886802  0.7908850196438515  0.13997393518883894  1.0000
  H   H672      1.0  0.7043886901766705  0.7739203086489813  0.10461546959051615  1.0000
  N   N41       1.0  0.6008744433205642  0.2853597389074552  0.48135251710999455  1.0000
  C   C449      1.0  0.6187222686702769  0.29483707788951974  0.45542365142427027  1.0000
  C   C450      1.0  0.5770121622209222  0.26532579559439007  0.4717792992065776  1.0000
  C   C451      1.0  0.5858908795579783  0.30974367167737205  0.49551924959265514  1.0000
  C   C452      1.0  0.6218967272791489  0.2716325849489646  0.5026638199895538  1.0000
  H   H673      1.0  0.6034787624851983  0.3052700910875069  0.43890866363019393  1.0000
  H   H674      1.0  0.6304201931074874  0.2769842940214438  0.44420075972956563  1.0000
  H   H675      1.0  0.6368439171169581  0.3101132411109516  0.46191966396411804  1.0000
  H   H676      1.0  0.5625277987232666  0.25821415425192373  0.4906567693170275  1.0000
  H   H677      1.0  0.5610923176786677  0.27483284602448904  0.4552386806519479  1.0000
  H   H678      1.0  0.5873755714805353  0.24639009393797753  0.4614086906979648  1.0000
  H   H679      1.0  0.5724675999352359  0.3034202133874022  0.5153589039694536  1.0000
  H   H680      1.0  0.569643989701235  0.32049596794259483  0.4801656015354613  1.0000
  H   H681      1.0  0.6032268277781968  0.3254009295623411  0.5028114413457376  1.0000
  H   H682      1.0  0.6408016390497288  0.28592468910857616  0.509482701277785  1.0000
  H   H683      1.0  0.6329008572518867  0.25260291220048864  0.4931121156928619  1.0000
  H   H684      1.0  0.6094427181605424  0.26523881715335434  0.5230868107858704  1.0000
  N   N42       1.0  0.04845468459663449  0.8708544075998019  0.8183883771635432  1.0000
  C   C453      1.0  0.048553738756447196  0.855392982881247  0.846644314197302  1.0000
  C   C454      1.0  0.01903620863519695  0.8658763644525207  0.8027699701394608  1.0000
  C   C455      1.0  0.07450882750348287  0.861036256480302  0.7999431587032637  1.0000
  C   C456      1.0  0.05181112556890821  0.9010916783050269  0.8242024679646658  1.0000
  H   H685      1.0  0.028955194769260117  0.8618938738077901  0.8610319678003693  1.0000
  H   H686      1.0  0.07033231696518838  0.8589968776078838  0.8591110990230268  1.0000
  H   H687      1.0  0.046713426605223374  0.8324342370953496  0.8429867578948672  1.0000
  H   H688      1.0  0.018170047119939525  0.8774223030079898  0.781438351777145  1.0000
  H   H689      1.0  0.015774819264752216  0.8432454058970337  0.7980343376485094  1.0000
  H   H690      1.0  0.9988841038419326  0.8731961803288337  0.8160624317206846  1.0000
  H   H691      1.0  0.07572796303961193  0.8726362967970999  0.7786778127350455  1.0000
  H   H692      1.0  0.07267887481156476  0.8383145265138842  0.7948805255715998  1.0000
  H   H693      1.0  0.0969420029414263  0.8641128368246016  0.8114116648117766  1.0000
  H   H694      1.0  0.07396187478236271  0.9056022387626905  0.8357643481875889  1.0000
  H   H695      1.0  0.032506360091506536  0.9092422485303123  0.8380489801498475  1.0000
  H   H696      1.0  0.05167224550455285  0.9133501097957301  0.8033037022817437  1.0000
  N   N43       1.0  0.22541166106545774  0.5023022851668829  0.8105338087749206  1.0000
  C   C457      1.0  0.20613799052838422  0.5217397308391183  0.7929636057564762  1.0000
  C   C458      1.0  0.2429046119138225  0.5182912867612068  0.8328127848384659  1.0000
  C   C459      1.0  0.2471892443905035  0.48744592851190915  0.7907899289446957  1.0000
  C   C460      1.0  0.2054279751754935  0.4817496148801013  0.8255552046122993  1.0000
  H   H697      1.0  0.19227952704605178  0.510458484064185  0.776143855228739  1.0000
  H   H698      1.0  0.2206189587780263  0.537386285994346  0.781169392146868  1.0000
  H   H699      1.0  0.1895645391459042  0.5334746860211534  0.8071946225234977  1.0000
  H   H700      1.0  0.2571215695880271  0.5043470674359958  0.8470659511887361  1.0000
  H   H701      1.0  0.2587937841011656  0.5335196670026249  0.8222664561637354  1.0000
  H   H702      1.0  0.22718054364743612  0.5304938964905416  0.8473999732845172  1.0000
  H   H703      1.0  0.2627452737499669  0.4732168136351577  0.8033899264874238  1.0000
  H   H704      1.0  0.2621401131633867  0.5023761559693246  0.7785786652894315  1.0000
  H   H705      1.0  0.2347411286546064  0.4748043729029421  0.7740335905680689  1.0000
  H   H706      1.0  0.21921050205281234  0.466467512692015  0.8386514722937619  1.0000
  H   H707      1.0  0.1910862279080916  0.4699093522884101  0.8095407731442897  1.0000
  H   H708      1.0  0.18918467656948623  0.4921814803515831  0.8410683295077483  1.0000
  N   N44       1.0  0.8100778857953113  0.801625759390244  0.27826977178598744  1.0000
  C   C461      1.0  0.792419644437615  0.7951216710188647  0.2512345149407027  1.0000
  C   C462      1.0  0.790760736835117  0.7963377887823392  0.30456826445936547  1.0000
  C   C463      1.0  0.8192365609302744  0.8313322032212598  0.27768877114363044  1.0000
  C   C464      1.0  0.8379102101528227  0.7836497564421026  0.27958461323973305  1.0000
  H   H709      1.0  0.8068401894618041  0.7976454981730049  0.23104741229259118  1.0000
  H   H710      1.0  0.7718229402585177  0.8089775109263275  0.2489021686125179  1.0000
  H   H711      1.0  0.7840109401221664  0.7731966035975799  0.25146372022932195  1.0000
  H   H712      1.0  0.8033443408949614  0.8012740748359706  0.3253092508963762  1.0000
  H   H713      1.0  0.7694947804984359  0.8094130227063839  0.3042858685331524  1.0000
  H   H714      1.0  0.7833703780510999  0.7740599554975467  0.30569182494105474  1.0000
  H   H715      1.0  0.8332854191651115  0.8369683621310058  0.29736002929714034  1.0000
  H   H716      1.0  0.7986825467217541  0.8454267149888564  0.27762755687091123  1.0000
  H   H717      1.0  0.8331034468951767  0.8361152384457531  0.2576623802355249  1.0000
  H   H718      1.0  0.8526135366852596  0.7889152919610841  0.29888827144429686  1.0000
  H   H719      1.0  0.8523240445689586  0.785913751671029  0.25939126702872595  1.0000
  H   H720      1.0  0.8315341886979453  0.7612151155370115  0.2814929117990612  1.0000
  N   N45       1.0  0.978065774860146  0.08688678490182067  0.5940263961875094  1.0000
  C   C465      1.0  0.9593127467179802  0.08149253250155386  0.5674322606208415  1.0000
  C   C466      1.0  0.9940362732600724  0.06085107085386898  0.6030314054237877  1.0000
  C   C467      1.0  0.9576632125756893  0.09658156133108053  0.6181476543379566  1.0000
  C   C468      1.0  0.001125010328256069  0.10870956630376516  0.5874925884826194  1.0000
  H   H721      1.0  0.9466772052368755  0.10064345885071257  0.5603306389923793  1.0000
  H   H722      1.0  0.9417905604449507  0.06496802200197704  0.571513447534284  1.0000
  H   H723      1.0  0.9738961451259914  0.07461364437928997  0.5484874477377152  1.0000
  H   H724      1.0  0.008044279716670431  0.06403489652376937  0.6233193986790365  1.0000
  H   H725      1.0  0.9773021857564063  0.043808322983628356  0.6077000588499436  1.0000
  H   H726      1.0  0.01009922177761946  0.053337489081545675  0.5855152815185152  1.0000
  H   H727      1.0  0.970993400429584  0.1005475892334955  0.6386788893188678  1.0000
  H   H728      1.0  0.9396656264327327  0.08082186864305663  0.6233065247037946  1.0000
  H   H729      1.0  0.945504012039162  0.1163408254934557  0.6120609791874928  1.0000
  H   H730      1.0  0.9898288375753108  0.12881777318497023  0.5812725345017793  1.0000
  H   H731      1.0  0.016659493696503217  0.10244196996678423  0.5690208872495536  1.0000
  H   H732      1.0  0.016011105695282298  0.11293712697662817  0.6069337646099363  1.0000
  N   N46       1.0  0.8852228686676796  0.039552001255723335  0.7238242435010578  1.0000
  C   C469      1.0  0.9043190713455864  0.03617601976774942  0.7506479238577698  1.0000
  C   C470      1.0  0.8541898194001487  0.04990507538057143  0.7322020177100911  1.0000
  C   C471      1.0  0.8823087998179855  0.012348765607502088  0.7086422639042657  1.0000
  C   C472      1.0  0.9001461779856815  0.05981206833449426  0.7037908206215492  1.0000
  H   H733      1.0  0.9277323593562267  0.027928000355064597  0.7452348817387002  1.0000
  H   H734      1.0  0.8935617785826304  0.021496435565677707  0.766671330375993  1.0000
  H   H735      1.0  0.9076549305160063  0.056570369585767555  0.7620176454069401  1.0000
  H   H736      1.0  0.8556327737125385  0.06998476862646319  0.7444713683829226  1.0000
  H   H737      1.0  0.8394404826595822  0.05359454117190143  0.7124736126769085  1.0000
  H   H738      1.0  0.8420464286561866  0.03480723771384109  0.7468253126164391  1.0000
  H   H739      1.0  0.867602094354034  0.01404983055929998  0.6885500008649081  1.0000
  H   H740      1.0  0.8720281041357762  0.9962163798319003  0.7233297519405573  1.0000
  H   H741      1.0  0.9051860708282793  0.004375658235293178  0.7012505751756566  1.0000
  H   H742      1.0  0.9008081018715874  0.08105018660841279  0.7136328680281977  1.0000
  H   H743      1.0  0.8877277901676841  0.061420724303195895  0.6823371785850473  1.0000
  H   H744      1.0  0.9245562922214812  0.053736184049447466  0.6992149810233741  1.0000
  N   N47       1.0  0.7529786153409074  0.9257591536300599  0.41182433416956044  1.0000
  C   C473      1.0  0.7854085264946775  0.9171134662898304  0.4068610889878141  1.0000
  C   C474      1.0  0.7495689642408656  0.955960892522653  0.40546631009820716  1.0000
  C   C475      1.0  0.7445020344522179  0.920371945318463  0.4429060811904822  1.0000
  C   C476      1.0  0.7325217529253377  0.9095523219955499  0.39216926674713215  1.0000
  H   H745      1.0  0.7884806374809262  0.894091175727091  0.4092784428514259  1.0000
  H   H746      1.0  0.8013019136299029  0.9274141036966735  0.42269707230501874  1.0000
  H   H747      1.0  0.7932707664262899  0.9226532881347008  0.38420977570852355  1.0000
  H   H748      1.0  0.7645821739135382  0.9687737851165541  0.42008105908308724  1.0000
  H   H749      1.0  0.7561605904878281  0.9609504873488243  0.3823011502117725  1.0000
  H   H750      1.0  0.7253444138441147  0.9632586578066151  0.40868474206684635  1.0000
  H   H751      1.0  0.759353083289738  0.9325000124339944  0.4583234522536286  1.0000
  H   H752      1.0  0.7472467747268995  0.8978350829482419  0.44856245406942746  1.0000
  H   H753      1.0  0.7200611382981343  0.9264112856816227  0.44737399531182054  1.0000
  H   H754      1.0  0.7079574437625756  0.9162266620918527  0.394348824984971  1.0000
  H   H755      1.0  0.733766643024047  0.886752870727426  0.3970552517614394  1.0000
  H   H756      1.0  0.7392063712405158  0.9120465463238232  0.3686324119270475  1.0000
  N   N48       1.0  0.9525467548473247  0.1876874381423988  0.7557912919493144  1.0000
  C   C477      1.0  0.9244962717023683  0.19418159669875246  0.7732310519163988  1.0000
  C   C478      1.0  0.9726176095618324  0.21255725314807689  0.7545880021991601  1.0000
  C   C479      1.0  0.9436422438350229  0.17973390725385743  0.7254626109476688  1.0000
  C   C480      1.0  0.9694497836843566  0.16428181020633464  0.769813155680041  1.0000
  H   H757      1.0  0.9093779791513164  0.17556673227740327  0.7755245457426676  1.0000
  H   H758      1.0  0.9104433475607207  0.21093067045593777  0.7626159143699845  1.0000
  H   H759      1.0  0.9304537973633187  0.20140306758525048  0.7959067914285908  1.0000
  H   H760      1.0  0.9942732601510208  0.20837404199866433  0.7419958341241486  1.0000
  H   H761      1.0  0.9607171816912128  0.23033624346325476  0.7434755054328235  1.0000
  H   H762      1.0  0.9793129902563835  0.21970620194484855  0.7770710766095625  1.0000
  H   H763      1.0  0.9287053424014942  0.16087472466874891  0.7254946104224075  1.0000
  H   H764      1.0  0.9643228506211358  0.1750276681884324  0.7116423747757588  1.0000
  H   H765      1.0  0.9306221328683698  0.196908237179256  0.7143357350559071  1.0000
  H   H766      1.0  0.9760496711557849  0.16950167294995702  0.7928721838065071  1.0000
  H   H767      1.0  0.9909587801757389  0.15905993162877208  0.7574552709650836  1.0000
  H   H768      1.0  0.9550059423819608  0.14509443593338106  0.7706951921480281  1.0000
