data_image0
_chemical_formula_structural       SHCSCSC2H2FeHS2CS2FeS2HFe2CSHFeS2FeS2FeS2FeCFeS3C6H5C2FeC6H5FeH2C2H2C2SH2C6H4CSC3H2C2HCH4NC4H12NCSC2H3SHNH6FeH3CH3NH2SHCHCH8SCFeC2H2CHSHFeCH2SH2C3NHCH2CSCNC2H3NCH3SH2C3H7CHCH2CSCFeS2HFeSHFeS2FeS2FeSFeS3C7H8C6H8CH2CNH4CHCH6CHC2HCHCHC2H3FeN2H2SH4CH3CFeHCHCHCNSCHSCHCHCHCH2CH4CHCH2NSHCHCH2CFeH5S2FeS2FeS2FeSFeS3HS2CSHFeSHFeS2FeSHFeSFeS3C6H7SCH3C2HSCH3C6H4C6H4C2HCH2C6H4C2HCHCH2CNHCH2CHCHSNC4H12NCHC2H3CHCHFeH2CH2CH2CHSHCHCH2CFeHSH6NHFeH2CH3CH3CH2C5SHS2CH3C2HCH2CHCH2NHSHFeSHC2H4CNH3CH2CH2FeHC2H3CH2CH4FeH2C2FeSFeS3FeS2CSC5H2C6H2CH3CH3FeSCH3CHCH2CHCHSCHFeHSHCH2NH2CFeHSHCHC2H2CH2CH2CHSH2SCH4CHFeH2CFeSNH4CHC2FeH2CH3CSHFeCHC2H3CHC3S2C2H2NC2H3C2HCH5C2HC3SFeHCH8SH2SH2C2SHSCH2CSH2SHCSH3SCSC2NCHSHNFeH2FeHC3HNH3S2CHNHCH2CFeHC2HCHFeS2CH3CHFeS2HNH3SC6H6CNHSHCNCH4SC2H7CHSCH4CHFeHC5H4S2HC2SH7CHCH2CFeHSFeH3SFeS5H3FeNC6H3SH3CHFeSHFeS2FeS2Fe2SFeS2FeS2FeSFeSC6HC7H4C3HC4H3C6H6SH2NC3H8C2H3CSCH2CHSC2HNC3H9CH3FeH2CH3CH2NC2SH6NHC2HCHFeH4CHSH4CH2CH2NCH6CH3FeH3C2HSHCNC2S2CHSH4CNH3C2Fe2CHCH2Fe2S4CSCFeH2CH2CHCH8C2H2CHCHFeS2FeS2FeSFeS3FeS2FeS2FeHFeS3H2SHFeSC2H4C7H4C2NCHC6H4C6H4C6H6C2H3NC4H4CH6CHSCH5CNC4H14SHCH4CHC2HSNHCH2SHCHCNH4FeH3C2HFeH4SFeC2S2CH4C7NCH3CH2CHFeHNH3CHSHC2H2CH2C2HSH6CH2CH2CH3NH2C2H2FeSH2CSHFeS2FeS2FeSFeS3CSHFeSFe2SFeSFeS2HFeSFeCS2FeS2FeS2FeSFeS3C7H9SH2C6H4C6H4C6H4CHFeHC2H3C4H3C2H2C6H4C3H4C2H2NC4H12NC4H17C2HC2HCHNH2C2HCH2CH2CH2CHCH3CH2CSHC2SCHCHNC3HNCH2CH2CFeHSH4SH2CH4C2H2NH2CH3FeH6S2H3C2SHSN2SCH2CHCH2SH4SFeS2FeS2FeSFeS3FeHSCSCSFeS2FeS3CFeS2FeS2FeSFeS3C6H4CSHC6H7C7H4C6H4C6H4CHFeHFeHCH5C4H3NC4H12NHCSHC3H2NH3CNC4H13CH6C2HCNC4H5FeH3CH2SH2SCH4CFeH2SNHC3HNHSH5CH2CH5CHFeCHSH2CH2FeC2HCH5CHC2H2NCHCH2CH3CHSHCHCFeH3CNH4CSH5NCSH4FeHSFeHSCH4C3SC3H5SHCH2CHSH5CNH6C4H2CHC2SHSC3HC2HCH3NFeCNC2H2SH4C3H3SFeCH5CH2C2HFeHSNCHFeS2FeS2FeSFeS3FeS2FeS2FeSFeS3C6H4C6SH3C6H7C7H3C2H2SC2H4CH3CH2N2C4H12SH2CH4C2H9CH2C3H3CHCH2CH3C2H2NC2HNC4H9NCH7C2HCH5CH3FeCFeS2CFeHCSFe2SHSHCHCHFeH2CSC2H2CH3CNFeC2FeHFeSHSC3SCHSHS2H4FeS2FeS2FeSFeS3FeHSC2SFeS2H2FeS2FeS2CHCH2C7H4C2HC3HC2H3C4HCH4C6H4C6H4SC2H3NC4H6NH5NC4H13NHC2H5CNC2HCH5CH6CHNFeHFeCH4SCH4SHCSHC2SH3SH5SFe2S2C2H2SH6Fe2S2H2SHCH5C2NCSCHNH2C6H5NCH6SFeCH4CHCHSHCH3CHFeH2SHCH3C2HNC4H6CSH3CHFeCS2H6FeS2FeSHFeSH2FeS2H2FeCFeHSHFeS2FeS2FeSFeS3HC6H4CHC2H4C6H4NFeCH3C6H5C3H2C6HS2C7NC4H12SH4CSCHC2H2CH2CNH3FeHNHC2H3CH2NSH4CH4CH3CSH2CHCSCHCHC3HC2SHNH3CH4S3C2HC2FeH3FeH2CNHCS2H6CH3FeHCHCHCHFeHCH2CSCH2FeHSCHNSH2C2HSC2H4FeH2CSCHCH2C2HSH2CFeH5SH3CNC2H2CFeSH2CNHCFeHSCSHSHC2HC3SHCSHFeSHFeS2FeS2Fe2S3FeS2FeS2C3FeS2FeS2FeSFeS3C6H9C6H4CNC6H4CNC2HCHC9H5C2H5CHCNHCHCSH16CSCH3CHSCHCHSH2CH13C2FeHC2HNCH4NH4C2H2C3H2SHCH2SFeCFeS2CHFeSHFeS2FeS2FeSFeS3H3CH5SHC2H4C2H4C7H4CNC7H9NC3H2CHCHCHSH5CH2C3NC2H8CH7C2H3NHC4H2NCHCHSCHCH10C2HCHCH2NC2FeH2SFeSFeS2FeS2FeSFeS2FeSFeSHCFeS2C2H2CHC2H3C2NC3H2C6SH3C6H4C3HCHSCH2C6H4CFeH7CH3CSH7CHCHCHFeH5SCHCNCHSHCH2CH2CH3SHSHSHCHCH3NH2N2H3SH4CH3CH2CSH2SH2CH
_chemical_formula_sum              "S432 H1728 C1080 Fe216 N108"
_cell_length_a       56.1683
_cell_length_b       55.4331
_cell_length_c       94.2911
_cell_angle_alpha    89.8639
_cell_angle_beta     90.5586
_cell_angle_gamma    113.038

_space_group_name_H-M_alt    "P 1"
_space_group_IT_number       1

loop_
  _space_group_symop_operation_xyz
  'x, y, z'

loop_
  _atom_site_type_symbol
  _atom_site_label
  _atom_site_symmetry_multiplicity
  _atom_site_fract_x
  _atom_site_fract_y
  _atom_site_fract_z
  _atom_site_occupancy
  S   S1        1.0  0.29496  0.40989  0.13503  1.0000
  H   H1        1.0  0.29760  0.46307  0.13546  1.0000
  C   C1        1.0  0.15218  0.18122  0.99835  1.0000
  S   S2        1.0  0.32250  0.46664  0.10830  1.0000
  C   C2        1.0  0.14079  0.40842  0.21186  1.0000
  S   S3        1.0  0.05639  0.22095  0.00742  1.0000
  C   C3        1.0  0.08880  0.23216  0.00103  1.0000
  C   C4        1.0  0.03986  0.47008  0.11108  1.0000
  H   H2        1.0  0.28719  0.46184  0.15336  1.0000
  H   H3        1.0  0.06018  0.26249  0.02419  1.0000
  Fe  Fe1       1.0  0.24574  0.26271  0.01874  1.0000
  H   H4        1.0  0.22729  0.47243  0.14435  1.0000
  S   S4        1.0  0.25037  0.28511  0.03971  1.0000
  S   S5        1.0  0.31148  0.40971  0.23282  1.0000
  C   C5        1.0  0.25101  0.12002  0.01505  1.0000
  S   S6        1.0  0.20709  0.22950  0.01417  1.0000
  S   S7        1.0  0.26780  0.24010  0.00952  1.0000
  Fe  Fe2       1.0  0.30370  0.45018  0.08758  1.0000
  S   S8        1.0  0.27420  0.46424  0.07824  1.0000
  S   S9        1.0  0.29350  0.40843  0.09401  1.0000
  H   H5        1.0  0.25470  0.42874  0.12791  1.0000
  Fe  Fe3       1.0  0.24158  0.02916  0.00258  1.0000
  Fe  Fe4       1.0  0.07268  0.46352  0.22920  1.0000
  C   C6        1.0  0.30825  0.35768  0.12108  1.0000
  S   S10       1.0  0.04460  0.42129  0.22894  1.0000
  H   H6        1.0  0.14906  0.39498  0.21661  1.0000
  Fe  Fe5       1.0  0.07587  0.41426  0.21693  1.0000
  S   S11       1.0  0.07376  0.38928  0.19739  1.0000
  S   S12       1.0  0.10205  0.45669  0.21571  1.0000
  Fe  Fe6       1.0  0.08709  0.40422  0.08474  1.0000
  S   S13       1.0  0.12382  0.44056  0.08240  1.0000
  S   S14       1.0  0.08057  0.37819  0.06482  1.0000
  Fe  Fe7       1.0  0.07966  0.42126  0.11528  1.0000
  S   S15       1.0  0.11597  0.45769  0.11469  1.0000
  S   S16       1.0  0.05477  0.41981  0.13438  1.0000
  Fe  Fe8       1.0  0.10287  0.46299  0.09280  1.0000
  C   C7        1.0  0.24623  0.43702  0.13629  1.0000
  Fe  Fe9       1.0  0.13339  0.43192  0.10449  1.0000
  S   S17       1.0  0.16999  0.42841  0.11257  1.0000
  S   S18       1.0  0.06551  0.42746  0.09362  1.0000
  S   S19       1.0  0.09789  0.39471  0.10657  1.0000
  C   C8        1.0  0.07055  0.39989  0.17998  1.0000
  C   C9        1.0  0.05995  0.41853  0.17745  1.0000
  C   C10       1.0  0.05573  0.42489  0.16342  1.0000
  C   C11       1.0  0.06294  0.41343  0.15181  1.0000
  C   C12       1.0  0.07463  0.39570  0.15436  1.0000
  C   C13       1.0  0.07800  0.38864  0.16838  1.0000
  H   H7        1.0  0.05397  0.42719  0.18629  1.0000
  H   H8        1.0  0.04642  0.43840  0.16158  1.0000
  H   H9        1.0  0.07987  0.38644  0.14552  1.0000
  H   H10       1.0  0.08581  0.37390  0.17020  1.0000
  H   H11       1.0  0.08392  0.24828  0.05852  1.0000
  C   C14       1.0  0.26170  0.47830  0.12378  1.0000
  C   C15       1.0  0.03667  0.23070  0.04636  1.0000
  Fe  Fe10      1.0  0.11956  0.44967  0.23608  1.0000
  C   C16       1.0  0.24429  0.45316  0.08696  1.0000
  C   C17       1.0  0.22697  0.46536  0.08442  1.0000
  C   C18       1.0  0.20353  0.45741  0.09187  1.0000
  C   C19       1.0  0.19748  0.43724  0.10185  1.0000
  C   C20       1.0  0.21431  0.42441  0.10394  1.0000
  C   C21       1.0  0.23768  0.43242  0.09659  1.0000
  H   H12       1.0  0.19434  0.39751  0.24165  1.0000
  H   H13       1.0  0.19060  0.46741  0.09021  1.0000
  H   H14       1.0  0.20934  0.40834  0.11139  1.0000
  H   H15       1.0  0.25069  0.42270  0.09850  1.0000
  H   H16       1.0  0.03005  0.27127  0.05797  1.0000
  Fe  Fe11      1.0  0.22935  0.20909  0.00287  1.0000
  H   H17       1.0  0.13687  0.17461  0.00656  1.0000
  H   H18       1.0  0.01563  0.48059  0.13318  1.0000
  C   C22       1.0  0.27527  0.31354  0.04705  1.0000
  C   C23       1.0  0.30127  0.31676  0.04715  1.0000
  H   H19       1.0  0.16850  0.17616  0.00214  1.0000
  H   H20       1.0  0.22558  0.43209  0.13340  1.0000
  C   C24       1.0  0.28721  0.35333  0.06162  1.0000
  C   C25       1.0  0.26840  0.33190  0.05442  1.0000
  S   S20       1.0  0.16386  0.46969  0.23711  1.0000
  H   H21       1.0  0.28152  0.36720  0.06722  1.0000
  H   H22       1.0  0.24830  0.32936  0.05469  1.0000
  C   C26       1.0  0.01425  0.30740  0.04427  1.0000
  C   C27       1.0  0.01182  0.31521  0.05822  1.0000
  C   C28       1.0  0.03155  0.33710  0.06461  1.0000
  C   C29       1.0  0.05412  0.35143  0.05715  1.0000
  C   C30       1.0  0.05647  0.34370  0.04318  1.0000
  C   C31       1.0  0.03660  0.32208  0.03673  1.0000
  H   H23       1.0  0.26514  0.12182  0.02330  1.0000
  H   H24       1.0  0.02937  0.34270  0.07535  1.0000
  H   H25       1.0  0.07366  0.35475  0.03722  1.0000
  H   H26       1.0  0.03858  0.31681  0.02590  1.0000
  C   C32       1.0  0.18733  0.45553  0.23759  1.0000
  S   S21       1.0  0.24587  0.28448  0.99856  1.0000
  C   C33       1.0  0.05010  0.27191  0.05884  1.0000
  C   C34       1.0  0.13348  0.23570  0.00473  1.0000
  C   C35       1.0  0.10779  0.22821  0.00949  1.0000
  H   H27       1.0  0.14778  0.23279  0.01150  1.0000
  H   H28       1.0  0.10258  0.21924  0.01981  1.0000
  C   C36       1.0  0.05459  0.27141  0.03343  1.0000
  C   C37       1.0  0.22568  0.43413  0.23668  1.0000
  H   H29       1.0  0.03948  0.45082  0.11473  1.0000
  C   C38       1.0  0.08212  0.25819  0.04853  1.0000
  H   H30       1.0  0.21870  0.49220  0.23280  1.0000
  H   H31       1.0  0.01660  0.23000  0.04561  1.0000
  H   H32       1.0  0.32142  0.36018  0.13037  1.0000
  H   H33       1.0  0.30855  0.29598  0.00389  1.0000
  N   N1        1.0  0.15864  0.39417  0.06315  1.0000
  C   C39       1.0  0.15420  0.41648  0.05679  1.0000
  C   C40       1.0  0.14487  0.37030  0.05465  1.0000
  C   C41       1.0  0.14876  0.38991  0.07781  1.0000
  C   C42       1.0  0.18669  0.40003  0.06338  1.0000
  H   H34       1.0  0.16434  0.43487  0.06294  1.0000
  H   H35       1.0  0.13320  0.41278  0.05653  1.0000
  H   H36       1.0  0.16127  0.42018  0.04570  1.0000
  H   H37       1.0  0.14757  0.35302  0.05922  1.0000
  H   H38       1.0  0.12366  0.36560  0.05424  1.0000
  H   H39       1.0  0.15184  0.37278  0.04352  1.0000
  H   H40       1.0  0.15292  0.37417  0.08327  1.0000
  H   H41       1.0  0.12748  0.38434  0.07806  1.0000
  H   H42       1.0  0.15759  0.40798  0.08429  1.0000
  H   H43       1.0  0.19085  0.38370  0.06817  1.0000
  H   H44       1.0  0.19753  0.41792  0.06976  1.0000
  H   H45       1.0  0.19492  0.40351  0.05252  1.0000
  N   N2        1.0  0.15313  0.41950  0.19827  1.0000
  C   C43       1.0  0.18150  0.43177  0.20034  1.0000
  S   S22       1.0  0.24864  0.41945  0.23590  1.0000
  C   C44       1.0  0.14643  0.39829  0.18762  1.0000
  C   C45       1.0  0.14370  0.43956  0.19334  1.0000
  H   H46       1.0  0.19155  0.43991  0.19026  1.0000
  H   H47       1.0  0.18928  0.41749  0.20455  1.0000
  H   H48       1.0  0.18693  0.44818  0.20813  1.0000
  S   S23       1.0  0.09455  0.40665  0.23689  1.0000
  H   H49       1.0  0.11968  0.39704  0.21054  1.0000
  N   N3        1.0  0.05139  0.49061  0.12197  1.0000
  H   H50       1.0  0.12505  0.38873  0.18600  1.0000
  H   H51       1.0  0.28807  0.35011  0.12511  1.0000
  H   H52       1.0  0.29854  0.41472  0.18701  1.0000
  H   H53       1.0  0.12227  0.43115  0.19202  1.0000
  H   H54       1.0  0.15210  0.44797  0.18295  1.0000
  H   H55       1.0  0.24194  0.47438  0.11954  1.0000
  Fe  Fe12      1.0  0.31527  0.42536  0.11421  1.0000
  H   H56       1.0  0.29634  0.32516  0.08955  1.0000
  H   H57       1.0  0.15315  0.38277  0.19107  1.0000
  H   H58       1.0  0.05160  0.26289  0.06917  1.0000
  C   C46       1.0  0.24395  0.14140  0.01217  1.0000
  H   H59       1.0  0.24669  0.42656  0.14632  1.0000
  H   H60       1.0  0.15512  0.40585  0.17715  1.0000
  H   H61       1.0  0.06338  0.29299  0.05918  1.0000
  N   N4        1.0  0.32495  0.33808  0.00368  1.0000
  H   H62       1.0  0.03964  0.21996  0.03701  1.0000
  H   H63       1.0  0.01962  0.46734  0.10846  1.0000
  S   S24       1.0  0.24861  0.06956  0.01222  1.0000
  H   H64       1.0  0.03773  0.21969  0.05606  1.0000
  C   C47       1.0  0.24737  0.47612  0.14798  1.0000
  H   H65       1.0  0.03553  0.46392  0.13924  1.0000
  C   C48       1.0  0.21333  0.47150  0.23476  1.0000
  H   H66       1.0  0.27346  0.32978  0.10136  1.0000
  H   H67       1.0  0.03466  0.27011  0.03129  1.0000
  H   H68       1.0  0.09707  0.27855  0.04877  1.0000
  H   H69       1.0  0.27166  0.47091  0.11577  1.0000
  H   H70       1.0  0.14871  0.45601  0.20109  1.0000
  H   H71       1.0  0.05105  0.47509  0.10105  1.0000
  H   H72       1.0  0.31878  0.31500  0.12555  1.0000
  H   H73       1.0  0.31367  0.35896  0.01974  1.0000
  S   S25       1.0  0.27836  0.02328  0.99784  1.0000
  C   C49       1.0  0.28722  0.47110  0.14286  1.0000
  Fe  Fe13      1.0  0.02037  0.22953  0.00160  1.0000
  C   C50       1.0  0.03601  0.48298  0.13508  1.0000
  C   C51       1.0  0.23962  0.09616  0.00759  1.0000
  H   H74       1.0  0.30666  0.30203  0.04229  1.0000
  H   H75       1.0  0.14313  0.42414  0.21967  1.0000
  C   C52       1.0  0.31154  0.41597  0.15154  1.0000
  H   H76       1.0  0.25259  0.15932  0.01823  1.0000
  S   S26       1.0  0.31491  0.46045  0.21366  1.0000
  H   H77       1.0  0.07874  0.47511  0.12951  1.0000
  Fe  Fe14      1.0  0.29237  0.43882  0.23256  1.0000
  C   C53       1.0  0.19975  0.41821  0.23968  1.0000
  H   H78       1.0  0.15947  0.20291  0.99778  1.0000
  H   H79       1.0  0.25229  0.47341  0.23203  1.0000
  S   S27       1.0  0.01994  0.26995  0.99998  1.0000
  H   H80       1.0  0.08678  0.24775  0.03955  1.0000
  H   H81       1.0  0.06772  0.29249  0.03367  1.0000
  C   C54       1.0  0.18072  0.42885  0.24023  1.0000
  C   C55       1.0  0.22512  0.13910  0.00185  1.0000
  C   C56       1.0  0.23242  0.46089  0.23429  1.0000
  N   N5        1.0  0.05589  0.25806  0.04681  1.0000
  H   H82       1.0  0.27688  0.40907  0.16344  1.0000
  C   C57       1.0  0.29744  0.41373  0.16406  1.0000
  H   H83       1.0  0.31238  0.37756  0.11675  1.0000
  H   H84       1.0  0.29534  0.31090  0.01677  1.0000
  C   C58       1.0  0.30967  0.41690  0.17744  1.0000
  S   S28       1.0  0.05649  0.49438  0.22502  1.0000
  C   C59       1.0  0.22121  0.09409  0.99704  1.0000
  N   N6        1.0  0.26065  0.46564  0.13773  1.0000
  C   C60       1.0  0.31317  0.35644  0.06176  1.0000
  C   C61       1.0  0.31347  0.31285  0.01127  1.0000
  H   H85       1.0  0.24606  0.46681  0.15858  1.0000
  H   H86       1.0  0.28554  0.30507  0.12016  1.0000
  H   H87       1.0  0.29810  0.35741  0.09317  1.0000
  N   N7        1.0  0.31174  0.34022  0.11019  1.0000
  C   C62       1.0  0.29408  0.33796  0.09808  1.0000
  H   H88       1.0  0.23197  0.48139  0.07694  1.0000
  H   H89       1.0  0.28815  0.33914  0.99809  1.0000
  H   H90       1.0  0.29887  0.49250  0.14389  1.0000
  S   S29       1.0  0.21463  0.16498  0.99799  1.0000
  H   H91       1.0  0.27450  0.18928  0.99651  1.0000
  H   H92       1.0  0.16094  0.41642  0.24275  1.0000
  C   C63       1.0  0.07822  0.49351  0.12506  1.0000
  C   C64       1.0  0.30584  0.31399  0.11635  1.0000
  C   C65       1.0  0.32007  0.33811  0.05440  1.0000
  H   H93       1.0  0.30792  0.19370  0.99665  1.0000
  H   H94       1.0  0.30835  0.30037  0.10839  1.0000
  H   H95       1.0  0.99460  0.30415  0.06416  1.0000
  H   H96       1.0  0.04428  0.49787  0.14360  1.0000
  H   H97       1.0  0.09013  0.49826  0.11530  1.0000
  H   H98       1.0  0.25780  0.49767  0.14939  1.0000
  H   H99       1.0  0.32708  0.31079  0.01937  1.0000
  C   C66       1.0  0.23811  0.22642  0.37676  1.0000
  H   H100      1.0  0.18706  0.21215  0.37187  1.0000
  C   C67       1.0  0.19559  0.22633  0.38068  1.0000
  H   H101      1.0  0.17709  0.30824  0.46642  1.0000
  H   H102      1.0  0.27296  0.12747  0.47557  1.0000
  C   C68       1.0  0.25746  0.10690  0.44156  1.0000
  S   S30       1.0  0.04782  0.40094  0.27046  1.0000
  C   C69       1.0  0.17294  0.28844  0.47093  1.0000
  Fe  Fe15      1.0  0.21008  0.02219  0.41929  1.0000
  S   S31       1.0  0.20296  0.05384  0.40710  1.0000
  S   S32       1.0  0.24820  0.03467  0.43064  1.0000
  H   H103      1.0  0.16891  0.25592  0.43997  1.0000
  Fe  Fe16      1.0  0.01523  0.20952  0.43339  1.0000
  S   S33       1.0  0.05069  0.20148  0.44015  1.0000
  H   H104      1.0  0.23364  0.25059  0.40002  1.0000
  Fe  Fe17      1.0  0.25071  0.23331  0.42245  1.0000
  S   S34       1.0  0.21322  0.19991  0.41652  1.0000
  S   S35       1.0  0.28230  0.23983  0.40573  1.0000
  Fe  Fe18      1.0  0.22847  0.24065  0.45134  1.0000
  S   S36       1.0  0.18992  0.20838  0.44696  1.0000
  S   S37       1.0  0.22983  0.26378  0.47150  1.0000
  Fe  Fe19      1.0  0.21302  0.18621  0.43890  1.0000
  S   S38       1.0  0.20120  0.14468  0.44684  1.0000
  Fe  Fe20      1.0  0.19343  0.22496  0.42508  1.0000
  S   S39       1.0  0.16207  0.23252  0.41270  1.0000
  S   S40       1.0  0.25172  0.21753  0.44459  1.0000
  S   S41       1.0  0.23071  0.25928  0.42974  1.0000
  C   C70       1.0  0.22863  0.00835  0.48623  1.0000
  C   C71       1.0  0.08100  0.20977  0.43181  1.0000
  C   C72       1.0  0.08826  0.22601  0.41989  1.0000
  C   C73       1.0  0.11302  0.23261  0.41399  1.0000
  C   C74       1.0  0.13066  0.22303  0.41994  1.0000
  C   C75       1.0  0.12319  0.20648  0.43172  1.0000
  C   C76       1.0  0.09855  0.19997  0.43763  1.0000
  H   H105      1.0  0.07492  0.23369  0.41529  1.0000
  H   H106      1.0  0.11857  0.24537  0.40484  1.0000
  H   H107      1.0  0.13633  0.19852  0.43623  1.0000
  H   H108      1.0  0.09307  0.18728  0.44681  1.0000
  H   H109      1.0  0.24587  0.27087  0.36267  1.0000
  H   H110      1.0  0.02633  0.38835  0.29831  1.0000
  H   H111      1.0  0.01028  0.15107  0.44406  1.0000
  H   H112      1.0  0.24646  0.22285  0.48146  1.0000
  C   C77       1.0  0.20014  0.07873  0.41761  1.0000
  C   C78       1.0  0.18999  0.07327  0.43126  1.0000
  C   C79       1.0  0.18869  0.09349  0.43973  1.0000
  C   C80       1.0  0.19848  0.11943  0.43484  1.0000
  C   C81       1.0  0.20811  0.12486  0.42106  1.0000
  C   C82       1.0  0.20865  0.10445  0.41240  1.0000
  H   H113      1.0  0.18299  0.05340  0.43526  1.0000
  H   H114      1.0  0.18061  0.08907  0.45025  1.0000
  H   H115      1.0  0.21575  0.14481  0.41721  1.0000
  H   H116      1.0  0.21640  0.10869  0.40180  1.0000
  H   H117      1.0  0.29719  0.39201  0.26345  1.0000
  H   H118      1.0  0.14299  0.23801  0.47615  1.0000
  H   H119      1.0  0.28305  0.04061  0.39417  1.0000
  H   H120      1.0  0.23033  0.36681  0.27761  1.0000
  C   C83       1.0  0.30401  0.26573  0.39509  1.0000
  H   H121      1.0  0.24713  0.08781  0.43606  1.0000
  H   H122      1.0  0.17413  0.24048  0.47024  1.0000
  C   C84       1.0  0.30594  0.29163  0.39602  1.0000
  N   N8        1.0  0.16031  0.26761  0.46033  1.0000
  H   H123      1.0  0.23194  0.39343  0.26620  1.0000
  H   H124      1.0  0.21441  0.27114  0.36566  1.0000
  H   H125      1.0  0.29934  0.39799  0.28941  1.0000
  H   H126      1.0  0.25908  0.23850  0.37519  1.0000
  C   C85       1.0  0.03336  0.12392  0.43042  1.0000
  H   H127      1.0  0.19322  0.21481  0.39062  1.0000
  C   C86       1.0  0.01551  0.38266  0.27619  1.0000
  H   H128      1.0  0.31825  0.23988  0.38429  1.0000
  H   H129      1.0  0.19176  0.28814  0.47464  1.0000
  H   H130      1.0  0.24657  0.11941  0.43918  1.0000
  H   H131      1.0  0.16064  0.28602  0.48043  1.0000
  H   H132      1.0  0.14622  0.22559  0.45903  1.0000
  H   H133      1.0  0.13811  0.28771  0.45099  1.0000
  C   C87       1.0  0.01057  0.37938  0.29085  1.0000
  H   H134      1.0  0.21752  0.24499  0.35561  1.0000
  C   C88       1.0  0.24148  0.23166  0.49058  1.0000
  C   C89       1.0  0.27132  0.12937  0.46390  1.0000
  H   H135      1.0  0.23676  0.21460  0.38652  1.0000
  C   C90       1.0  0.15567  0.24179  0.46673  1.0000
  H   H136      1.0  0.12173  0.26478  0.46471  1.0000
  C   C91       1.0  0.29975  0.03750  0.39037  1.0000
  H   H137      1.0  0.04707  0.14397  0.43364  1.0000
  C   C92       1.0  0.13538  0.26840  0.45572  1.0000
  C   C93       1.0  0.23334  0.08908  0.46286  1.0000
  H   H138      1.0  0.27682  0.11638  0.43663  1.0000
  H   H139      1.0  0.27271  0.43226  0.26394  1.0000
  H   H140      1.0  0.19659  0.27204  0.45107  1.0000
  Fe  Fe21      1.0  0.06543  0.41767  0.24886  1.0000
  N   N9        1.0  0.25944  0.10338  0.45702  1.0000
  N   N10       1.0  0.26811  0.39780  0.27601  1.0000
  H   H141      1.0  0.27381  0.43675  0.28279  1.0000
  H   H142      1.0  0.29549  0.09839  0.45554  1.0000
  S   S42       1.0  0.23027  0.02515  0.47001  1.0000
  H   H143      1.0  0.25948  0.14123  0.46195  1.0000
  H   H144      1.0  0.26976  0.36962  0.29129  1.0000
  H   H145      1.0  0.18370  0.23824  0.38190  1.0000
  H   H146      1.0  0.22280  0.07038  0.45703  1.0000
  C   C94       1.0  0.27781  0.39117  0.28947  1.0000
  H   H147      1.0  0.23419  0.08376  0.47419  1.0000
  H   H148      1.0  0.26783  0.36346  0.26528  1.0000
  H   H149      1.0  0.22169  0.27314  0.39209  1.0000
  C   C95       1.0  0.27937  0.42654  0.27409  1.0000
  Fe  Fe22      1.0  0.25179  0.99984  0.42037  1.0000
  H   H150      1.0  0.29451  0.29671  0.40372  1.0000
  C   C96       1.0  0.00879  0.14198  0.41596  1.0000
  H   H151      1.0  0.22142  0.10102  0.46221  1.0000
  C   C97       1.0  0.22529  0.25817  0.36491  1.0000
  H   H152      1.0  0.18069  0.29068  0.44255  1.0000
  C   C98       1.0  0.30623  0.01778  0.39641  1.0000
  N   N11       1.0  0.22309  0.24304  0.37810  1.0000
  S   S43       1.0  0.32045  0.46615  0.24820  1.0000
  C   C99       1.0  0.27561  0.08825  0.45974  1.0000
  H   H153      1.0  0.27262  0.40055  0.29870  1.0000
  S   S44       1.0  0.09222  0.46053  0.24955  1.0000
  C   C100      1.0  0.17736  0.27178  0.44794  1.0000
  H   H154      1.0  0.03306  0.11026  0.43915  1.0000
  C   C101      1.0  0.23345  0.26135  0.39011  1.0000
  H   H155      1.0  0.25376  0.27512  0.38823  1.0000
  C   C102      1.0  0.27576  0.38514  0.26412  1.0000
  H   H156      1.0  0.32305  0.13100  0.35379  1.0000
  C   C103      1.0  0.99731  0.13109  0.44045  1.0000
  H   H157      1.0  0.01641  0.13696  0.40605  1.0000
  H   H158      1.0  0.30964  0.06849  0.37489  1.0000
  C   C104      1.0  0.31496  0.05335  0.37943  1.0000
  H   H159      1.0  0.23306  0.39763  0.28511  1.0000
  H   H160      1.0  0.23115  0.21254  0.36770  1.0000
  H   H161      1.0  0.26709  0.06862  0.45465  1.0000
  H   H162      1.0  0.26862  0.38957  0.25379  1.0000
  C   C105      1.0  0.99492  0.37079  0.26669  1.0000
  H   H163      1.0  0.12567  0.25324  0.44750  1.0000
  C   C106      1.0  0.23245  0.25165  0.48864  1.0000
  H   H164      1.0  0.29101  0.14076  0.45971  1.0000
  H   H165      1.0  0.27709  0.08470  0.47128  1.0000
  N   N12       1.0  0.00726  0.12340  0.42751  1.0000
  S   S45       1.0  0.00696  0.24620  0.43438  1.0000
  H   H166      1.0  0.04153  0.11830  0.42088  1.0000
  C   C107      1.0  0.23959  0.38846  0.27628  1.0000
  H   H167      1.0  0.30089  0.43432  0.27392  1.0000
  C   C108      1.0  0.31946  0.25979  0.38511  1.0000
  H   H168      1.0  0.02180  0.16238  0.41891  1.0000
  H   H169      1.0  0.99837  0.37296  0.25540  1.0000
  C   C109      1.0  0.32292  0.31116  0.38704  1.0000
  Fe  Fe23      1.0  0.22528  0.00729  0.44784  1.0000
  H   H170      1.0  0.32424  0.33110  0.38789  1.0000
  H   H171      1.0  0.99640  0.21404  0.47530  1.0000
  H   H172      1.0  0.99621  0.09033  0.41338  1.0000
  H   H173      1.0  0.99562  0.11736  0.44935  1.0000
  H   H174      1.0  0.99941  0.41672  0.72411  1.0000
  S   S46       1.0  0.17182  0.04190  0.56095  1.0000
  S   S47       1.0  0.23079  0.01651  0.56228  1.0000
  Fe  Fe24      1.0  0.20592  0.19409  0.57901  1.0000
  S   S48       1.0  0.24617  0.22254  0.57428  1.0000
  S   S49       1.0  0.20484  0.15568  0.58834  1.0000
  Fe  Fe25      1.0  0.18354  0.23463  0.57085  1.0000
  S   S50       1.0  0.22256  0.26503  0.56489  1.0000
  S   S51       1.0  0.15269  0.25135  0.56909  1.0000
  Fe  Fe26      1.0  0.22832  0.23124  0.55438  1.0000
  S   S52       1.0  0.24580  0.22586  0.53350  1.0000
  Fe  Fe27      1.0  0.23642  0.25347  0.58529  1.0000
  S   S53       1.0  0.25754  0.27739  0.60478  1.0000
  S   S54       1.0  0.18829  0.20165  0.55882  1.0000
  S   S55       1.0  0.19712  0.22423  0.59148  1.0000
  H   H175      1.0  0.08063  0.25636  0.60632  1.0000
  S   S56       1.0  0.02139  0.25001  0.56563  1.0000
  S   S57       1.0  0.03569  0.19931  0.58869  1.0000
  C   C110      1.0  0.00961  0.36177  0.71641  1.0000
  S   S58       1.0  0.30333  0.39739  0.66636  1.0000
  H   H176      1.0  0.20002  0.29794  0.57890  1.0000
  Fe  Fe28      1.0  0.29555  0.43375  0.67101  1.0000
  S   S59       1.0  0.25742  0.42979  0.68180  1.0000
  H   H177      1.0  0.21949  0.34788  0.60732  1.0000
  Fe  Fe29      1.0  0.05050  0.39065  0.65635  1.0000
  S   S60       1.0  0.07322  0.38565  0.67523  1.0000
  S   S61       1.0  0.02118  0.35275  0.64619  1.0000
  Fe  Fe30      1.0  0.07139  0.45146  0.66105  1.0000
  S   S62       1.0  0.09471  0.44947  0.68011  1.0000
  H   H178      1.0  0.02119  0.18144  0.53757  1.0000
  Fe  Fe31      1.0  0.10658  0.42166  0.66722  1.0000
  S   S63       1.0  0.14805  0.42908  0.65993  1.0000
  Fe  Fe32      1.0  0.05931  0.41379  0.68637  1.0000
  S   S64       1.0  0.04136  0.41248  0.70833  1.0000
  S   S65       1.0  0.08407  0.42483  0.64778  1.0000
  S   S66       1.0  0.03553  0.41748  0.66786  1.0000
  C   C111      1.0  0.22708  0.42938  0.67540  1.0000
  C   C112      1.0  0.22273  0.43375  0.66114  1.0000
  C   C113      1.0  0.19849  0.43351  0.65668  1.0000
  C   C114      1.0  0.17811  0.42876  0.66633  1.0000
  C   C115      1.0  0.18241  0.42433  0.68057  1.0000
  C   C116      1.0  0.20670  0.42472  0.68504  1.0000
  H   H179      1.0  0.23811  0.43743  0.65358  1.0000
  H   H180      1.0  0.19554  0.43696  0.64564  1.0000
  H   H181      1.0  0.16710  0.42070  0.68817  1.0000
  H   H182      1.0  0.20976  0.42136  0.69609  1.0000
  H   H183      1.0  0.06327  0.16467  0.54935  1.0000
  H   H184      1.0  0.20163  0.32617  0.62119  1.0000
  H   H185      1.0  0.20588  0.27675  0.60870  1.0000
  S   S67       1.0  0.30968  0.45269  0.64990  1.0000
  C   C117      1.0  0.99890  0.31334  0.62663  1.0000
  H   H186      1.0  0.04835  0.37123  0.61922  1.0000
  H   H187      1.0  0.10338  0.21105  0.53339  1.0000
  H   H188      1.0  0.08359  0.19590  0.55662  1.0000
  C   C118      1.0  0.01806  0.33861  0.62897  1.0000
  C   C119      1.0  0.03367  0.35174  0.61764  1.0000
  H   H189      1.0  0.17726  0.27865  0.61593  1.0000
  S   S68       1.0  0.31188  0.39763  0.62375  1.0000
  C   C120      1.0  0.01061  0.31467  0.60174  1.0000
  H   H190      1.0  0.08984  0.29124  0.60724  1.0000
  H   H191      1.0  0.04874  0.22426  0.54812  1.0000
  H   H192      1.0  0.30426  0.03003  0.54701  1.0000
  C   C121      1.0  0.29560  0.36417  0.61874  1.0000
  C   C122      1.0  0.28688  0.34396  0.62872  1.0000
  C   C123      1.0  0.27559  0.31758  0.62422  1.0000
  C   C124      1.0  0.27222  0.31106  0.60970  1.0000
  C   C125      1.0  0.28047  0.33130  0.59971  1.0000
  C   C126      1.0  0.29225  0.35765  0.60422  1.0000
  H   H193      1.0  0.28900  0.34866  0.63991  1.0000
  H   H194      1.0  0.26918  0.30210  0.63205  1.0000
  H   H195      1.0  0.27838  0.32666  0.58851  1.0000
  H   H196      1.0  0.12984  0.00428  0.58887  1.0000
  C   C127      1.0  0.12100  0.23693  0.57570  1.0000
  C   C128      1.0  0.11161  0.21281  0.58275  1.0000
  C   C129      1.0  0.08555  0.20168  0.58706  1.0000
  C   C130      1.0  0.06878  0.21445  0.58419  1.0000
  C   C131      1.0  0.07861  0.23892  0.57757  1.0000
  C   C132      1.0  0.10454  0.25011  0.57341  1.0000
  H   H197      1.0  0.12425  0.20256  0.58467  1.0000
  H   H198      1.0  0.07822  0.18282  0.59231  1.0000
  H   H199      1.0  0.06642  0.24946  0.57567  1.0000
  H   H200      1.0  0.11176  0.26893  0.56811  1.0000
  C   C133      1.0  0.23910  0.23527  0.51639  1.0000
  C   C134      1.0  0.22923  0.25465  0.51445  1.0000
  H   H201      1.0  0.23004  0.32361  0.61421  1.0000
  C   C135      1.0  0.24509  0.22378  0.50438  1.0000
  H   H202      1.0  0.22478  0.26384  0.52358  1.0000
  H   H203      1.0  0.25291  0.20893  0.50573  1.0000
  C   C136      1.0  0.18168  0.07363  0.56853  1.0000
  C   C137      1.0  0.19990  0.08200  0.57956  1.0000
  C   C138      1.0  0.20680  0.10722  0.58545  1.0000
  C   C139      1.0  0.19604  0.12454  0.58019  1.0000
  C   C140      1.0  0.17812  0.11633  0.56900  1.0000
  C   C141      1.0  0.17077  0.09088  0.56332  1.0000
  H   H204      1.0  0.20833  0.06890  0.58374  1.0000
  H   H205      1.0  0.22049  0.11331  0.59420  1.0000
  H   H206      1.0  0.16944  0.12933  0.56498  1.0000
  H   H207      1.0  0.15655  0.08452  0.55484  1.0000
  C   C142      1.0  0.06476  0.18503  0.55117  1.0000
  C   C143      1.0  0.18875  0.28142  0.60608  1.0000
  H   H208      1.0  0.22025  0.01607  0.52163  1.0000
  C   C144      1.0  0.14274  0.49739  0.66153  1.0000
  H   H209      1.0  0.27099  0.00795  0.54618  1.0000
  C   C145      1.0  0.07980  0.27251  0.61304  1.0000
  H   H210      1.0  0.04974  0.24252  0.63372  1.0000
  H   H211      1.0  0.01478  0.21045  0.49882  1.0000
  C   C146      1.0  0.08422  0.19959  0.52835  1.0000
  N   N13       1.0  0.05277  0.26843  0.61618  1.0000
  H   H212      1.0  0.17679  0.26661  0.59818  1.0000
  C   C147      1.0  0.03991  0.24305  0.62350  1.0000
  H   H213      1.0  0.00777  0.35445  0.67346  1.0000
  H   H214      1.0  0.04798  0.28681  0.59680  1.0000
  C   C148      1.0  0.03773  0.18267  0.53075  1.0000
  H   H215      1.0  0.22875  0.30546  0.58946  1.0000
  C   C149      1.0  0.05241  0.28994  0.62531  1.0000
  H   H216      1.0  0.03991  0.22642  0.61684  1.0000
  S   S69       1.0  0.00605  0.30115  0.58431  1.0000
  N   N14       1.0  0.24449  0.15103  0.54262  1.0000
  C   C150      1.0  0.22408  0.12433  0.54330  1.0000
  C   C151      1.0  0.24373  0.16259  0.52856  1.0000
  C   C152      1.0  0.27005  0.14979  0.54491  1.0000
  C   C153      1.0  0.24017  0.16753  0.55376  1.0000
  H   H217      1.0  0.22415  0.11514  0.55381  1.0000
  H   H218      1.0  0.22664  0.11122  0.53508  1.0000
  H   H219      1.0  0.20452  0.12461  0.54169  1.0000
  H   H220      1.0  0.25957  0.18237  0.52752  1.0000
  H   H221      1.0  0.24575  0.15015  0.51980  1.0000
  H   H222      1.0  0.22523  0.16525  0.52685  1.0000
  H   H223      1.0  0.28585  0.16971  0.54459  1.0000
  H   H224      1.0  0.27406  0.13759  0.53666  1.0000
  H   H225      1.0  0.27115  0.14114  0.55545  1.0000
  H   H226      1.0  0.22086  0.16858  0.55259  1.0000
  H   H227      1.0  0.25492  0.18798  0.55329  1.0000
  H   H228      1.0  0.24112  0.15982  0.56458  1.0000
  N   N15       1.0  0.19669  0.30836  0.60049  1.0000
  C   C154      1.0  0.21196  0.31096  0.58749  1.0000
  H   H229      1.0  0.08329  0.20938  0.51815  1.0000
  C   C155      1.0  0.17343  0.31360  0.59706  1.0000
  C   C156      1.0  0.21258  0.32734  0.61126  1.0000
  H   H230      1.0  0.06066  0.30923  0.61979  1.0000
  H   H231      1.0  0.08366  0.17977  0.52582  1.0000
  H   H232      1.0  0.04155  0.35053  0.59532  1.0000
  C   C157      1.0  0.22396  0.01931  0.49881  1.0000
  H   H233      1.0  0.16149  0.31195  0.60663  1.0000
  C   C158      1.0  0.22391  0.00745  0.51205  1.0000
  H   H234      1.0  0.08320  0.23704  0.54584  1.0000
  Fe  Fe33      1.0  0.00660  0.21283  0.57798  1.0000
  H   H235      1.0  0.01845  0.26533  0.60473  1.0000
  H   H236      1.0  0.17878  0.33367  0.59264  1.0000
  C   C159      1.0  0.02978  0.33991  0.60409  1.0000
  H   H237      1.0  0.03552  0.19196  0.52060  1.0000
  H   H238      1.0  0.16102  0.29940  0.58900  1.0000
  C   C160      1.0  0.06436  0.22472  0.54081  1.0000
  H   H239      1.0  0.21967  0.33139  0.58338  1.0000
  H   H240      1.0  0.14358  0.47858  0.66511  1.0000
  C   C161      1.0  0.13524  0.48253  0.63724  1.0000
  H   H241      1.0  0.03571  0.16232  0.52835  1.0000
  S   S70       1.0  0.00648  0.22494  0.52678  1.0000
  H   H242      1.0  0.06364  0.29158  0.63530  1.0000
  C   C162      1.0  0.01366  0.38834  0.71639  1.0000
  H   H243      1.0  0.01932  0.23917  0.62580  1.0000
  C   C163      1.0  0.22622  0.26300  0.50064  1.0000
  H   H244      1.0  0.03840  0.25189  0.59575  1.0000
  H   H245      1.0  0.30329  0.01982  0.57284  1.0000
  C   C164      1.0  0.03885  0.26811  0.60278  1.0000
  Fe  Fe34      1.0  0.31901  0.41723  0.64569  1.0000
  H   H246      1.0  0.04912  0.18394  0.55866  1.0000
  S   S71       1.0  0.07094  0.48923  0.65108  1.0000
  H   H247      1.0  0.02347  0.35560  0.71132  1.0000
  H   H248      1.0  0.09100  0.27313  0.62293  1.0000
  H   H249      1.0  0.03233  0.28683  0.62834  1.0000
  H   H250      1.0  0.29343  0.00353  0.53430  1.0000
  H   H251      1.0  0.11466  0.48027  0.63777  1.0000
  H   H252      1.0  0.06215  0.23486  0.53098  1.0000
  N   N16       1.0  0.06276  0.19799  0.53776  1.0000
  H   H253      1.0  0.00558  0.37372  0.68805  1.0000
  Fe  Fe35      1.0  0.18936  0.01167  0.56506  1.0000
  H   H254      1.0  0.32568  0.34622  0.65385  1.0000
  H   H255      1.0  0.13595  0.46331  0.64009  1.0000
  C   C165      1.0  0.99617  0.39615  0.72376  1.0000
  H   H256      1.0  0.29907  0.37312  0.59640  1.0000
  H   H257      1.0  0.21941  0.27861  0.49927  1.0000
  H   H258      1.0  0.22031  0.03705  0.49831  1.0000
  C   C166      1.0  0.00079  0.21936  0.49801  1.0000
  H   H259      1.0  0.18020  0.48661  0.64922  1.0000
  H   H260      1.0  0.14139  0.48660  0.62601  1.0000
  H   H261      1.0  0.12237  0.49558  0.66251  1.0000
  C   C167      1.0  0.29116  0.00915  0.54539  1.0000
  H   H262      1.0  0.09481  0.00596  0.57284  1.0000
  H   H263      1.0  0.99540  0.33872  0.68987  1.0000
  C   C168      1.0  0.99533  0.30134  0.61315  1.0000
  C   C169      1.0  0.99558  0.35459  0.68260  1.0000
  C   C170      1.0  0.29132  0.99895  0.57030  1.0000
  C   C171      1.0  0.29307  0.19839  0.99070  1.0000
  C   C172      1.0  0.30944  0.30153  0.95343  1.0000
  S   S72       1.0  0.22864  0.22875  0.98209  1.0000
  H   H264      1.0  0.30081  0.32349  0.98521  1.0000
  S   S73       1.0  0.30505  0.27099  0.97772  1.0000
  S   S74       1.0  0.27646  0.01133  0.95502  1.0000
  C   C173      1.0  0.32061  0.28843  0.96226  1.0000
  H   H265      1.0  0.00306  0.34955  0.77470  1.0000
  H   H266      1.0  0.29047  0.30108  0.95582  1.0000
  H   H267      1.0  0.12680  0.13088  0.97500  1.0000
  C   C174      1.0  0.12151  0.25071  0.98280  1.0000
  C   C175      1.0  0.11996  0.17558  0.98014  1.0000
  H   H268      1.0  0.12656  0.25914  0.97234  1.0000
  C   C176      1.0  0.30898  0.03009  0.94964  1.0000
  H   H269      1.0  0.29907  0.15543  0.98130  1.0000
  H   H270      1.0  0.18027  0.17586  0.97673  1.0000
  C   C177      1.0  0.31473  0.03316  0.93507  1.0000
  H   H271      1.0  0.10428  0.16867  0.98815  1.0000
  C   C178      1.0  0.32262  0.32483  0.86765  1.0000
  H   H272      1.0  0.30713  0.31231  0.87488  1.0000
  H   H273      1.0  0.19930  0.11324  0.98628  1.0000
  N   N17       1.0  0.29038  0.18890  0.97590  1.0000
  H   H274      1.0  0.31374  0.19592  0.95717  1.0000
  S   S75       1.0  0.17180  0.25358  0.98393  1.0000
  H   H275      1.0  0.25065  0.18435  0.97411  1.0000
  Fe  Fe36      1.0  0.25910  0.00560  0.97733  1.0000
  S   S76       1.0  0.22328  0.01342  0.98144  1.0000
  H   H276      1.0  0.15090  0.13542  0.98858  1.0000
  C   C179      1.0  0.28387  0.16034  0.97585  1.0000
  C   C180      1.0  0.30626  0.33991  0.99302  1.0000
  H   H277      1.0  0.21218  0.07589  0.99125  1.0000
  H   H278      1.0  0.28168  0.15244  0.96486  1.0000
  H   H279      1.0  0.29929  0.02486  0.92735  1.0000
  H   H280      1.0  0.08165  0.24692  0.98102  1.0000
  C   C181      1.0  0.31500  0.20263  0.96838  1.0000
  N   N18       1.0  0.14232  0.16931  0.98439  1.0000
  H   H281      1.0  0.31703  0.34083  0.86368  1.0000
  H   H282      1.0  0.22130  0.00737  0.94940  1.0000
  H   H283      1.0  0.15633  0.17149  0.96307  1.0000
  C   C182      1.0  0.32287  0.31526  0.94139  1.0000
  H   H284      1.0  0.11163  0.16648  0.96977  1.0000
  H   H285      1.0  0.26699  0.18761  0.95749  1.0000
  C   C183      1.0  0.09595  0.24379  0.98770  1.0000
  H   H286      1.0  0.12568  0.19713  0.97900  1.0000
  H   H287      1.0  0.32524  0.03923  0.97065  1.0000
  Fe  Fe37      1.0  0.26617  0.26043  0.98895  1.0000
  H   H288      1.0  0.32027  0.22424  0.96817  1.0000
  C   C184      1.0  0.26953  0.19438  0.96871  1.0000
  C   C185      1.0  0.16300  0.18001  0.97376  1.0000
  H   H289      1.0  0.99672  0.29293  0.76920  1.0000
  H   H290      1.0  0.16950  0.20171  0.97282  1.0000
  H   H291      1.0  0.26536  0.14947  0.98144  1.0000
  C   C186      1.0  0.14046  0.24660  0.99122  1.0000
  H   H292      1.0  0.20621  0.00707  0.93248  1.0000
  H   H293      1.0  0.31406  0.32533  0.93464  1.0000
  C   C187      1.0  0.13431  0.14060  0.98535  1.0000
  H   H294      1.0  0.32295  0.31258  0.85836  1.0000
  H   H295      1.0  0.29894  0.22003  0.99110  1.0000
  H   H296      1.0  0.31443  0.35853  0.98692  1.0000
  H   H297      1.0  0.00897  0.31107  0.78528  1.0000
  Fe  Fe38      1.0  0.20807  0.25038  0.99374  1.0000
  H   H298      1.0  0.27381  0.21578  0.96864  1.0000
  H   H299      1.0  0.11882  0.13196  0.99335  1.0000
  C   C188      1.0  0.21391  0.11535  0.99428  1.0000
  C   C189      1.0  0.07760  0.52757  0.22562  1.0000
  Fe  Fe39      1.0  0.09109  0.66363  0.12036  1.0000
  S   S77       1.0  0.06391  0.64744  0.13890  1.0000
  Fe  Fe40      1.0  0.10011  0.67810  0.08882  1.0000
  S   S78       1.0  0.09190  0.68872  0.06629  1.0000
  S   S79       1.0  0.08615  0.63920  0.10046  1.0000
  S   S80       1.0  0.10153  0.70177  0.10845  1.0000
  Fe  Fe41      1.0  0.09092  0.68110  0.22151  1.0000
  S   S81       1.0  0.08477  0.69868  0.20062  1.0000
  S   S82       1.0  0.07221  0.63954  0.22955  1.0000
  C   C190      1.0  0.06739  0.54682  0.22406  1.0000
  S   S83       1.0  0.01183  0.78813  0.01791  1.0000
  C   C191      1.0  0.07076  0.66171  0.15604  1.0000
  C   C192      1.0  0.05642  0.64760  0.16764  1.0000
  C   C193      1.0  0.06112  0.65836  0.18141  1.0000
  C   C194      1.0  0.08004  0.68353  0.18370  1.0000
  C   C195      1.0  0.08993  0.68673  0.15835  1.0000
  H   H300      1.0  0.04133  0.62838  0.16592  1.0000
  H   H301      1.0  0.04949  0.64757  0.19018  1.0000
  C   C196      1.0  0.03261  0.71772  0.04595  1.0000
  C   C197      1.0  0.05363  0.71732  0.03826  1.0000
  C   C198      1.0  0.07143  0.70830  0.04468  1.0000
  C   C199      1.0  0.06866  0.69980  0.05888  1.0000
  C   C200      1.0  0.04797  0.70073  0.06668  1.0000
  C   C201      1.0  0.02998  0.70946  0.06021  1.0000
  H   H302      1.0  0.08734  0.70768  0.03852  1.0000
  H   H303      1.0  0.04553  0.69426  0.07760  1.0000
  C   C202      1.0  0.08353  0.57352  0.22514  1.0000
  H   H304      1.0  0.07535  0.58812  0.22415  1.0000
  H   H305      1.0  0.05591  0.72351  0.02729  1.0000
  H   H306      1.0  0.04685  0.54100  0.22219  1.0000
  C   C203      1.0  0.09427  0.69771  0.17209  1.0000
  H   H307      1.0  0.08423  0.54316  0.07905  1.0000
  H   H308      1.0  0.10094  0.69790  0.14949  1.0000
  H   H309      1.0  0.01379  0.70963  0.06627  1.0000
  Fe  Fe42      1.0  0.01000  0.74708  0.01658  1.0000
  S   S84       1.0  0.00881  0.72767  0.03819  1.0000
  C   C204      1.0  0.05154  0.51577  0.11664  1.0000
  H   H310      1.0  0.06288  0.52177  0.10668  1.0000
  H   H311      1.0  0.09988  0.65129  0.19784  1.0000
  H   H312      1.0  0.06474  0.87878  0.01696  1.0000
  C   C205      1.0  0.02832  0.89654  0.00872  1.0000
  H   H313      1.0  0.04353  0.87678  0.03153  1.0000
  C   C206      1.0  0.99889  0.85391  0.01671  1.0000
  H   H314      1.0  0.03162  0.51441  0.11425  1.0000
  H   H315      1.0  0.10086  0.62398  0.20752  1.0000
  C   C207      1.0  0.10072  0.54963  0.08622  1.0000
  H   H316      1.0  0.10313  0.58953  0.08708  1.0000
  C   C208      1.0  0.09886  0.63094  0.19671  1.0000
  H   H317      1.0  0.07918  0.61849  0.19268  1.0000
  S   S85       1.0  0.08970  0.69928  0.24293  1.0000
  C   C209      1.0  0.10417  0.53512  0.22793  1.0000
  H   H318      1.0  0.06044  0.53187  0.12448  1.0000
  Fe  Fe43      1.0  0.11309  0.64396  0.23386  1.0000
  H   H319      1.0  0.04784  0.90836  0.00440  1.0000
  S   S86       1.0  0.07685  0.83474  0.00324  1.0000
  H   H320      1.0  0.02633  0.90591  0.01882  1.0000
  C   C210      1.0  0.04483  0.86807  0.02110  1.0000
  H   H321      1.0  0.10049  0.73762  0.08338  1.0000
  H   H322      1.0  0.09564  0.62479  0.16848  1.0000
  N   N19       1.0  0.02494  0.86901  0.01097  1.0000
  H   H323      1.0  0.04284  0.84753  0.02305  1.0000
  H   H324      1.0  0.08784  0.50940  0.13289  1.0000
  C   C211      1.0  0.11003  0.58108  0.22763  1.0000
  Fe  Fe44      1.0  0.03893  0.79789  0.99933  1.0000
  H   H325      1.0  0.09918  0.58864  0.18341  1.0000
  S   S87       1.0  0.03848  0.75687  0.99869  1.0000
  H   H326      1.0  0.99587  0.83312  0.01867  1.0000
  C   C212      1.0  0.10177  0.86502  0.99748  1.0000
  H   H327      1.0  0.10857  0.71738  0.17371  1.0000
  C   C213      1.0  0.11136  0.57593  0.09078  1.0000
  C   C214      1.0  0.11134  0.53175  0.09073  1.0000
  H   H328      1.0  0.11217  0.52034  0.22913  1.0000
  H   H329      1.0  0.11576  0.65811  0.17263  1.0000
  C   C215      1.0  0.11497  0.63774  0.17278  1.0000
  H   H330      1.0  0.01367  0.89791  0.00108  1.0000
  H   H331      1.0  0.13654  0.74337  0.05932  1.0000
  C   C216      1.0  0.10795  0.75665  0.07761  1.0000
  H   H332      1.0  0.10054  0.77004  0.08306  1.0000
  H   H333      1.0  0.09914  0.75271  0.06678  1.0000
  C   C217      1.0  0.02776  0.85747  0.99731  1.0000
  H   H334      1.0  0.02591  0.83694  0.99874  1.0000
  S   S88       1.0  0.09729  0.49902  0.08443  1.0000
  H   H335      1.0  0.99583  0.86220  0.02693  1.0000
  H   H336      1.0  0.32362  0.87223  0.19179  1.0000
  S   S89       1.0  0.32484  0.87821  0.07717  1.0000
  C   C218      1.0  0.11843  0.60294  0.18707  1.0000
  H   H337      1.0  0.32606  0.91829  0.14628  1.0000
  H   H338      1.0  0.30613  0.93581  0.99652  1.0000
  H   H339      1.0  0.13952  0.73043  0.07629  1.0000
  H   H340      1.0  0.27239  0.49992  0.12442  1.0000
  C   C219      1.0  0.12288  0.87835  0.00661  1.0000
  H   H341      1.0  0.14088  0.75510  0.09809  1.0000
  Fe  Fe45      1.0  0.12807  0.64647  0.10377  1.0000
  H   H342      1.0  0.14590  0.66870  0.19302  1.0000
  H   H343      1.0  0.14856  0.64295  0.20361  1.0000
  C   C220      1.0  0.14282  0.90245  0.00267  1.0000
  Fe  Fe46      1.0  0.31319  0.87277  0.11809  1.0000
  S   S90       1.0  0.28081  0.86520  0.10227  1.0000
  N   N20       1.0  0.11928  0.62993  0.18728  1.0000
  H   H344      1.0  0.12197  0.59668  0.19787  1.0000
  H   H345      1.0  0.26097  0.74968  0.22845  1.0000
  H   H346      1.0  0.31081  0.84707  0.16939  1.0000
  H   H347      1.0  0.25599  0.77971  0.22804  1.0000
  C   C221      1.0  0.20339  0.75187  0.09290  1.0000
  H   H348      1.0  0.20310  0.78889  0.21633  1.0000
  C   C222      1.0  0.31712  0.86819  0.16922  1.0000
  C   C223      1.0  0.22561  0.76568  0.08486  1.0000
  Fe  Fe47      1.0  0.30006  0.84323  0.09018  1.0000
  H   H349      1.0  0.27253  0.84661  0.18582  1.0000
  H   H350      1.0  0.16673  0.75696  0.06904  1.0000
  C   C224      1.0  0.24183  0.70938  0.10277  1.0000
  H   H351      1.0  0.22659  0.76033  0.07392  1.0000
  H   H352      1.0  0.26127  0.80928  0.10990  1.0000
  H   H353      1.0  0.14090  0.56760  0.23071  1.0000
  C   C225      1.0  0.28875  0.93837  0.06402  1.0000
  S   S91       1.0  0.17480  0.74231  0.11760  1.0000
  H   H354      1.0  0.16703  0.80149  0.06821  1.0000
  Fe  Fe48      1.0  0.28538  0.86316  0.23482  1.0000
  C   C226      1.0  0.14479  0.64818  0.19263  1.0000
  H   H355      1.0  0.12981  0.63697  0.16528  1.0000
  C   C227      1.0  0.14531  0.74891  0.07009  1.0000
  C   C228      1.0  0.22445  0.66241  0.10633  1.0000
  H   H356      1.0  0.18232  0.66937  0.11434  1.0000
  H   H357      1.0  0.20923  0.69166  0.12437  1.0000
  H   H358      1.0  0.16074  0.64797  0.18581  1.0000
  C   C229      1.0  0.25454  0.87968  0.17266  1.0000
  H   H359      1.0  0.14126  0.78752  0.09716  1.0000
  C   C230      1.0  0.12038  0.56186  0.22881  1.0000
  C   C231      1.0  0.22300  0.77973  0.11304  1.0000
  C   C232      1.0  0.26131  0.88421  0.19800  1.0000
  S   S92       1.0  0.13170  0.68401  0.22435  1.0000
  S   S93       1.0  0.22259  0.98968  0.01365  1.0000
  C   C233      1.0  0.14551  0.79246  0.06878  1.0000
  C   C234      1.0  0.29788  0.92786  0.05285  1.0000
  H   H360      1.0  0.13782  0.78896  0.05770  1.0000
  H   H361      1.0  0.13907  0.80713  0.07365  1.0000
  N   N21       1.0  0.21799  0.68518  0.10286  1.0000
  C   C235      1.0  0.24652  0.78666  0.09091  1.0000
  C   C236      1.0  0.25155  0.84222  0.18678  1.0000
  H   H362      1.0  0.30147  0.80532  0.22318  1.0000
  H   H363      1.0  0.15884  0.91220  0.00986  1.0000
  H   H364      1.0  0.20044  0.69809  0.08570  1.0000
  C   C237      1.0  0.28348  0.95258  0.03553  1.0000
  C   C238      1.0  0.20536  0.68119  0.08874  1.0000
  H   H365      1.0  0.30818  0.77623  0.22315  1.0000
  C   C239      1.0  0.30677  0.79182  0.23008  1.0000
  H   H366      1.0  0.23363  0.66452  0.11702  1.0000
  H   H367      1.0  0.17047  0.74943  0.22763  1.0000
  H   H368      1.0  0.30267  0.92691  0.03020  1.0000
  H   H369      1.0  0.23747  0.72698  0.10053  1.0000
  H   H370      1.0  0.24453  0.86660  0.16363  1.0000
  C   C240      1.0  0.26165  0.76657  0.23503  1.0000
  C   C241      1.0  0.14737  0.77327  0.09157  1.0000
  H   H371      1.0  0.25872  0.90310  0.19782  1.0000
  C   C242      1.0  0.27414  0.96290  0.04668  1.0000
  C   C243      1.0  0.13273  0.54039  0.09994  1.0000
  C   C244      1.0  0.14379  0.56688  0.10421  1.0000
  S   S94       1.0  0.31820  0.86340  0.22130  1.0000
  Fe  Fe49      1.0  0.30740  0.90058  0.09041  1.0000
  H   H372      1.0  0.19395  0.70385  0.11104  1.0000
  C   C245      1.0  0.29543  0.93510  0.03872  1.0000
  H   H373      1.0  0.24499  0.83136  0.19689  1.0000
  H   H374      1.0  0.13335  0.60128  0.17993  1.0000
  H   H375      1.0  0.27566  0.88572  0.17104  1.0000
  H   H376      1.0  0.20672  0.64387  0.10636  1.0000
  H   H377      1.0  0.25204  0.71283  0.11321  1.0000
  H   H378      1.0  0.25046  0.89773  0.17190  1.0000
  H   H379      1.0  0.20678  0.84633  0.18000  1.0000
  H   H380      1.0  0.21810  0.67885  0.08035  1.0000
  S   S95       1.0  0.13061  0.61430  0.22958  1.0000
  H   H381      1.0  0.30688  0.91421  0.05509  1.0000
  H   H382      1.0  0.26993  0.96434  0.06938  1.0000
  S   S96       1.0  0.30394  0.86148  0.14120  1.0000
  H   H383      1.0  0.21401  0.87752  0.18846  1.0000
  H   H384      1.0  0.18704  0.66328  0.08854  1.0000
  C   C246      1.0  0.13321  0.58479  0.09962  1.0000
  C   C247      1.0  0.20407  0.78610  0.22765  1.0000
  S   S97       1.0  0.27430  0.80388  0.08077  1.0000
  H   H385      1.0  0.12396  0.86987  0.01682  1.0000
  S   S98       1.0  0.28194  0.96173  0.01752  1.0000
  C   C248      1.0  0.18556  0.76366  0.23401  1.0000
  H   H386      1.0  0.21197  0.84961  0.19887  1.0000
  H   H387      1.0  0.25556  0.70860  0.09453  1.0000
  C   C249      1.0  0.27697  0.95599  0.06084  1.0000
  S   S99       1.0  0.29337  0.93172  0.08211  1.0000
  H   H388      1.0  0.22217  0.78528  0.12397  1.0000
  H   H389      1.0  0.16074  0.57358  0.11103  1.0000
  S   S100      1.0  0.14868  0.61827  0.10452  1.0000
  H   H390      1.0  0.16892  0.78148  0.09157  1.0000
  C   C250      1.0  0.20013  0.68761  0.11364  1.0000
  S   S101      1.0  0.24712  0.83203  0.22701  1.0000
  H   H391      1.0  0.25519  0.87521  0.20860  1.0000
  H   H392      1.0  0.26501  0.97645  0.04443  1.0000
  H   H393      1.0  0.14115  0.52685  0.10344  1.0000
  S   S102      1.0  0.13209  0.66878  0.12410  1.0000
  C   C251      1.0  0.20210  0.75890  0.10704  1.0000
  S   S103      1.0  0.29458  0.90627  0.23200  1.0000
  C   C252      1.0  0.21856  0.85970  0.18852  1.0000
  C   C253      1.0  0.22372  0.80485  0.23580  1.0000
  N   N22       1.0  0.24650  0.86647  0.18648  1.0000
  C   C254      1.0  0.24513  0.79350  0.10504  1.0000
  H   H394      1.0  0.18727  0.73598  0.08816  1.0000
  S   S104      1.0  0.14199  0.68319  0.09062  1.0000
  H   H395      1.0  0.24141  0.82878  0.17793  1.0000
  N   N23       1.0  0.13653  0.76783  0.07702  1.0000
  Fe  Fe50      1.0  0.25835  0.98305  0.00738  1.0000
  H   H396      1.0  0.28242  0.88901  0.19713  1.0000
  H   H397      1.0  0.23796  0.65997  0.09846  1.0000
  Fe  Fe51      1.0  0.14244  0.70470  0.11063  1.0000
  H   H398      1.0  0.24642  0.75892  0.24328  1.0000
  C   C255      1.0  0.32587  0.90828  0.15617  1.0000
  C   C256      1.0  0.31752  0.88095  0.15631  1.0000
  C   C257      1.0  0.32420  0.88240  0.18197  1.0000
  H   H399      1.0  0.32644  0.80336  0.23454  1.0000
  N   N24       1.0  0.28757  0.78066  0.24142  1.0000
  H   H400      1.0  0.28125  0.81601  0.24431  1.0000
  H   H401      1.0  0.29551  0.74591  0.24360  1.0000
  H   H402      1.0  0.23711  0.97687  0.47742  1.0000
  S   S105      1.0  0.11438  0.65956  0.25577  1.0000
  S   S106      1.0  0.04770  0.63537  0.26961  1.0000
  C   C258      1.0  0.24840  0.95219  0.38505  1.0000
  H   H403      1.0  0.02887  0.69013  0.34349  1.0000
  N   N25       1.0  0.23240  0.92798  0.39268  1.0000
  H   H404      1.0  0.22678  0.88738  0.39310  1.0000
  C   C259      1.0  0.22464  0.80102  0.25042  1.0000
  H   H405      1.0  0.06603  0.59787  0.25229  1.0000
  H   H406      1.0  0.23931  0.81553  0.25687  1.0000
  C   C260      1.0  0.28707  0.80210  0.25052  1.0000
  Fe  Fe52      1.0  0.07415  0.65763  0.25128  1.0000
  H   H407      1.0  0.06189  0.53949  0.28291  1.0000
  C   C261      1.0  0.09210  0.57023  0.26265  1.0000
  C   C262      1.0  0.01524  0.76543  0.48828  1.0000
  H   H408      1.0  0.27298  0.79452  0.25931  1.0000
  C   C263      1.0  0.05176  0.54555  0.27428  1.0000
  H   H409      1.0  0.19933  0.93833  0.39394  1.0000
  Fe  Fe53      1.0  0.19512  0.96415  0.42646  1.0000
  S   S107      1.0  0.17121  0.92048  0.42249  1.0000
  S   S108      1.0  0.23242  0.97328  0.43873  1.0000
  C   C264      1.0  0.03058  0.73034  0.48873  1.0000
  H   H410      1.0  0.01951  0.60417  0.29288  1.0000
  H   H411      1.0  0.23447  0.90263  0.37595  1.0000
  H   H412      1.0  0.01060  0.66030  0.26414  1.0000
  C   C265      1.0  0.23332  0.98539  0.48701  1.0000
  H   H413      1.0  0.08754  0.55491  0.25428  1.0000
  Fe  Fe54      1.0  0.02266  0.81510  0.42749  1.0000
  S   S109      1.0  0.04847  0.85888  0.42669  1.0000
  S   S110      1.0  0.03332  0.78040  0.42436  1.0000
  H   H414      1.0  0.20685  0.77573  0.26812  1.0000
  N   N26       1.0  0.99891  0.67815  0.32749  1.0000
  H   H415      1.0  0.04660  0.83291  0.46879  1.0000
  H   H416      1.0  0.08616  0.58686  0.28859  1.0000
  H   H417      1.0  0.30645  0.81351  0.25532  1.0000
  S   S111      1.0  0.16385  0.73160  0.25710  1.0000
  C   C266      1.0  0.13700  0.90380  0.42350  1.0000
  C   C267      1.0  0.12569  0.87666  0.42075  1.0000
  C   C268      1.0  0.09864  0.86263  0.42145  1.0000
  C   C269      1.0  0.08257  0.87560  0.42498  1.0000
  C   C270      1.0  0.09388  0.90273  0.42768  1.0000
  C   C271      1.0  0.12091  0.91676  0.42698  1.0000
  H   H418      1.0  0.13792  0.86644  0.41797  1.0000
  H   H419      1.0  0.09021  0.84186  0.41912  1.0000
  H   H420      1.0  0.08164  0.91301  0.43036  1.0000
  H   H421      1.0  0.12926  0.93761  0.42909  1.0000
  H   H422      1.0  0.03622  0.58045  0.26119  1.0000
  H   H423      1.0  0.03352  0.54578  0.27869  1.0000
  C   C272      1.0  0.01805  0.63262  0.27761  1.0000
  N   N27       1.0  0.06826  0.57145  0.26847  1.0000
  H   H424      1.0  0.25889  0.93628  0.41043  1.0000
  S   S112      1.0  0.03113  0.75106  0.46261  1.0000
  H   H425      1.0  0.24452  0.96934  0.38876  1.0000
  C   C273      1.0  0.05398  0.57862  0.25709  1.0000
  N   N28       1.0  0.08610  0.83941  0.46443  1.0000
  C   C274      1.0  0.10830  0.83670  0.47175  1.0000
  H   H426      1.0  0.12565  0.84319  0.46484  1.0000
  H   H427      1.0  0.00736  0.66911  0.30643  1.0000
  H   H428      1.0  0.10473  0.58928  0.25783  1.0000
  H   H429      1.0  0.10373  0.81594  0.47479  1.0000
  S   S113      1.0  0.28766  0.99729  0.41028  1.0000
  C   C275      1.0  0.20616  0.77850  0.25678  1.0000
  C   C276      1.0  0.02488  0.74903  0.48105  1.0000
  H   H430      1.0  0.09627  0.82816  0.44429  1.0000
  H   H431      1.0  0.06790  0.84260  0.48392  1.0000
  H   H432      1.0  0.10951  0.87412  0.45295  1.0000
  H   H433      1.0  0.03817  0.71771  0.48331  1.0000
  H   H434      1.0  0.08729  0.61125  0.27570  1.0000
  H   H435      1.0  0.01114  0.78023  0.48247  1.0000
  H   H436      1.0  0.28067  0.75363  0.25876  1.0000
  C   C277      1.0  0.23809  0.93160  0.40804  1.0000
  H   H437      1.0  0.11371  0.84877  0.48160  1.0000
  S   S114      1.0  0.00442  0.80157  0.44873  1.0000
  C   C278      1.0  0.07518  0.59142  0.27984  1.0000
  H   H438      1.0  0.26945  0.95730  0.38687  1.0000
  H   H439      1.0  0.07317  0.80168  0.45416  1.0000
  H   H440      1.0  0.19954  0.91923  0.37865  1.0000
  H   H441      1.0  0.07642  0.86986  0.45505  1.0000
  C   C279      1.0  0.06359  0.83083  0.47397  1.0000
  H   H442      1.0  0.04792  0.56374  0.24846  1.0000
  Fe  Fe55      1.0  0.01273  0.76605  0.44508  1.0000
  H   H443      1.0  0.24465  0.95031  0.37342  1.0000
  C   C280      1.0  0.23850  0.90592  0.38753  1.0000
  C   C281      1.0  0.20467  0.92215  0.39012  1.0000
  C   C282      1.0  0.01717  0.68150  0.31573  1.0000
  C   C283      1.0  0.09295  0.86712  0.46043  1.0000
  C   C284      1.0  0.29484  0.76234  0.25011  1.0000
  H   H444      1.0  0.22611  0.91394  0.41422  1.0000
  H   H445      1.0  0.19204  0.90422  0.39591  1.0000
  H   H446      1.0  0.25930  0.90973  0.38934  1.0000
  H   H447      1.0  0.23382  0.94814  0.41221  1.0000
  S   S115      1.0  0.18661  0.99655  0.43684  1.0000
  S   S116      1.0  0.30884  0.86983  0.25493  1.0000
  H   H448      1.0  0.10367  0.56540  0.27099  1.0000
  C   C285      1.0  0.00867  0.61534  0.28914  1.0000
  C   C286      1.0  0.07949  0.82288  0.45154  1.0000
  S   S117      1.0  0.21504  0.98911  0.40779  1.0000
  H   H449      1.0  0.05767  0.80985  0.47697  1.0000
  H   H450      1.0  0.09842  0.88027  0.46985  1.0000
  H   H451      1.0  0.06347  0.82525  0.44547  1.0000
  H   H452      1.0  0.00376  0.64417  0.33588  1.0000
  H   H453      1.0  0.05762  0.59290  0.28445  1.0000
  H   H454      1.0  0.04632  0.53008  0.26592  1.0000
  H   H455      1.0  0.03335  0.67576  0.31894  1.0000
  C   C287      1.0  0.18649  0.75973  0.24863  1.0000
  H   H456      1.0  0.02570  0.70217  0.31199  1.0000
  C   C288      1.0  0.00373  0.64693  0.27297  1.0000
  H   H457      1.0  0.02071  0.71617  0.33651  1.0000
  H   H458      1.0  0.31427  0.77250  0.25513  1.0000
  C   C289      1.0  0.01258  0.69509  0.33955  1.0000
  Fe  Fe56      1.0  0.32119  0.91323  0.25109  1.0000
  H   H459      1.0  0.99939  0.69285  0.34864  1.0000
  S   S118      1.0  0.32327  0.93514  0.27187  1.0000
  Fe  Fe57      1.0  0.12972  0.69969  0.24596  1.0000
  H   H460      1.0  0.05908  0.76392  0.57492  1.0000
  H   H461      1.0  0.16266  0.54500  0.64964  1.0000
  H   H462      1.0  0.09696  0.51682  0.67719  1.0000
  S   S119      1.0  0.02281  0.76620  0.59842  1.0000
  Fe  Fe58      1.0  0.00702  0.81465  0.55687  1.0000
  S   S120      1.0  0.02874  0.85725  0.55096  1.0000
  S   S121      1.0  0.02994  0.78981  0.55935  1.0000
  S   S122      1.0  0.04496  0.63594  0.66219  1.0000
  S   S123      1.0  0.00735  0.65326  0.69123  1.0000
  S   S124      1.0  0.04761  0.67454  0.62795  1.0000
  H   H463      1.0  0.05979  0.53234  0.64034  1.0000
  H   H464      1.0  0.07015  0.57784  0.64880  1.0000
  H   H465      1.0  0.10310  0.96118  0.55779  1.0000
  Fe  Fe59      1.0  0.22430  0.98954  0.58124  1.0000
  N   N29       1.0  0.29626  0.99179  0.55585  1.0000
  C   C290      1.0  0.02851  0.74006  0.60669  1.0000
  C   C291      1.0  0.04380  0.74527  0.61911  1.0000
  C   C292      1.0  0.04970  0.72547  0.62581  1.0000
  C   C293      1.0  0.04054  0.70020  0.62006  1.0000
  C   C294      1.0  0.02505  0.69490  0.60770  1.0000
  C   C295      1.0  0.01878  0.71461  0.60115  1.0000
  H   H466      1.0  0.06168  0.72991  0.63528  1.0000
  H   H467      1.0  0.09488  0.93244  0.58655  1.0000
  H   H468      1.0  0.23800  0.95638  0.50082  1.0000
  S   S125      1.0  0.31103  0.88070  0.68655  1.0000
  H   H469      1.0  0.17337  0.71336  0.70064  1.0000
  H   H470      1.0  0.06372  0.73835  0.58461  1.0000
  H   H471      1.0  0.06971  0.97595  0.56678  1.0000
  C   C296      1.0  0.27902  0.96425  0.55289  1.0000
  H   H472      1.0  0.05134  0.76487  0.62352  1.0000
  Fe  Fe60      1.0  0.00368  0.77068  0.57752  1.0000
  S   S126      1.0  0.23156  0.97064  0.52941  1.0000
  H   H473      1.0  0.16554  0.68928  0.71458  1.0000
  Fe  Fe61      1.0  0.17100  0.95275  0.57072  1.0000
  S   S127      1.0  0.13949  0.91593  0.57912  1.0000
  S   S128      1.0  0.21074  0.95297  0.56818  1.0000
  Fe  Fe62      1.0  0.10435  0.69881  0.67373  1.0000
  S   S129      1.0  0.10496  0.67424  0.65479  1.0000
  S   S130      1.0  0.14001  0.73278  0.68324  1.0000
  Fe  Fe63      1.0  0.04678  0.66225  0.68066  1.0000
  Fe  Fe64      1.0  0.08462  0.63896  0.66873  1.0000
  S   S131      1.0  0.09979  0.60676  0.67372  1.0000
  Fe  Fe65      1.0  0.06504  0.67339  0.64991  1.0000
  S   S132      1.0  0.08547  0.66351  0.68800  1.0000
  S   S133      1.0  0.06548  0.69976  0.66806  1.0000
  Fe  Fe66      1.0  0.30868  0.91537  0.65109  1.0000
  S   S134      1.0  0.27886  0.90809  0.66805  1.0000
  S   S135      1.0  0.30314  0.92291  0.62769  1.0000
  Fe  Fe67      1.0  0.27904  0.86753  0.66990  1.0000
  S   S136      1.0  0.24207  0.83142  0.66360  1.0000
  Fe  Fe68      1.0  0.21397  0.97933  0.54940  1.0000
  S   S137      1.0  0.30871  0.87496  0.65278  1.0000
  C   C297      1.0  0.08989  0.57360  0.66770  1.0000
  C   C298      1.0  0.09747  0.55606  0.67556  1.0000
  C   C299      1.0  0.09114  0.52999  0.67093  1.0000
  C   C300      1.0  0.07760  0.52120  0.65816  1.0000
  C   C301      1.0  0.07016  0.53878  0.65027  1.0000
  C   C302      1.0  0.07597  0.56466  0.65506  1.0000
  H   H474      1.0  0.10823  0.56264  0.68536  1.0000
  C   C303      1.0  0.01674  0.74361  0.51069  1.0000
  C   C304      1.0  0.16816  0.76016  0.67743  1.0000
  C   C305      1.0  0.17415  0.76580  0.66308  1.0000
  C   C306      1.0  0.19675  0.78754  0.65913  1.0000
  C   C307      1.0  0.21384  0.80406  0.66939  1.0000
  C   C308      1.0  0.20786  0.79839  0.68372  1.0000
  C   C309      1.0  0.18528  0.77665  0.68767  1.0000
  H   H475      1.0  0.16136  0.75346  0.65502  1.0000
  H   H476      1.0  0.20103  0.79152  0.64800  1.0000
  H   H477      1.0  0.22059  0.81079  0.69180  1.0000
  H   H478      1.0  0.18098  0.77270  0.69880  1.0000
  C   C310      1.0  0.08292  0.94356  0.58333  1.0000
  C   C311      1.0  0.28691  0.94225  0.62072  1.0000
  C   C312      1.0  0.28595  0.96367  0.62813  1.0000
  H   H479      1.0  0.02323  0.73235  0.56153  1.0000
  C   C313      1.0  0.26390  0.97448  0.60800  1.0000
  C   C314      1.0  0.26386  0.95237  0.60083  1.0000
  C   C315      1.0  0.27569  0.93663  0.60707  1.0000
  C   C316      1.0  0.11654  0.98387  0.59159  1.0000
  H   H480      1.0  0.00397  0.77546  0.50875  1.0000
  H   H481      1.0  0.25542  0.94788  0.59032  1.0000
  H   H482      1.0  0.27629  0.92009  0.60125  1.0000
  C   C317      1.0  0.10983  0.89862  0.57028  1.0000
  C   C318      1.0  0.09164  0.87639  0.57684  1.0000
  C   C319      1.0  0.06701  0.86315  0.57075  1.0000
  C   C320      1.0  0.06020  0.87239  0.55819  1.0000
  C   C321      1.0  0.07845  0.89453  0.55155  1.0000
  C   C322      1.0  0.10338  0.90736  0.55744  1.0000
  H   H483      1.0  0.09648  0.86951  0.58677  1.0000
  H   H484      1.0  0.05304  0.84618  0.57598  1.0000
  H   H485      1.0  0.07333  0.90158  0.54174  1.0000
  H   H486      1.0  0.11747  0.92405  0.55211  1.0000
  H   H487      1.0  0.23289  0.91745  0.62793  1.0000
  H   H488      1.0  0.19597  0.66307  0.68695  1.0000
  S   S138      1.0  0.01201  0.73815  0.52918  1.0000
  H   H489      1.0  0.02693  0.70663  0.55165  1.0000
  H   H490      1.0  0.06902  0.70098  0.55314  1.0000
  N   N30       1.0  0.21693  0.87981  0.63816  1.0000
  C   C323      1.0  0.22651  0.90874  0.63858  1.0000
  C   C324      1.0  0.20748  0.86900  0.65233  1.0000
  C   C325      1.0  0.19553  0.86949  0.62771  1.0000
  H   H491      1.0  0.21128  0.91543  0.64218  1.0000
  H   H492      1.0  0.20020  0.84719  0.65240  1.0000
  H   H493      1.0  0.22318  0.87614  0.66048  1.0000
  H   H494      1.0  0.19147  0.87454  0.65589  1.0000
  H   H495      1.0  0.18777  0.84769  0.62716  1.0000
  H   H496      1.0  0.20200  0.87717  0.61687  1.0000
  H   H497      1.0  0.17919  0.87516  0.63049  1.0000
  H   H498      1.0  0.02804  0.63707  0.71678  1.0000
  C   C326      1.0  0.06906  0.75007  0.57468  1.0000
  C   C327      1.0  0.00389  0.69286  0.65692  1.0000
  H   H499      1.0  0.12799  0.96032  0.56959  1.0000
  H   H500      1.0  0.06454  0.73723  0.53923  1.0000
  H   H501      1.0  0.13026  0.52757  0.64316  1.0000
  C   C328      1.0  0.27486  0.97989  0.62171  1.0000
  S   S139      1.0  0.17297  0.97593  0.55090  1.0000
  C   C329      1.0  0.07010  0.74940  0.54905  1.0000
  H   H502      1.0  0.29464  0.96840  0.63859  1.0000
  H   H503      1.0  0.09139  0.76067  0.54899  1.0000
  C   C330      1.0  0.03334  0.71867  0.56147  1.0000
  H   H504      1.0  0.28177  0.95824  0.54196  1.0000
  S   S140      1.0  0.18423  0.98800  0.58502  1.0000
  C   C331      1.0  0.32350  0.99478  0.55483  1.0000
  C   C332      1.0  0.22916  0.98481  0.51286  1.0000
  H   H505      1.0  0.12883  0.97305  0.59472  1.0000
  N   N31       1.0  0.16506  0.67397  0.69356  1.0000
  C   C333      1.0  0.15891  0.67946  0.67894  1.0000
  C   C334      1.0  0.14791  0.64691  0.69746  1.0000
  C   C335      1.0  0.19233  0.67688  0.69433  1.0000
  H   H506      1.0  0.16106  0.66538  0.67117  1.0000
  H   H507      1.0  0.13864  0.67783  0.67813  1.0000
  H   H508      1.0  0.17140  0.69974  0.67558  1.0000
  H   H509      1.0  0.14999  0.63225  0.69004  1.0000
  H   H510      1.0  0.12716  0.64411  0.69699  1.0000
  H   H511      1.0  0.20569  0.69713  0.69142  1.0000
  H   H512      1.0  0.19768  0.67288  0.70522  1.0000
  H   H513      1.0  0.23171  0.85022  0.63365  1.0000
  H   H514      1.0  0.02029  0.69592  0.64964  1.0000
  C   C336      1.0  0.16104  0.69269  0.70344  1.0000
  H   H515      1.0  0.09577  0.72441  0.56289  1.0000
  H   H516      1.0  0.24340  0.91731  0.64592  1.0000
  H   H517      1.0  0.25833  0.96135  0.55358  1.0000
  Fe  Fe69      1.0  0.99966  0.76135  0.54520  1.0000
  H   H518      1.0  0.27073  0.99614  0.57154  1.0000
  H   H519      1.0  0.00635  0.71016  0.59187  1.0000
  C   C337      1.0  0.23818  0.87194  0.63398  1.0000
  H   H520      1.0  0.14062  0.69106  0.70305  1.0000
  H   H521      1.0  0.24604  0.87997  0.62341  1.0000
  H   H522      1.0  0.29546  0.98669  0.57855  1.0000
  C   C338      1.0  0.15052  0.52868  0.64258  1.0000
  H   H523      1.0  0.15200  0.64189  0.70838  1.0000
  H   H524      1.0  0.25460  0.87925  0.64168  1.0000
  N   N32       1.0  0.06172  0.73311  0.56194  1.0000
  C   C339      1.0  0.02635  0.72751  0.50335  1.0000
  C   C340      1.0  0.07432  0.71419  0.56256  1.0000
  S   S141      1.0  0.25258  0.99708  0.59989  1.0000
  H   H525      1.0  0.18640  0.50987  0.63501  1.0000
  H   H526      1.0  0.07053  0.93274  0.57424  1.0000
  H   H527      1.0  0.06079  0.76375  0.54820  1.0000
  H   H528      1.0  0.00071  0.71144  0.65721  1.0000
  H   H529      1.0  0.06841  0.70164  0.57220  1.0000
  H   H530      1.0  0.07000  0.94270  0.59235  1.0000
  N   N33       1.0  0.09935  0.97091  0.57950  1.0000
  H   H531      1.0  0.10528  0.98480  0.60106  1.0000
  C   C341      1.0  0.01123  0.76277  0.50314  1.0000
  C   C342      1.0  0.08287  0.98532  0.57588  1.0000
  H   H532      1.0  0.09022  0.76201  0.57516  1.0000
  C   C343      1.0  0.23388  0.97386  0.50030  1.0000
  H   H533      1.0  0.12799  0.99123  0.56392  1.0000
  Fe  Fe70      1.0  0.31316  0.92193  0.68329  1.0000
  H   H534      1.0  0.28223  0.95053  0.56057  1.0000
  H   H535      1.0  0.02637  0.70537  0.57071  1.0000
  H   H536      1.0  0.19196  0.52100  0.65313  1.0000
  H   H537      1.0  0.01008  0.68955  0.66776  1.0000
  C   C344      1.0  0.11528  0.97094  0.56714  1.0000
  H   H538      1.0  0.15718  0.53399  0.63150  1.0000
  S   S142      1.0  0.31643  0.94540  0.70374  1.0000
  H   H539      1.0  0.01763  0.67533  0.60325  1.0000
  H   H540      1.0  0.03066  0.71267  0.50902  1.0000
  H   H541      1.0  0.07063  0.98585  0.58499  1.0000
  H   H542      1.0  0.00720  0.61730  0.73949  1.0000
  C   C345      1.0  0.00755  0.63196  0.71821  1.0000
  H   H543      1.0  0.32319  0.97065  0.73099  1.0000
  H   H544      1.0  0.27511  0.99699  0.62733  1.0000
  C   C346      1.0  0.99563  0.62076  0.73111  1.0000
  H   H545      1.0  0.15470  0.51287  0.66908  1.0000
  H   H546      1.0  0.00178  0.64902  0.64389  1.0000
  N   N34       1.0  0.15188  0.50356  0.64682  1.0000
  C   C347      1.0  0.17883  0.50544  0.64598  1.0000
  H   H547      1.0  0.18835  0.93565  0.95559  1.0000
  H   H548      1.0  0.15568  0.95495  0.95338  1.0000
  H   H549      1.0  0.17470  0.96498  0.92257  1.0000
  H   H550      1.0  0.08501  0.86655  0.97706  1.0000
  H   H551      1.0  0.01115  0.59593  0.94295  1.0000
  H   H552      1.0  0.31547  0.98172  0.95883  1.0000
  C   C348      1.0  0.20334  0.95514  0.95268  1.0000
  H   H553      1.0  0.23004  0.99303  0.93444  1.0000
  H   H554      1.0  0.19857  0.95102  0.92436  1.0000
  H   H555      1.0  0.28416  0.96548  0.96642  1.0000
  Fe  Fe71      1.0  0.00310  0.74653  0.98434  1.0000
  H   H556      1.0  0.00630  0.63419  0.79953  1.0000
  H   H557      1.0  0.04714  0.86837  0.99261  1.0000
  H   H558      1.0  0.27882  0.93896  0.98829  1.0000
  C   C349      1.0  0.14188  0.91393  0.98952  1.0000
  C   C350      1.0  0.31968  0.98501  0.98716  1.0000
  H   H559      1.0  0.01275  0.85719  0.98944  1.0000
  S   S143      1.0  0.99870  0.72436  0.96329  1.0000
  H   H560      1.0  0.11952  0.90917  0.97024  1.0000
  C   C351      1.0  0.30308  0.96386  0.96477  1.0000
  N   N35       1.0  0.19274  0.96977  0.94316  1.0000
  C   C352      1.0  0.17137  0.97393  0.95036  1.0000
  C   C353      1.0  0.10088  0.87643  0.98430  1.0000
  S   S144      1.0  0.00546  0.78837  0.98377  1.0000
  S   S145      1.0  0.24129  0.96492  0.98636  1.0000
  C   C354      1.0  0.12065  0.90069  0.98043  1.0000
  H   H561      1.0  0.16273  0.98482  0.94353  1.0000
  S   S146      1.0  0.16613  0.94478  0.98394  1.0000
  H   H562      1.0  0.21043  0.96597  0.96275  1.0000
  H   H563      1.0  0.16734  0.93505  0.93232  1.0000
  H   H564      1.0  0.29951  0.94660  0.95781  1.0000
  H   H565      1.0  0.21991  0.95207  0.94780  1.0000
  C   C355      1.0  0.18290  0.95454  0.93001  1.0000
  N   N36       1.0  0.31517  0.96151  0.97842  1.0000
  H   H566      1.0  0.30127  0.98739  0.98916  1.0000
  H   H567      1.0  0.29396  0.91971  0.97983  1.0000
  H   H568      1.0  0.17815  0.98528  0.96038  1.0000
  C   C356      1.0  0.21339  0.99541  0.93968  1.0000
  C   C357      1.0  0.29782  0.93792  0.98603  1.0000
  Fe  Fe72      1.0  0.20652  0.97338  0.99197  1.0000
  Fe  Fe73      1.0  0.33201  0.41389  0.08495  1.0000
  C   C358      1.0  0.33125  0.35982  0.01400  1.0000
  H   H569      1.0  0.34534  0.35904  0.02220  1.0000
  C   C359      1.0  0.65141  0.00807  0.11478  1.0000
  H   H570      1.0  0.33999  0.34002  0.05465  1.0000
  H   H571      1.0  0.65039  0.01962  0.10528  1.0000
  Fe  Fe74      1.0  0.35974  0.46843  0.09876  1.0000
  Fe  Fe75      1.0  0.33628  0.43394  0.21519  1.0000
  S   S147      1.0  0.35335  0.42742  0.10591  1.0000
  S   S148      1.0  0.33739  0.38183  0.07161  1.0000
  S   S149      1.0  0.34134  0.45525  0.07720  1.0000
  S   S150      1.0  0.35145  0.42289  0.19502  1.0000
  C   C360      1.0  0.34874  0.33960  0.99645  1.0000
  S   S151      1.0  0.36712  0.45930  0.23039  1.0000
  C   C361      1.0  0.35011  0.42401  0.16589  1.0000
  Fe  Fe76      1.0  0.34498  0.48519  0.22938  1.0000
  H   H572      1.0  0.34911  0.42336  0.14293  1.0000
  H   H573      1.0  0.37041  0.42743  0.16654  1.0000
  C   C362      1.0  0.33805  0.42165  0.15249  1.0000
  H   H574      1.0  0.40618  0.00885  0.08145  1.0000
  H   H575      1.0  0.35272  0.35283  0.11401  1.0000
  C   C363      1.0  0.33596  0.42151  0.17841  1.0000
  H   H576      1.0  0.64412  0.01564  0.12399  1.0000
  C   C364      1.0  0.33879  0.35129  0.10524  1.0000
  H   H577      1.0  0.36330  0.33816  0.00413  1.0000
  H   H578      1.0  0.36356  0.00884  0.07392  1.0000
  H   H579      1.0  0.40197  0.46487  0.20429  1.0000
  H   H580      1.0  0.40190  0.46144  0.18545  1.0000
  H   H581      1.0  0.33979  0.37925  0.00869  1.0000
  H   H582      1.0  0.43178  0.47928  0.19476  1.0000
  H   H583      1.0  0.34195  0.33920  0.09661  1.0000
  H   H584      1.0  0.36877  0.48335  0.20215  1.0000
  C   C365      1.0  0.41079  0.47533  0.19436  1.0000
  C   C366      1.0  0.37819  0.49344  0.19228  1.0000
  H   H585      1.0  0.34404  0.37133  0.10082  1.0000
  H   H586      1.0  0.36847  0.48013  0.18329  1.0000
  C   C367      1.0  0.38209  0.11088  0.29035  1.0000
  H   H587      1.0  0.35995  0.02683  0.37648  1.0000
  C   C368      1.0  0.39713  0.10526  0.26721  1.0000
  H   H588      1.0  0.38824  0.02571  0.26620  1.0000
  Fe  Fe77      1.0  0.39022  0.33228  0.34971  1.0000
  S   S152      1.0  0.38563  0.30359  0.33193  1.0000
  S   S153      1.0  0.35935  0.33079  0.36597  1.0000
  Fe  Fe78      1.0  0.44639  0.36876  0.34022  1.0000
  S   S154      1.0  0.44499  0.34187  0.32217  1.0000
  S   S155      1.0  0.47947  0.40891  0.34513  1.0000
  Fe  Fe79      1.0  0.40441  0.33974  0.31822  1.0000
  S   S156      1.0  0.39339  0.34503  0.29531  1.0000
  Fe  Fe80      1.0  0.42645  0.30822  0.33743  1.0000
  S   S157      1.0  0.44278  0.27714  0.34313  1.0000
  S   S158      1.0  0.40660  0.36804  0.33558  1.0000
  S   S159      1.0  0.43012  0.33556  0.35588  1.0000
  Fe  Fe81      1.0  0.42296  0.12326  0.32886  1.0000
  S   S160      1.0  0.42861  0.10970  0.35075  1.0000
  S   S161      1.0  0.41954  0.16086  0.32035  1.0000
  Fe  Fe82      1.0  0.40585  0.06685  0.31627  1.0000
  S   S162      1.0  0.40908  0.04952  0.33746  1.0000
  S   S163      1.0  0.39719  0.04936  0.29382  1.0000
  Fe  Fe83      1.0  0.39059  0.07539  0.34704  1.0000
  H   H589      1.0  0.63172  0.13277  0.38231  1.0000
  Fe  Fe84      1.0  0.44709  0.08494  0.33971  1.0000
  S   S164      1.0  0.48160  0.07555  0.34747  1.0000
  S   S165      1.0  0.38466  0.08984  0.32553  1.0000
  S   S166      1.0  0.44426  0.10118  0.31819  1.0000
  H   H590      1.0  0.38863  0.13351  0.34671  1.0000
  H   H591      1.0  0.41030  0.16184  0.28568  1.0000
  S   S167      1.0  0.63402  0.05822  0.33658  1.0000
  H   H592      1.0  0.62225  0.06791  0.36704  1.0000
  Fe  Fe85      1.0  0.63507  0.09867  0.33210  1.0000
  S   S168      1.0  0.60208  0.11362  0.33229  1.0000
  C   C369      1.0  0.63008  0.11734  0.37440  1.0000
  C   C370      1.0  0.60662  0.08299  0.39085  1.0000
  H   H593      1.0  0.37864  0.10376  0.26214  1.0000
  H   H594      1.0  0.58305  0.11459  0.38275  1.0000
  H   H595      1.0  0.39508  0.08492  0.26994  1.0000
  H   H596      1.0  0.42680  0.10349  0.28910  1.0000
  C   C371      1.0  0.33682  0.04975  0.37430  1.0000
  C   C372      1.0  0.51430  0.08533  0.34165  1.0000
  C   C373      1.0  0.52754  0.06877  0.34438  1.0000
  C   C374      1.0  0.55395  0.07643  0.34093  1.0000
  C   C375      1.0  0.56787  0.10125  0.33516  1.0000
  C   C376      1.0  0.55461  0.11774  0.33238  1.0000
  C   C377      1.0  0.52800  0.10976  0.33543  1.0000
  H   H597      1.0  0.51720  0.04982  0.34917  1.0000
  H   H598      1.0  0.56353  0.06323  0.34294  1.0000
  H   H599      1.0  0.56506  0.13699  0.32795  1.0000
  H   H600      1.0  0.51830  0.12288  0.33338  1.0000
  C   C378      1.0  0.42778  0.12338  0.28632  1.0000
  C   C379      1.0  0.40562  0.14883  0.27615  1.0000
  N   N37       1.0  0.36434  0.15001  0.35678  1.0000
  C   C380      1.0  0.34320  0.02987  0.38026  1.0000
  H   H601      1.0  0.64340  0.46242  0.32258  1.0000
  C   C381      1.0  0.51252  0.42907  0.34104  1.0000
  C   C382      1.0  0.52338  0.45497  0.34628  1.0000
  C   C383      1.0  0.54938  0.47169  0.34350  1.0000
  C   C384      1.0  0.56523  0.46269  0.33557  1.0000
  C   C385      1.0  0.55432  0.43677  0.33028  1.0000
  C   C386      1.0  0.52817  0.42019  0.33286  1.0000
  H   H602      1.0  0.51162  0.46221  0.35262  1.0000
  H   H603      1.0  0.58331  0.10906  0.36405  1.0000
  H   H604      1.0  0.56622  0.42950  0.32409  1.0000
  H   H605      1.0  0.52024  0.40052  0.32859  1.0000
  C   C387      1.0  0.43503  0.24443  0.33695  1.0000
  C   C388      1.0  0.44508  0.22826  0.34432  1.0000
  C   C389      1.0  0.44035  0.20259  0.33956  1.0000
  C   C390      1.0  0.42574  0.19281  0.32721  1.0000
  C   C391      1.0  0.41555  0.20890  0.31990  1.0000
  C   C392      1.0  0.41996  0.23441  0.32478  1.0000
  H   H606      1.0  0.45685  0.23574  0.35372  1.0000
  H   H607      1.0  0.44852  0.19064  0.34526  1.0000
  H   H608      1.0  0.40422  0.20166  0.31034  1.0000
  H   H609      1.0  0.41215  0.24654  0.31894  1.0000
  C   C393      1.0  0.36153  0.40414  0.27705  1.0000
  C   C394      1.0  0.36901  0.38833  0.26809  1.0000
  C   C395      1.0  0.37863  0.37034  0.27387  1.0000
  C   C396      1.0  0.38088  0.36787  0.28863  1.0000
  C   C397      1.0  0.37331  0.38363  0.29760  1.0000
  C   C398      1.0  0.36378  0.40168  0.29182  1.0000
  H   H610      1.0  0.36740  0.38993  0.25671  1.0000
  H   H611      1.0  0.38432  0.35820  0.26683  1.0000
  H   H612      1.0  0.37452  0.38169  0.30897  1.0000
  H   H613      1.0  0.43265  0.13537  0.29620  1.0000
  H   H614      1.0  0.35797  0.41372  0.29887  1.0000
  H   H615      1.0  0.60501  0.01533  0.30315  1.0000
  C   C399      1.0  0.63542  0.01325  0.29016  1.0000
  C   C400      1.0  0.37628  0.01102  0.27352  1.0000
  H   H616      1.0  0.36318  0.10945  0.28591  1.0000
  H   H617      1.0  0.36099  0.14853  0.37947  1.0000
  H   H618      1.0  0.40535  0.16002  0.35861  1.0000
  N   N38       1.0  0.45248  0.43318  0.30770  1.0000
  C   C401      1.0  0.43562  0.43283  0.31970  1.0000
  C   C402      1.0  0.45360  0.40710  0.30626  1.0000
  C   C403      1.0  0.47881  0.45308  0.31039  1.0000
  C   C404      1.0  0.44186  0.43960  0.29447  1.0000
  H   H619      1.0  0.44294  0.42774  0.32984  1.0000
  H   H620      1.0  0.41555  0.41810  0.31800  1.0000
  H   H621      1.0  0.43446  0.45224  0.32121  1.0000
  H   H622      1.0  0.46561  0.40633  0.29710  1.0000
  C   C405      1.0  0.33845  0.30524  0.37710  1.0000
  H   H623      1.0  0.43397  0.39153  0.30459  1.0000
  H   H624      1.0  0.48712  0.44893  0.32043  1.0000
  H   H625      1.0  0.47879  0.47308  0.31139  1.0000
  H   H626      1.0  0.49226  0.45355  0.30171  1.0000
  H   H627      1.0  0.45425  0.44030  0.28521  1.0000
  H   H628      1.0  0.44021  0.45892  0.29524  1.0000
  C   C406      1.0  0.36289  0.16223  0.37048  1.0000
  H   H629      1.0  0.38541  0.12816  0.36545  1.0000
  S   S169      1.0  0.35541  0.07098  0.36066  1.0000
  C   C407      1.0  0.37695  0.01724  0.28804  1.0000
  H   H630      1.0  0.55730  0.49142  0.34772  1.0000
  H   H631      1.0  0.44421  0.13217  0.27891  1.0000
  H   H632      1.0  0.60568  0.08112  0.35491  1.0000
  H   H633      1.0  0.62372  0.07770  0.39240  1.0000
  H   H634      1.0  0.33741  0.11213  0.36345  1.0000
  C   C408      1.0  0.34051  0.12625  0.35455  1.0000
  N   N39       1.0  0.50662  0.34214  0.36006  1.0000
  C   C409      1.0  0.48936  0.31986  0.36861  1.0000
  C   C410      1.0  0.50448  0.36664  0.36479  1.0000
  C   C411      1.0  0.49900  0.33740  0.34496  1.0000
  C   C412      1.0  0.53365  0.34462  0.36183  1.0000
  H   H635      1.0  0.49010  0.30098  0.36510  1.0000
  H   H636      1.0  0.46879  0.31742  0.36752  1.0000
  H   H637      1.0  0.49453  0.32255  0.38009  1.0000
  H   H638      1.0  0.48439  0.36563  0.36352  1.0000
  H   H639      1.0  0.50995  0.37085  0.37616  1.0000
  H   H640      1.0  0.51713  0.38386  0.35851  1.0000
  H   H641      1.0  0.51128  0.35389  0.33813  1.0000
  H   H642      1.0  0.47862  0.33505  0.34335  1.0000
  H   H643      1.0  0.50025  0.31900  0.34101  1.0000
  H   H644      1.0  0.54713  0.36125  0.35548  1.0000
  H   H645      1.0  0.53592  0.32647  0.35833  1.0000
  H   H646      1.0  0.54005  0.34819  0.37312  1.0000
  H   H647      1.0  0.38600  0.12305  0.30014  1.0000
  H   H648      1.0  0.64777  0.11290  0.37540  1.0000
  S   S170      1.0  0.65932  0.10402  0.31253  1.0000
  H   H649      1.0  0.46197  0.40183  0.31594  1.0000
  C   C413      1.0  0.58343  0.10018  0.37466  1.0000
  H   H650      1.0  0.34594  0.16789  0.37077  1.0000
  H   H651      1.0  0.56505  0.08251  0.37546  1.0000
  H   H652      1.0  0.42218  0.42464  0.29202  1.0000
  H   H653      1.0  0.37979  0.09077  0.29358  1.0000
  C   C414      1.0  0.38695  0.14268  0.35694  1.0000
  H   H654      1.0  0.60756  0.09754  0.39917  1.0000
  C   C415      1.0  0.60538  0.07359  0.36587  1.0000
  C   C416      1.0  0.60963  0.00579  0.29421  1.0000
  H   H655      1.0  0.63025  0.12589  0.36366  1.0000
  S   S171      1.0  0.34930  0.42728  0.27047  1.0000
  N   N40       1.0  0.60634  0.09353  0.37647  1.0000
  H   H656      1.0  0.58750  0.05548  0.36685  1.0000
  C   C417      1.0  0.36706  0.16882  0.34515  1.0000
  H   H657      1.0  0.41271  0.11292  0.25920  1.0000
  H   H658      1.0  0.58896  0.06497  0.39272  1.0000
  S   S172      1.0  0.59880  0.48236  0.33236  1.0000
  H   H659      1.0  0.35008  0.17437  0.34446  1.0000
  C   C418      1.0  0.32798  0.01401  0.39124  1.0000
  H   H660      1.0  0.42134  0.15795  0.26835  1.0000
  C   C419      1.0  0.33659  0.27935  0.37621  1.0000
  N   N41       1.0  0.40315  0.12209  0.27999  1.0000
  H   H661      1.0  0.38734  0.14871  0.27143  1.0000
  H   H662      1.0  0.34833  0.27440  0.36865  1.0000
  H   H663      1.0  0.36904  0.16046  0.33470  1.0000
  H   H664      1.0  0.34156  0.11566  0.34470  1.0000
  Fe  Fe86      1.0  0.34031  0.43765  0.24797  1.0000
  H   H665      1.0  0.36157  0.00254  0.30856  1.0000
  H   H666      1.0  0.38456  0.18721  0.34670  1.0000
  H   H667      1.0  0.38058  0.18025  0.37248  1.0000
  C   C420      1.0  0.64092  0.00054  0.27847  1.0000
  C   C421      1.0  0.65925  0.47487  0.32979  1.0000
  H   H668      1.0  0.65357  0.49083  0.33361  1.0000
  Fe  Fe87      1.0  0.66041  0.06486  0.31773  1.0000
  H   H669      1.0  0.65973  0.46290  0.33918  1.0000
  H   H670      1.0  0.54675  0.03396  0.72055  1.0000
  H   H671      1.0  0.54850  0.43908  0.73837  1.0000
  H   H672      1.0  0.33632  0.35065  0.72838  1.0000
  S   S173      1.0  0.40627  0.04848  0.72950  1.0000
  Fe  Fe88      1.0  0.34955  0.47146  0.66016  1.0000
  C   C422      1.0  0.39035  0.38303  0.65455  1.0000
  C   C423      1.0  0.62375  0.02195  0.73320  1.0000
  S   S174      1.0  0.37235  0.40511  0.68588  1.0000
  S   S175      1.0  0.35968  0.43757  0.65411  1.0000
  C   C424      1.0  0.38055  0.02013  0.72257  1.0000
  H   H673      1.0  0.39872  0.28463  0.73350  1.0000
  H   H674      1.0  0.61199  0.08682  0.71685  1.0000
  H   H675      1.0  0.57696  0.03091  0.72397  1.0000
  H   H676      1.0  0.39834  0.02439  0.70206  1.0000
  C   C425      1.0  0.60539  0.08218  0.72799  1.0000
  C   C426      1.0  0.37746  0.36121  0.72685  1.0000
  C   C427      1.0  0.35353  0.36139  0.72236  1.0000
  C   C428      1.0  0.35163  0.37536  0.71013  1.0000
  C   C429      1.0  0.37363  0.38896  0.70208  1.0000
  C   C430      1.0  0.39753  0.38870  0.70655  1.0000
  C   C431      1.0  0.39952  0.37517  0.71892  1.0000
  N   N42       1.0  0.57694  0.06880  0.72881  1.0000
  C   C432      1.0  0.38202  0.01258  0.70844  1.0000
  H   H677      1.0  0.41468  0.39907  0.70041  1.0000
  H   H678      1.0  0.41804  0.37516  0.72216  1.0000
  H   H679      1.0  0.35859  0.39274  0.63579  1.0000
  C   C433      1.0  0.56814  0.04460  0.72016  1.0000
  H   H680      1.0  0.61511  0.06983  0.73249  1.0000
  H   H681      1.0  0.35176  0.26786  0.72888  1.0000
  C   C434      1.0  0.64355  0.03895  0.72472  1.0000
  H   H682      1.0  0.46646  0.22752  0.74121  1.0000
  Fe  Fe89      1.0  0.34351  0.41991  0.67531  1.0000
  H   H683      1.0  0.33702  0.01532  0.55710  1.0000
  N   N43       1.0  0.36599  0.36392  0.64837  1.0000
  H   H684      1.0  0.39442  0.37660  0.66519  1.0000
  H   H685      1.0  0.57177  0.10515  0.72955  1.0000
  H   H686      1.0  0.54347  0.07740  0.72422  1.0000
  C   C435      1.0  0.36085  0.37377  0.63457  1.0000
  H   H687      1.0  0.62913  0.00243  0.69410  1.0000
  S   S176      1.0  0.37861  0.34217  0.74193  1.0000
  H   H688      1.0  0.34242  0.37926  0.65991  1.0000
  C   C436      1.0  0.64527  0.03170  0.71058  1.0000
  C   C437      1.0  0.56494  0.08649  0.72340  1.0000
  H   H689      1.0  0.37681  0.37703  0.62696  1.0000
  H   H690      1.0  0.39933  0.25303  0.72982  1.0000
  C   C438      1.0  0.35914  0.00481  0.73062  1.0000
  H   H691      1.0  0.56988  0.09171  0.71210  1.0000
  H   H692      1.0  0.57363  0.04894  0.70884  1.0000
  C   C439      1.0  0.62747  0.00775  0.70496  1.0000
  C   C440      1.0  0.39605  0.26533  0.73827  1.0000
  H   H693      1.0  0.61266  0.10093  0.73405  1.0000
  S   S177      1.0  0.33479  0.45479  0.68172  1.0000
  H   H694      1.0  0.40717  0.38603  0.64763  1.0000
  H   H695      1.0  0.38930  0.40249  0.65617  1.0000
  H   H696      1.0  0.33309  0.37525  0.70682  1.0000
  H   H697      1.0  0.34265  0.35982  0.62956  1.0000
  H   H698      1.0  0.36997  0.21382  0.74235  1.0000
  H   H699      1.0  0.62230  0.02709  0.74413  1.0000
  C   C441      1.0  0.35018  0.24871  0.73346  1.0000
  H   H700      1.0  0.38425  0.34037  0.63895  1.0000
  H   H701      1.0  0.37204  0.33053  0.65652  1.0000
  C   C442      1.0  0.36821  0.33848  0.64628  1.0000
  H   H702      1.0  0.35765  0.01029  0.74148  1.0000
  H   H703      1.0  0.35212  0.23637  0.72461  1.0000
  C   C443      1.0  0.34446  0.36040  0.65812  1.0000
  H   H704      1.0  0.55949  0.14079  0.74235  1.0000
  H   H705      1.0  0.34781  0.35341  0.66875  1.0000
  H   H706      1.0  0.35005  0.32366  0.64166  1.0000
  N   N44       1.0  0.37011  0.25254  0.74455  1.0000
  H   H707      1.0  0.33033  0.23898  0.73780  1.0000
  H   H708      1.0  0.66051  0.04464  0.70392  1.0000
  C   C444      1.0  0.56936  0.06199  0.74373  1.0000
  C   C445      1.0  0.47248  0.08002  0.93361  1.0000
  H   H709      1.0  0.60085  0.12547  0.88039  1.0000
  H   H710      1.0  0.54466  0.22477  0.76094  1.0000
  Fe  Fe90      1.0  0.63863  0.11053  0.90615  1.0000
  S   S178      1.0  0.59441  0.09076  0.90574  1.0000
  H   H711      1.0  0.49033  0.43173  0.76654  1.0000
  H   H712      1.0  0.56621  0.08307  0.87336  1.0000
  C   C446      1.0  0.35462  0.31356  0.87998  1.0000
  S   S179      1.0  0.62844  0.08623  0.76401  1.0000
  H   H713      1.0  0.59556  0.12100  0.84087  1.0000
  Fe  Fe91      1.0  0.40317  0.33751  0.91420  1.0000
  S   S180      1.0  0.44155  0.34747  0.92527  1.0000
  S   S181      1.0  0.36363  0.33362  0.92266  1.0000
  Fe  Fe92      1.0  0.42655  0.33552  0.88496  1.0000
  S   S182      1.0  0.46662  0.34496  0.89370  1.0000
  S   S183      1.0  0.41224  0.32175  0.86265  1.0000
  Fe  Fe93      1.0  0.44617  0.31686  0.91109  1.0000
  S   S184      1.0  0.46193  0.28759  0.91932  1.0000
  Fe  Fe94      1.0  0.45951  0.37501  0.90707  1.0000
  S   S185      1.0  0.48785  0.41705  0.91164  1.0000
  S   S186      1.0  0.40671  0.30499  0.90147  1.0000
  S   S187      1.0  0.42062  0.36757  0.89699  1.0000
  C   C447      1.0  0.57857  0.12887  0.75928  1.0000
  S   S188      1.0  0.40834  0.32559  0.77587  1.0000
  H   H714      1.0  0.49019  0.43970  0.80518  1.0000
  Fe  Fe95      1.0  0.47323  0.36325  0.75767  1.0000
  S   S189      1.0  0.44565  0.38200  0.76313  1.0000
  Fe  Fe96      1.0  0.43812  0.30994  0.76934  1.0000
  Fe  Fe97      1.0  0.44177  0.36073  0.78392  1.0000
  S   S190      1.0  0.44511  0.38366  0.80437  1.0000
  Fe  Fe98      1.0  0.41478  0.34533  0.75447  1.0000
  S   S191      1.0  0.47133  0.34413  0.77891  1.0000
  Fe  Fe99      1.0  0.41010  0.09077  0.78038  1.0000
  S   S192      1.0  0.44883  0.12419  0.78055  1.0000
  S   S193      1.0  0.38548  0.08573  0.80009  1.0000
  H   H715      1.0  0.59352  0.14000  0.86479  1.0000
  Fe  Fe100     1.0  0.46274  0.09550  0.77052  1.0000
  S   S194      1.0  0.49883  0.09247  0.77967  1.0000
  Fe  Fe101     1.0  0.43864  0.13228  0.75849  1.0000
  C   C448      1.0  0.42473  0.21693  0.77484  1.0000
  S   S195      1.0  0.42454  0.06110  0.77179  1.0000
  S   S196      1.0  0.39848  0.10063  0.75867  1.0000
  Fe  Fe102     1.0  0.46767  0.12341  0.90383  1.0000
  S   S197      1.0  0.44088  0.08106  0.90219  1.0000
  S   S198      1.0  0.51009  0.14088  0.91085  1.0000
  Fe  Fe103     1.0  0.42453  0.14173  0.89543  1.0000
  S   S199      1.0  0.39447  0.10045  0.89314  1.0000
  S   S200      1.0  0.41440  0.17606  0.88915  1.0000
  Fe  Fe104     1.0  0.41139  0.09225  0.91359  1.0000
  S   S201      1.0  0.39381  0.07266  0.93476  1.0000
  Fe  Fe105     1.0  0.42626  0.09283  0.88200  1.0000
  S   S202      1.0  0.42610  0.07081  0.86161  1.0000
  S   S203      1.0  0.43935  0.13430  0.91636  1.0000
  S   S204      1.0  0.45500  0.13449  0.88307  1.0000
  C   C449      1.0  0.56666  0.45882  0.75774  1.0000
  C   C450      1.0  0.39726  0.08174  0.81708  1.0000
  C   C451      1.0  0.38133  0.07846  0.82894  1.0000
  C   C452      1.0  0.39013  0.07559  0.84264  1.0000
  C   C453      1.0  0.41509  0.07620  0.84465  1.0000
  C   C454      1.0  0.43092  0.07921  0.83277  1.0000
  C   C455      1.0  0.42216  0.08218  0.81906  1.0000
  H   H716      1.0  0.36193  0.07773  0.82748  1.0000
  H   H717      1.0  0.37739  0.07226  0.85161  1.0000
  H   H718      1.0  0.44999  0.07901  0.83414  1.0000
  H   H719      1.0  0.43453  0.08442  0.81000  1.0000
  H   H720      1.0  0.50711  0.20550  0.78578  1.0000
  H   H721      1.0  0.45144  0.42314  0.78219  1.0000
  H   H722      1.0  0.35427  0.27938  0.96566  1.0000
  H   H723      1.0  0.37376  0.32106  0.88538  1.0000
  H   H724      1.0  0.49531  0.15699  0.75656  1.0000
  S   S205      1.0  0.44257  0.32760  0.74747  1.0000
  H   H725      1.0  0.49254  0.41968  0.79087  1.0000
  H   H726      1.0  0.54067  0.16186  0.77639  1.0000
  C   C456      1.0  0.44939  0.25669  0.91075  1.0000
  C   C457      1.0  0.45527  0.23591  0.91602  1.0000
  C   C458      1.0  0.44495  0.21107  0.90944  1.0000
  C   C459      1.0  0.42861  0.20692  0.89758  1.0000
  C   C460      1.0  0.42309  0.22780  0.89223  1.0000
  C   C461      1.0  0.43354  0.25259  0.89872  1.0000
  H   H727      1.0  0.46762  0.23892  0.92528  1.0000
  H   H728      1.0  0.44940  0.19511  0.91361  1.0000
  H   H729      1.0  0.41062  0.22483  0.88302  1.0000
  H   H730      1.0  0.42933  0.26850  0.89434  1.0000
  C   C462      1.0  0.42313  0.33943  0.84671  1.0000
  C   C463      1.0  0.41678  0.32574  0.83379  1.0000
  C   C464      1.0  0.42392  0.33903  0.82079  1.0000
  C   C465      1.0  0.43704  0.36627  0.82059  1.0000
  C   C466      1.0  0.44333  0.38005  0.83352  1.0000
  C   C467      1.0  0.43659  0.36667  0.84656  1.0000
  H   H731      1.0  0.40632  0.30468  0.83380  1.0000
  H   H732      1.0  0.41896  0.32820  0.81092  1.0000
  H   H733      1.0  0.45344  0.40113  0.83345  1.0000
  H   H734      1.0  0.44146  0.37743  0.85645  1.0000
  C   C468      1.0  0.57538  0.46234  0.90428  1.0000
  C   C469      1.0  0.56068  0.47418  0.91106  1.0000
  C   C470      1.0  0.53394  0.46006  0.91310  1.0000
  C   C471      1.0  0.52146  0.43403  0.90832  1.0000
  C   C472      1.0  0.53603  0.42238  0.90125  1.0000
  C   C473      1.0  0.56288  0.43636  0.89940  1.0000
  H   H735      1.0  0.63577  0.48445  0.76814  1.0000
  H   H736      1.0  0.52286  0.46930  0.91856  1.0000
  H   H737      1.0  0.52660  0.40263  0.89722  1.0000
  H   H738      1.0  0.57402  0.42712  0.89402  1.0000
  C   C474      1.0  0.56751  0.45704  0.77252  1.0000
  H   H739      1.0  0.56201  0.20410  0.76439  1.0000
  Fe  Fe106     1.0  0.63946  0.12924  0.76043  1.0000
  H   H740      1.0  0.50988  0.18814  0.74813  1.0000
  C   C475      1.0  0.53379  0.41297  0.77136  1.0000
  C   C476      1.0  0.55153  0.43383  0.77924  1.0000
  H   H741      1.0  0.52118  0.39534  0.77668  1.0000
  H   H742      1.0  0.55250  0.43212  0.79065  1.0000
  H   H743      1.0  0.36573  0.35974  0.89302  1.0000
  C   C477      1.0  0.57527  0.11548  0.77215  1.0000
  C   C478      1.0  0.55061  0.10416  0.77818  1.0000
  C   C479      1.0  0.52906  0.10586  0.77132  1.0000
  C   C480      1.0  0.57201  0.08779  0.86208  1.0000
  H   H744      1.0  0.63616  0.10386  0.86760  1.0000
  H   H745      1.0  0.59176  0.11402  0.77755  1.0000
  H   H746      1.0  0.54821  0.09411  0.78826  1.0000
  C   C481      1.0  0.42978  0.19592  0.76919  1.0000
  C   C482      1.0  0.49690  0.45262  0.76984  1.0000
  H   H747      1.0  0.65463  0.42046  0.78124  1.0000
  H   H748      1.0  0.42194  0.17686  0.77421  1.0000
  C   C483      1.0  0.57156  0.10555  0.90657  1.0000
  C   C484      1.0  0.57859  0.13172  0.91060  1.0000
  C   C485      1.0  0.55956  0.14231  0.91164  1.0000
  C   C486      1.0  0.53345  0.12707  0.90841  1.0000
  C   C487      1.0  0.52652  0.10106  0.90408  1.0000
  C   C488      1.0  0.54547  0.09034  0.90329  1.0000
  H   H749      1.0  0.59857  0.14362  0.91320  1.0000
  H   H750      1.0  0.56511  0.16242  0.91504  1.0000
  H   H751      1.0  0.50655  0.08911  0.90150  1.0000
  H   H752      1.0  0.53985  0.07007  0.90016  1.0000
  C   C489      1.0  0.60689  0.11072  0.84597  1.0000
  C   C490      1.0  0.34755  0.31604  0.93800  1.0000
  C   C491      1.0  0.35868  0.30295  0.94686  1.0000
  H   H753      1.0  0.33233  0.33958  0.89514  1.0000
  H   H754      1.0  0.37763  0.30336  0.94443  1.0000
  H   H755      1.0  0.51560  0.12070  0.95721  1.0000
  H   H756      1.0  0.62609  0.41494  0.77071  1.0000
  C   C492      1.0  0.36075  0.05721  0.94009  1.0000
  C   C493      1.0  0.52507  0.16813  0.77985  1.0000
  H   H757      1.0  0.37052  0.06208  0.96237  1.0000
  H   H758      1.0  0.36961  0.34023  0.85567  1.0000
  N   N45       1.0  0.53111  0.35194  0.92262  1.0000
  C   C494      1.0  0.52706  0.34264  0.90776  1.0000
  C   C495      1.0  0.55594  0.37486  0.92393  1.0000
  C   C496      1.0  0.53158  0.33064  0.93195  1.0000
  C   C497      1.0  0.50973  0.35952  0.92687  1.0000
  H   H759      1.0  0.50845  0.32530  0.90644  1.0000
  H   H760      1.0  0.54277  0.33667  0.90417  1.0000
  H   H761      1.0  0.52637  0.35809  0.90041  1.0000
  H   H762      1.0  0.55958  0.38236  0.93502  1.0000
  H   H763      1.0  0.57253  0.36996  0.92071  1.0000
  H   H764      1.0  0.55611  0.39135  0.91712  1.0000
  H   H765      1.0  0.54744  0.32436  0.92906  1.0000
  H   H766      1.0  0.51309  0.31300  0.93114  1.0000
  H   H767      1.0  0.53425  0.33680  0.94327  1.0000
  H   H768      1.0  0.51228  0.36712  0.93793  1.0000
  H   H769      1.0  0.49086  0.34245  0.92633  1.0000
  H   H770      1.0  0.50825  0.37510  0.91987  1.0000
  N   N46       1.0  0.41754  0.15630  0.84720  1.0000
  C   C498      1.0  0.41888  0.14660  0.83275  1.0000
  C   C499      1.0  0.40365  0.13385  0.85655  1.0000
  C   C500      1.0  0.40359  0.17404  0.84676  1.0000
  C   C501      1.0  0.44403  0.17065  0.85280  1.0000
  H   H771      1.0  0.42931  0.16292  0.82536  1.0000
  H   H772      1.0  0.39924  0.13560  0.82816  1.0000
  H   H773      1.0  0.42909  0.13294  0.83279  1.0000
  H   H774      1.0  0.40082  0.14037  0.86728  1.0000
  H   H775      1.0  0.38415  0.12163  0.85222  1.0000
  H   H776      1.0  0.41459  0.12107  0.85797  1.0000
  H   H777      1.0  0.40247  0.18176  0.85755  1.0000
  H   H778      1.0  0.38342  0.16371  0.84275  1.0000
  H   H779      1.0  0.41341  0.19118  0.83975  1.0000
  H   H780      1.0  0.44369  0.17785  0.86379  1.0000
  H   H781      1.0  0.45497  0.18797  0.84614  1.0000
  H   H782      1.0  0.45514  0.15784  0.85317  1.0000
  H   H783      1.0  0.38200  0.22931  0.75906  1.0000
  H   H784      1.0  0.47608  0.13091  0.95477  1.0000
  H   H785      1.0  0.48912  0.46261  0.76191  1.0000
  H   H786      1.0  0.48090  0.09149  0.92390  1.0000
  H   H787      1.0  0.63939  0.44468  0.79866  1.0000
  C   C502      1.0  0.64640  0.42890  0.77272  1.0000
  C   C503      1.0  0.55703  0.13059  0.75237  1.0000
  H   H788      1.0  0.47920  0.06363  0.93406  1.0000
  C   C504      1.0  0.35499  0.05407  0.95468  1.0000
  C   C505      1.0  0.34685  0.35148  0.88725  1.0000
  H   H789      1.0  0.52850  0.16853  0.75121  1.0000
  C   C506      1.0  0.43469  0.24183  0.76845  1.0000
  H   H790      1.0  0.44946  0.11024  0.94387  1.0000
  N   N47       1.0  0.48035  0.09673  0.94640  1.0000
  H   H791      1.0  0.41295  0.21384  0.78422  1.0000
  H   H792      1.0  0.61659  0.45203  0.76222  1.0000
  C   C507      1.0  0.45480  0.22450  0.75063  1.0000
  C   C508      1.0  0.50889  0.10803  0.94766  1.0000
  H   H793      1.0  0.44738  0.07204  0.95827  1.0000
  C   C509      1.0  0.54654  0.21006  0.76845  1.0000
  H   H794      1.0  0.45103  0.07139  0.93223  1.0000
  H   H795      1.0  0.59405  0.49771  0.85089  1.0000
  C   C510      1.0  0.34034  0.04684  0.93032  1.0000
  H   H796      1.0  0.51676  0.09248  0.94826  1.0000
  H   H797      1.0  0.33126  0.19918  0.97359  1.0000
  C   C511      1.0  0.49819  0.44041  0.79436  1.0000
  H   H798      1.0  0.36982  0.28919  0.75188  1.0000
  H   H799      1.0  0.49308  0.48565  0.79945  1.0000
  C   C512      1.0  0.51362  0.17470  0.75582  1.0000
  H   H800      1.0  0.51794  0.12042  0.93829  1.0000
  C   C513      1.0  0.61524  0.09091  0.86722  1.0000
  H   H801      1.0  0.47551  0.06429  0.96019  1.0000
  H   H802      1.0  0.34030  0.30094  0.88773  1.0000
  H   H803      1.0  0.45760  0.26460  0.75128  1.0000
  C   C514      1.0  0.47092  0.11810  0.94522  1.0000
  H   H804      1.0  0.51835  0.46132  0.76903  1.0000
  H   H805      1.0  0.56102  0.46552  0.87498  1.0000
  C   C515      1.0  0.65864  0.09511  0.81991  1.0000
  S   S206      1.0  0.42679  0.26715  0.77584  1.0000
  H   H806      1.0  0.60341  0.09259  0.83972  1.0000
  C   C516      1.0  0.55259  0.47593  0.86767  1.0000
  C   C517      1.0  0.34532  0.28932  0.95891  1.0000
  S   S207      1.0  0.60923  0.47909  0.90157  1.0000
  C   C518      1.0  0.36730  0.22691  0.75057  1.0000
  H   H807      1.0  0.55970  0.09749  0.85748  1.0000
  C   C519      1.0  0.60528  0.12934  0.86891  1.0000
  H   H808      1.0  0.62606  0.14272  0.86815  1.0000
  N   N48       1.0  0.52175  0.18721  0.76985  1.0000
  C   C520      1.0  0.32929  0.04096  0.95943  1.0000
  C   C521      1.0  0.50178  0.19596  0.77521  1.0000
  C   C522      1.0  0.63222  0.45303  0.78965  1.0000
  H   H809      1.0  0.56728  0.06889  0.85637  1.0000
  N   N49       1.0  0.59983  0.10469  0.86102  1.0000
  C   C523      1.0  0.46894  0.08071  0.95903  1.0000
  H   H810      1.0  0.61301  0.07309  0.86102  1.0000
  H   H811      1.0  0.60928  0.08450  0.87827  1.0000
  C   C524      1.0  0.45986  0.44437  0.78483  1.0000
  H   H812      1.0  0.47950  0.13085  0.93593  1.0000
  H   H813      1.0  0.51559  0.11972  0.75283  1.0000
  C   C525      1.0  0.44479  0.19959  0.75702  1.0000
  Fe  Fe107     1.0  0.65541  0.09953  0.78295  1.0000
  H   H814      1.0  0.52044  0.49178  0.78815  1.0000
  S   S208      1.0  0.50994  0.38913  0.74658  1.0000
  H   H815      1.0  0.62780  0.12349  0.84488  1.0000
  H   H816      1.0  0.64869  0.46918  0.75530  1.0000
  H   H817      1.0  0.34451  0.32336  0.98861  1.0000
  H   H818      1.0  0.54976  0.46607  0.85716  1.0000
  S   S209      1.0  0.58713  0.48360  0.78313  1.0000
  H   H819      1.0  0.34436  0.04886  0.91908  1.0000
  H   H820      1.0  0.55327  0.21999  0.77884  1.0000
  C   C526      1.0  0.53223  0.11877  0.75828  1.0000
  H   H821      1.0  0.47441  0.09268  0.96890  1.0000
  H   H822      1.0  0.51963  0.44943  0.79527  1.0000
  H   H823      1.0  0.56998  0.49406  0.91496  1.0000
  H   H824      1.0  0.34181  0.36818  0.88396  1.0000
  C   C527      1.0  0.54935  0.43761  0.74980  1.0000
  C   C528      1.0  0.53252  0.41484  0.75662  1.0000
  H   H825      1.0  0.53014  0.17645  0.79071  1.0000
  H   H826      1.0  0.50706  0.15003  0.78066  1.0000
  N   N50       1.0  0.48844  0.45511  0.78437  1.0000
  H   H827      1.0  0.57616  0.07975  0.75058  1.0000
  H   H828      1.0  0.48276  0.17922  0.77626  1.0000
  C   C529      1.0  0.44978  0.24555  0.75630  1.0000
  H   H829      1.0  0.49859  0.21016  0.76783  1.0000
  H   H830      1.0  0.35590  0.30103  0.87104  1.0000
  H   H831      1.0  0.38752  0.35994  0.87011  1.0000
  Fe  Fe108     1.0  0.41611  0.07326  0.75003  1.0000
  H   H832      1.0  0.33302  0.00319  0.98190  1.0000
  H   H833      1.0  0.53319  0.47306  0.87184  1.0000
  H   H834      1.0  0.61138  0.44046  0.78784  1.0000
  H   H835      1.0  0.35792  0.35836  0.99055  1.0000
  H   H836      1.0  0.45163  0.45446  0.77720  1.0000
  H   H837      1.0  0.45280  0.44609  0.79562  1.0000
  S   S210      1.0  0.45577  0.10597  0.74843  1.0000
  S   S211      1.0  0.65821  0.08804  0.89423  1.0000
  H   H838      1.0  0.34742  0.26071  0.76069  1.0000
  H   H839      1.0  0.63306  0.47261  0.79305  1.0000
  H   H840      1.0  0.34793  0.21660  0.75537  1.0000
  C   C530      1.0  0.63670  0.46557  0.76502  1.0000
  C   C531      1.0  0.49887  0.48307  0.78849  1.0000
  S   S212      1.0  0.60924  0.14268  0.75140  1.0000
  H   H841      1.0  0.57895  0.47663  0.75245  1.0000
  S   S213      1.0  0.45200  0.17387  0.74961  1.0000
  N   N51       1.0  0.64754  0.45509  0.77670  1.0000
  N   N52       1.0  0.34802  0.33546  0.87496  1.0000
  S   S214      1.0  0.64492  0.07824  0.80403  1.0000
  C   C532      1.0  0.36699  0.26935  0.75592  1.0000
  H   H842      1.0  0.38130  0.27209  0.76465  1.0000
  H   H843      1.0  0.36381  0.36863  0.86095  1.0000
  C   C533      1.0  0.65428  0.08133  0.83280  1.0000
  H   H844      1.0  0.57782  0.04841  0.74814  1.0000
  C   C534      1.0  0.36802  0.35183  0.86499  1.0000
  H   H845      1.0  0.64303  0.06041  0.83283  1.0000
  H   H846      1.0  0.41154  0.26889  0.74641  1.0000
  S   S215      1.0  0.66054  0.14863  0.89507  1.0000
  H   H847      1.0  0.49179  0.49471  0.78121  1.0000
  H   H848      1.0  0.65755  0.42985  0.76287  1.0000
  H   H849      1.0  0.60455  0.49712  0.86894  1.0000
  H   H850      1.0  0.54796  0.05243  0.74485  1.0000
  S   S216      1.0  0.39328  0.50487  0.10707  1.0000
  Fe  Fe109     1.0  0.58055  0.90686  0.08631  1.0000
  S   S217      1.0  0.55381  0.86477  0.08249  1.0000
  S   S218      1.0  0.60223  0.93538  0.06872  1.0000
  Fe  Fe110     1.0  0.56485  0.90412  0.11760  1.0000
  S   S219      1.0  0.53738  0.86191  0.11633  1.0000
  S   S220      1.0  0.57067  0.93100  0.13657  1.0000
  Fe  Fe111     1.0  0.56852  0.85671  0.10344  1.0000
  S   S221      1.0  0.58354  0.82484  0.10702  1.0000
  Fe  Fe112     1.0  0.52440  0.87316  0.09557  1.0000
  S   S222      1.0  0.48201  0.85549  0.08862  1.0000
  S   S223      1.0  0.59733  0.89826  0.10644  1.0000
  S   S224      1.0  0.54970  0.91579  0.09764  1.0000
  Fe  Fe113     1.0  0.35436  0.88590  0.09487  1.0000
  H   H851      1.0  0.33850  0.94356  0.16889  1.0000
  S   S225      1.0  0.39817  0.90656  0.09193  1.0000
  C   C535      1.0  0.44274  0.86694  0.24011  1.0000
  S   S226      1.0  0.56818  0.66694  0.21936  1.0000
  C   C536      1.0  0.65478  0.64587  0.01820  1.0000
  S   S227      1.0  0.53011  0.60916  0.23101  1.0000
  Fe  Fe114     1.0  0.53344  0.63315  0.21136  1.0000
  S   S228      1.0  0.52852  0.61270  0.19004  1.0000
  S   S229      1.0  0.50494  0.64933  0.21899  1.0000
  Fe  Fe115     1.0  0.56633  0.89687  0.21840  1.0000
  S   S230      1.0  0.52890  0.86175  0.22001  1.0000
  S   S231      1.0  0.58969  0.89711  0.19882  1.0000
  S   S232      1.0  0.54994  0.92588  0.22550  1.0000
  C   C537      1.0  0.35772  0.98817  0.07040  1.0000
  Fe  Fe116     1.0  0.57859  0.66810  0.07979  1.0000
  S   S233      1.0  0.53588  0.65635  0.07590  1.0000
  S   S234      1.0  0.60176  0.68790  0.06003  1.0000
  Fe  Fe117     1.0  0.56841  0.65563  0.11175  1.0000
  S   S235      1.0  0.52536  0.64313  0.10969  1.0000
  S   S236      1.0  0.58800  0.66334  0.13340  1.0000
  Fe  Fe118     1.0  0.52935  0.62183  0.09014  1.0000
  S   S237      1.0  0.50073  0.58283  0.08132  1.0000
  Fe  Fe119     1.0  0.53565  0.67842  0.09565  1.0000
  S   S238      1.0  0.51378  0.70501  0.09619  1.0000
  S   S239      1.0  0.57230  0.63197  0.09296  1.0000
  S   S240      1.0  0.57835  0.69238  0.09878  1.0000
  C   C538      1.0  0.47148  0.56070  0.08890  1.0000
  C   C539      1.0  0.45481  0.53955  0.08069  1.0000
  C   C540      1.0  0.43081  0.52218  0.08604  1.0000
  C   C541      1.0  0.42329  0.52577  0.09971  1.0000
  C   C542      1.0  0.44001  0.54691  0.10791  1.0000
  C   C543      1.0  0.46398  0.56424  0.10258  1.0000
  H   H852      1.0  0.46044  0.53659  0.07011  1.0000
  H   H853      1.0  0.51998  0.69585  0.16467  1.0000
  H   H854      1.0  0.47670  0.58020  0.10910  1.0000
  H   H855      1.0  0.50735  0.84986  0.17059  1.0000
  C   C544      1.0  0.63802  0.96521  0.12547  1.0000
  S   S241      1.0  0.36588  0.52744  0.22250  1.0000
  H   H856      1.0  0.58238  0.70768  0.14689  1.0000
  C   C545      1.0  0.54465  0.62807  0.17442  1.0000
  C   C546      1.0  0.56796  0.65014  0.17489  1.0000
  C   C547      1.0  0.58125  0.66047  0.16225  1.0000
  C   C548      1.0  0.57092  0.64944  0.14903  1.0000
  C   C549      1.0  0.54726  0.62787  0.14854  1.0000
  C   C550      1.0  0.53442  0.61700  0.16120  1.0000
  H   H857      1.0  0.57599  0.65902  0.18496  1.0000
  H   H858      1.0  0.59957  0.67716  0.16272  1.0000
  H   H859      1.0  0.53921  0.61907  0.13844  1.0000
  H   H860      1.0  0.51649  0.59983  0.16074  1.0000
  H   H861      1.0  0.48517  0.85739  0.19847  1.0000
  H   H862      1.0  0.47274  0.67955  0.23032  1.0000
  H   H863      1.0  0.54695  0.68636  0.16406  1.0000
  C   C551      1.0  0.41820  0.51742  0.20477  1.0000
  C   C552      1.0  0.56271  0.79171  0.10507  1.0000
  C   C553      1.0  0.53777  0.78415  0.09933  1.0000
  C   C554      1.0  0.52254  0.75742  0.09694  1.0000
  C   C555      1.0  0.53226  0.73826  0.10019  1.0000
  C   C556      1.0  0.55695  0.74591  0.10624  1.0000
  C   C557      1.0  0.57208  0.77249  0.10869  1.0000
  H   H864      1.0  0.53039  0.79890  0.09653  1.0000
  H   H865      1.0  0.50339  0.75167  0.09232  1.0000
  H   H866      1.0  0.56448  0.73143  0.10905  1.0000
  H   H867      1.0  0.59131  0.77827  0.11321  1.0000
  C   C558      1.0  0.58293  0.90591  0.18166  1.0000
  C   C559      1.0  0.57564  0.92706  0.17951  1.0000
  C   C560      1.0  0.57203  0.93459  0.16563  1.0000
  C   C561      1.0  0.57507  0.92068  0.15382  1.0000
  C   C562      1.0  0.58197  0.89928  0.15597  1.0000
  C   C563      1.0  0.58625  0.89220  0.16983  1.0000
  H   H868      1.0  0.57356  0.93808  0.18853  1.0000
  H   H869      1.0  0.56692  0.95132  0.16406  1.0000
  H   H870      1.0  0.58453  0.88850  0.14696  1.0000
  H   H871      1.0  0.59221  0.87602  0.17140  1.0000
  C   C564      1.0  0.45873  0.86949  0.09094  1.0000
  C   C565      1.0  0.43250  0.85408  0.08813  1.0000
  C   C566      1.0  0.41357  0.86484  0.08896  1.0000
  C   C567      1.0  0.42078  0.89136  0.09227  1.0000
  C   C568      1.0  0.44703  0.90678  0.09509  1.0000
  C   C569      1.0  0.46586  0.89585  0.09464  1.0000
  H   H872      1.0  0.42675  0.83368  0.08526  1.0000
  H   H873      1.0  0.39348  0.85277  0.08670  1.0000
  H   H874      1.0  0.45279  0.92730  0.09769  1.0000
  H   H875      1.0  0.48591  0.90794  0.09693  1.0000
  C   C570      1.0  0.39851  0.86478  0.24078  1.0000
  H   H876      1.0  0.57439  0.59297  0.22703  1.0000
  Fe  Fe120     1.0  0.53967  0.68223  0.22826  1.0000
  H   H877      1.0  0.60651  0.76693  0.04601  1.0000
  Fe  Fe121     1.0  0.56315  0.64397  0.23978  1.0000
  H   H878      1.0  0.59054  0.78668  0.08116  1.0000
  C   C571      1.0  0.63324  0.69400  0.05346  1.0000
  H   H879      1.0  0.64698  0.92365  0.07781  1.0000
  H   H880      1.0  0.59140  0.79282  0.06250  1.0000
  H   H881      1.0  0.44670  0.60562  0.22478  1.0000
  H   H882      1.0  0.62755  0.71414  0.03494  1.0000
  H   H883      1.0  0.40513  0.57617  0.21378  1.0000
  C   C572      1.0  0.63405  0.94375  0.06188  1.0000
  C   C573      1.0  0.42784  0.88959  0.22238  1.0000
  C   C574      1.0  0.59548  0.59068  0.19359  1.0000
  C   C575      1.0  0.39517  0.54792  0.23076  1.0000
  H   H884      1.0  0.62761  0.96586  0.04446  1.0000
  H   H885      1.0  0.60498  0.75252  0.09060  1.0000
  H   H886      1.0  0.59693  0.95404  0.10840  1.0000
  N   N53       1.0  0.44827  0.62255  0.07825  1.0000
  C   C576      1.0  0.43730  0.64265  0.07642  1.0000
  C   C577      1.0  0.46279  0.62157  0.06541  1.0000
  C   C578      1.0  0.42714  0.59662  0.08053  1.0000
  C   C579      1.0  0.46595  0.62944  0.09065  1.0000
  H   H887      1.0  0.42620  0.64383  0.08592  1.0000
  H   H888      1.0  0.42399  0.63826  0.06708  1.0000
  H   H889      1.0  0.45285  0.66248  0.07482  1.0000
  H   H890      1.0  0.47918  0.64066  0.06350  1.0000
  H   H891      1.0  0.47117  0.60644  0.06642  1.0000
  H   H892      1.0  0.45015  0.61659  0.05580  1.0000
  H   H893      1.0  0.43477  0.58097  0.08168  1.0000
  H   H894      1.0  0.41320  0.59091  0.07147  1.0000
  H   H895      1.0  0.41616  0.59631  0.09034  1.0000
  H   H896      1.0  0.45562  0.62957  0.10063  1.0000
  H   H897      1.0  0.48174  0.64919  0.08944  1.0000
  H   H898      1.0  0.47527  0.61523  0.09206  1.0000
  N   N54       1.0  0.59732  0.60117  0.20815  1.0000
  H   H899      1.0  0.51870  0.90290  0.19662  1.0000
  C   C580      1.0  0.59991  0.62869  0.20742  1.0000
  S   S242      1.0  0.33121  0.84874  0.10654  1.0000
  H   H900      1.0  0.61886  0.57948  0.21639  1.0000
  C   C581      1.0  0.62011  0.59997  0.21560  1.0000
  C   C582      1.0  0.36412  0.97382  0.09378  1.0000
  C   C583      1.0  0.65227  0.93587  0.06846  1.0000
  H   H901      1.0  0.49394  0.91289  0.19013  1.0000
  H   H902      1.0  0.47433  0.86516  0.16003  1.0000
  N   N55       1.0  0.63622  0.97976  0.11260  1.0000
  H   H903      1.0  0.61302  0.60207  0.18734  1.0000
  H   H904      1.0  0.46128  0.86807  0.19142  1.0000
  H   H905      1.0  0.40942  0.50837  0.21502  1.0000
  C   C584      1.0  0.43463  0.58781  0.23012  1.0000
  N   N56       1.0  0.51243  0.89821  0.05192  1.0000
  C   C585      1.0  0.50212  0.86933  0.05320  1.0000
  C   C586      1.0  0.50260  0.90545  0.03868  1.0000
  C   C587      1.0  0.54101  0.90872  0.05169  1.0000
  C   C588      1.0  0.50394  0.90932  0.06417  1.0000
  H   H906      1.0  0.48066  0.86080  0.05424  1.0000
  H   H907      1.0  0.50997  0.86320  0.06281  1.0000
  H   H908      1.0  0.50724  0.86011  0.04389  1.0000
  H   H909      1.0  0.50995  0.92713  0.03743  1.0000
  H   H910      1.0  0.50874  0.89748  0.02920  1.0000
  H   H911      1.0  0.48106  0.89770  0.03855  1.0000
  H   H912      1.0  0.54963  0.93049  0.05088  1.0000
  H   H913      1.0  0.54827  0.90075  0.04265  1.0000
  H   H914      1.0  0.54897  0.90360  0.06157  1.0000
  H   H915      1.0  0.51101  0.90417  0.07432  1.0000
  H   H916      1.0  0.48244  0.90156  0.06482  1.0000
  H   H917      1.0  0.51132  0.93107  0.06364  1.0000
  H   H918      1.0  0.56450  0.74555  0.05824  1.0000
  C   C589      1.0  0.61600  0.76171  0.05525  1.0000
  H   H919      1.0  0.63609  0.64815  0.01670  1.0000
  H   H920      1.0  0.61715  0.64106  0.20124  1.0000
  H   H921      1.0  0.59325  0.56983  0.19368  1.0000
  H   H922      1.0  0.52290  0.92009  0.18007  1.0000
  H   H923      1.0  0.46876  0.89164  0.16835  1.0000
  H   H924      1.0  0.61615  0.73416  0.07861  1.0000
  C   C590      1.0  0.40348  0.88084  0.22881  1.0000
  C   C591      1.0  0.60886  0.97524  0.10988  1.0000
  H   H925      1.0  0.62104  0.80219  0.07256  1.0000
  C   C592      1.0  0.41106  0.57112  0.22393  1.0000
  N   N57       1.0  0.54682  0.71364  0.14783  1.0000
  C   C593      1.0  0.57502  0.72349  0.14546  1.0000
  C   C594      1.0  0.53325  0.69257  0.13751  1.0000
  C   C595      1.0  0.53799  0.73533  0.14597  1.0000
  C   C596      1.0  0.54103  0.70312  0.16240  1.0000
  H   H926      1.0  0.58591  0.73952  0.15301  1.0000
  H   H927      1.0  0.63633  0.77632  0.05594  1.0000
  H   H928      1.0  0.37401  0.51143  0.19138  1.0000
  H   H929      1.0  0.51196  0.68434  0.13910  1.0000
  H   H930      1.0  0.53685  0.69982  0.12640  1.0000
  Fe  Fe122     1.0  0.50483  0.62840  0.23936  1.0000
  H   H931      1.0  0.54213  0.74380  0.13511  1.0000
  H   H932      1.0  0.54781  0.75154  0.15363  1.0000
  H   H933      1.0  0.51676  0.72857  0.14759  1.0000
  C   C597      1.0  0.64090  0.70780  0.04061  1.0000
  H   H934      1.0  0.40544  0.98954  0.06599  1.0000
  H   H935      1.0  0.54120  0.81041  0.22401  1.0000
  S   S243      1.0  0.47743  0.89352  0.21917  1.0000
  H   H936      1.0  0.43143  0.90178  0.21302  1.0000
  H   H937      1.0  0.41530  0.53608  0.20377  1.0000
  S   S244      1.0  0.58028  0.89227  0.24046  1.0000
  C   C598      1.0  0.48368  0.69367  0.23875  1.0000
  H   H938      1.0  0.65589  0.68068  0.99795  1.0000
  H   H939      1.0  0.34290  0.96299  0.09526  1.0000
  H   H940      1.0  0.64510  0.67497  0.07040  1.0000
  H   H941      1.0  0.63838  0.61184  0.21007  1.0000
  C   C599      1.0  0.64142  0.95954  0.04966  1.0000
  Fe  Fe123     1.0  0.34232  0.87367  0.24111  1.0000
  H   H942      1.0  0.43443  0.54975  0.11853  1.0000
  H   H943      1.0  0.49825  0.89805  0.15889  1.0000
  S   S245      1.0  0.54295  0.72280  0.22119  1.0000
  N   N58       1.0  0.60187  0.76076  0.06853  1.0000
  H   H944      1.0  0.52683  0.86757  0.18537  1.0000
  C   C600      1.0  0.51604  0.86946  0.17572  1.0000
  C   C601      1.0  0.44754  0.88270  0.22799  1.0000
  C   C602      1.0  0.54124  0.79384  0.23008  1.0000
  H   H945      1.0  0.53985  0.67612  0.13846  1.0000
  N   N59       1.0  0.49619  0.87976  0.17924  1.0000
  H   H946      1.0  0.63537  0.94931  0.09823  1.0000
  S   S246      1.0  0.35586  0.91714  0.23814  1.0000
  H   H947      1.0  0.53049  0.88268  0.16826  1.0000
  H   H948      1.0  0.33635  0.97843  0.07166  1.0000
  H   H949      1.0  0.58260  0.63013  0.20230  1.0000
  H   H950      1.0  0.50247  0.69163  0.24026  1.0000
  H   H951      1.0  0.60035  0.98186  0.11895  1.0000
  C   C603      1.0  0.65066  0.68566  0.06054  1.0000
  H   H952      1.0  0.65284  0.61237  0.99702  1.0000
  H   H953      1.0  0.56389  0.73959  0.07696  1.0000
  C   C604      1.0  0.36340  0.94746  0.07330  1.0000
  H   H954      1.0  0.37413  0.96386  0.10038  1.0000
  H   H955      1.0  0.61680  0.74237  0.05291  1.0000
  H   H956      1.0  0.54290  0.77170  0.21161  1.0000
  H   H957      1.0  0.57488  0.72102  0.06514  1.0000
  H   H958      1.0  0.60654  0.98552  0.10014  1.0000
  C   C605      1.0  0.39947  0.98848  0.07727  1.0000
  H   H959      1.0  0.43938  0.52247  0.20557  1.0000
  Fe  Fe124     1.0  0.54161  0.85870  0.24235  1.0000
  C   C606      1.0  0.48381  0.88381  0.16604  1.0000
  H   H960      1.0  0.62175  0.60779  0.22664  1.0000
  S   S247      1.0  0.33815  0.91038  0.10755  1.0000
  H   H961      1.0  0.63002  0.97142  0.13491  1.0000
  H   H962      1.0  0.57101  0.56458  0.21679  1.0000
  C   C607      1.0  0.54223  0.77185  0.22308  1.0000
  H   H963      1.0  0.46661  0.84150  0.18305  1.0000
  H   H964      1.0  0.43926  0.51797  0.17926  1.0000
  Fe  Fe125     1.0  0.51323  0.89030  0.22862  1.0000
  C   C608      1.0  0.40289  0.54162  0.24392  1.0000
  C   C609      1.0  0.50850  0.90503  0.18681  1.0000
  H   H965      1.0  0.38846  0.88630  0.22436  1.0000
  C   C610      1.0  0.57513  0.74091  0.06714  1.0000
  H   H966      1.0  0.55140  0.71827  0.17052  1.0000
  H   H967      1.0  0.65041  0.62551  0.02189  1.0000
  H   H968      1.0  0.36852  0.94709  0.06197  1.0000
  H   H969      1.0  0.64521  0.98095  0.09035  1.0000
  H   H970      1.0  0.41820  0.50600  0.07962  1.0000
  C   C611      1.0  0.47642  0.86078  0.18840  1.0000
  H   H971      1.0  0.37280  0.93641  0.07946  1.0000
  C   C612      1.0  0.54246  0.75016  0.23074  1.0000
  C   C613      1.0  0.57364  0.58548  0.21600  1.0000
  H   H972      1.0  0.58007  0.73121  0.13451  1.0000
  H   H973      1.0  0.43232  0.67784  0.24156  1.0000
  N   N60       1.0  0.37118  0.97451  0.07868  1.0000
  C   C614      1.0  0.60122  0.78674  0.07128  1.0000
  H   H974      1.0  0.63540  0.76817  0.08180  1.0000
  C   C615      1.0  0.61518  0.75362  0.08042  1.0000
  H   H975      1.0  0.41488  0.53126  0.17772  1.0000
  H   H976      1.0  0.34220  0.93637  0.07412  1.0000
  C   C616      1.0  0.41801  0.51280  0.17931  1.0000
  H   H977      1.0  0.60202  0.63748  0.21820  1.0000
  H   H978      1.0  0.55606  0.58610  0.21070  1.0000
  H   H979      1.0  0.57848  0.59167  0.18776  1.0000
  C   C617      1.0  0.44199  0.58189  0.24346  1.0000
  H   H980      1.0  0.65837  0.96812  0.12795  1.0000
  S   S248      1.0  0.33751  0.92750  0.19808  1.0000
  H   H981      1.0  0.40997  0.97822  0.08328  1.0000
  C   C618      1.0  0.33148  0.90956  0.18199  1.0000
  H   H982      1.0  0.62666  0.94377  0.12426  1.0000
  C   C619      1.0  0.33277  0.92252  0.16899  1.0000
  Fe  Fe126     1.0  0.32848  0.90655  0.21932  1.0000
  H   H983      1.0  0.36930  0.99387  0.09816  1.0000
  H   H984      1.0  0.48819  0.71382  0.23462  1.0000
  H   H985      1.0  0.36169  0.98818  0.05886  1.0000
  C   C620      1.0  0.64649  0.97054  0.10028  1.0000
  N   N61       1.0  0.40631  0.49974  0.19268  1.0000
  H   H986      1.0  0.45782  0.86148  0.24447  1.0000
  H   H987      1.0  0.40944  0.49993  0.16997  1.0000
  H   H988      1.0  0.32802  0.98363  0.99775  1.0000
  H   H989      1.0  0.47425  0.70512  0.27320  1.0000
  C   C621      1.0  0.36009  0.98602  0.26837  1.0000
  S   S249      1.0  0.52236  0.88424  0.25115  1.0000
  H   H990      1.0  0.41445  0.84547  0.25572  1.0000
  H   H991      1.0  0.62266  0.88662  0.29779  1.0000
  H   H992      1.0  0.60366  0.60862  0.34211  1.0000
  H   H993      1.0  0.33284  0.95854  0.29952  1.0000
  H   H994      1.0  0.39973  0.91443  0.25469  1.0000
  N   N62       1.0  0.40077  0.92912  0.27589  1.0000
  C   C622      1.0  0.41078  0.91683  0.26481  1.0000
  S   S250      1.0  0.56903  0.94732  0.26648  1.0000
  H   H995      1.0  0.37120  0.89250  0.28247  1.0000
  H   H996      1.0  0.54017  0.77302  0.26406  1.0000
  H   H997      1.0  0.61462  0.60682  0.35987  1.0000
  H   H998      1.0  0.60522  0.92311  0.26911  1.0000
  Fe  Fe127     1.0  0.62497  0.52660  0.33471  1.0000
  H   H999      1.0  0.56022  0.89419  0.27466  1.0000
  S   S251      1.0  0.36794  0.85357  0.24889  1.0000
  Fe  Fe128     1.0  0.63592  0.58180  0.32214  1.0000
  H   H1000     1.0  0.61329  0.65133  0.33078  1.0000
  S   S252      1.0  0.61485  0.56016  0.34147  1.0000
  C   C623      1.0  0.59515  0.97321  0.27499  1.0000
  H   H1001     1.0  0.39037  0.95351  0.26141  1.0000
  H   H1002     1.0  0.64867  0.63701  0.33535  1.0000
  H   H1003     1.0  0.39591  0.96526  0.27932  1.0000
  H   H1004     1.0  0.63935  0.60590  0.40142  1.0000
  C   C624      1.0  0.60758  0.61857  0.35264  1.0000
  C   C625      1.0  0.60051  0.62528  0.26609  1.0000
  C   C626      1.0  0.61950  0.61527  0.26914  1.0000
  S   S253      1.0  0.46996  0.60389  0.25223  1.0000
  C   C627      1.0  0.60896  0.61186  0.29428  1.0000
  C   C628      1.0  0.58993  0.62179  0.29121  1.0000
  C   C629      1.0  0.58553  0.62822  0.27720  1.0000
  H   H1005     1.0  0.63842  0.60098  0.28531  1.0000
  H   H1006     1.0  0.58880  0.61765  0.35680  1.0000
  H   H1007     1.0  0.57853  0.62460  0.29973  1.0000
  H   H1008     1.0  0.57091  0.63593  0.27506  1.0000
  H   H1009     1.0  0.42284  0.96817  0.26834  1.0000
  S   S254      1.0  0.53850  0.82151  0.25406  1.0000
  H   H1010     1.0  0.65120  0.66304  0.46176  1.0000
  C   C630      1.0  0.42600  0.55882  0.25036  1.0000
  H   H1011     1.0  0.61300  0.65884  0.37006  1.0000
  H   H1012     1.0  0.43294  0.68853  0.25959  1.0000
  C   C631      1.0  0.62357  0.60838  0.28312  1.0000
  H   H1013     1.0  0.57872  0.90374  0.30544  1.0000
  S   S255      1.0  0.64430  0.54737  0.31471  1.0000
  H   H1014     1.0  0.58469  0.92795  0.29187  1.0000
  H   H1015     1.0  0.62553  0.97136  0.26188  1.0000
  H   H1016     1.0  0.61433  0.89583  0.26681  1.0000
  H   H1017     1.0  0.61137  0.92572  0.30150  1.0000
  H   H1018     1.0  0.50337  0.70601  0.26508  1.0000
  C   C632      1.0  0.62095  0.98072  0.27089  1.0000
  N   N63       1.0  0.46913  0.68892  0.25214  1.0000
  H   H1019     1.0  0.48203  0.65898  0.25909  1.0000
  H   H1020     1.0  0.43151  0.55423  0.26073  1.0000
  H   H1021     1.0  0.43697  0.94497  0.28728  1.0000
  H   H1022     1.0  0.45237  0.64704  0.24913  1.0000
  H   H1023     1.0  0.63159  0.92141  0.27929  1.0000
  H   H1024     1.0  0.35958  0.98164  0.25716  1.0000
  C   C633      1.0  0.41818  0.85785  0.24643  1.0000
  C   C634      1.0  0.61209  0.90946  0.27485  1.0000
  C   C635      1.0  0.46380  0.66201  0.25711  1.0000
  C   C636      1.0  0.36135  0.99806  0.29738  1.0000
  H   H1025     1.0  0.36505  0.92119  0.28690  1.0000
  H   H1026     1.0  0.55371  0.86906  0.28778  1.0000
  C   C637      1.0  0.61672  0.66048  0.34156  1.0000
  H   H1027     1.0  0.64580  0.67888  0.36528  1.0000
  C   C638      1.0  0.44445  0.69200  0.24969  1.0000
  C   C639      1.0  0.37343  0.91232  0.27875  1.0000
  S   S256      1.0  0.53762  0.66237  0.24947  1.0000
  H   H1028     1.0  0.40922  0.89692  0.26802  1.0000
  S   S257      1.0  0.61457  0.60566  0.31231  1.0000
  C   C640      1.0  0.59212  0.91389  0.29672  1.0000
  C   C641      1.0  0.65678  0.62253  0.39870  1.0000
  C   C642      1.0  0.60309  0.87636  0.29298  1.0000
  H   H1029     1.0  0.58980  0.86523  0.30155  1.0000
  C   C643      1.0  0.56798  0.88058  0.27972  1.0000
  C   C644      1.0  0.40261  0.95515  0.27101  1.0000
  H   H1030     1.0  0.63069  0.68114  0.34036  1.0000
  C   C645      1.0  0.48467  0.70799  0.26296  1.0000
  H   H1031     1.0  0.63131  0.61305  0.26067  1.0000
  H   H1032     1.0  0.56861  0.86664  0.27139  1.0000
  H   H1033     1.0  0.39073  0.52385  0.24930  1.0000
  N   N64       1.0  0.62667  0.64589  0.35150  1.0000
  Fe  Fe129     1.0  0.65378  0.57744  0.35247  1.0000
  C   C646      1.0  0.41625  0.93222  0.28904  1.0000
  N   N65       1.0  0.59383  0.89508  0.28608  1.0000
  C   C647      1.0  0.34506  0.97310  0.29221  1.0000
  C   C648      1.0  0.34429  0.96692  0.27770  1.0000
  H   H1034     1.0  0.60429  0.86176  0.28522  1.0000
  H   H1035     1.0  0.40910  0.94137  0.29763  1.0000
  S   S258      1.0  0.59690  0.63474  0.24837  1.0000
  H   H1036     1.0  0.36121  0.90950  0.26906  1.0000
  H   H1037     1.0  0.54256  0.73442  0.25159  1.0000
  H   H1038     1.0  0.41538  0.91296  0.29300  1.0000
  H   H1039     1.0  0.59804  0.66069  0.34521  1.0000
  C   C649      1.0  0.63112  0.65838  0.36566  1.0000
  C   C650      1.0  0.54059  0.77266  0.25259  1.0000
  C   C651      1.0  0.58970  0.98585  0.28671  1.0000
  H   H1040     1.0  0.63838  0.64749  0.37336  1.0000
  H   H1041     1.0  0.56986  0.98025  0.29001  1.0000
  H   H1042     1.0  0.45272  0.65747  0.26716  1.0000
  S   S259      1.0  0.65381  0.59474  0.37453  1.0000
  Fe  Fe130     1.0  0.56044  0.91842  0.24779  1.0000
  C   C652      1.0  0.65131  0.64600  0.34610  1.0000
  H   H1043     1.0  0.43146  0.92875  0.26244  1.0000
  H   H1044     1.0  0.48936  0.72855  0.25945  1.0000
  H   H1045     1.0  0.65785  0.70918  0.45702  1.0000
  H   H1046     1.0  0.65918  0.63477  0.35321  1.0000
  H   H1047     1.0  0.65686  0.64293  0.41805  1.0000
  C   C653      1.0  0.54179  0.75071  0.24557  1.0000
  H   H1048     1.0  0.33323  0.99885  0.39582  1.0000
  H   H1049     1.0  0.44784  0.71212  0.24588  1.0000
  C   C654      1.0  0.54032  0.79435  0.24488  1.0000
  C   C655      1.0  0.41516  0.92955  0.70900  1.0000
  H   H1050     1.0  0.36766  0.94646  0.72225  1.0000
  Fe  Fe131     1.0  0.34042  0.89142  0.66905  1.0000
  H   H1051     1.0  0.61676  0.68307  0.59865  1.0000
  S   S260      1.0  0.37468  0.87885  0.67172  1.0000
  N   N66       1.0  0.38901  0.92993  0.70945  1.0000
  C   C656      1.0  0.64943  0.70140  0.62988  1.0000
  H   H1052     1.0  0.58044  0.87100  0.63759  1.0000
  Fe  Fe132     1.0  0.53151  0.91871  0.66408  1.0000
  S   S261      1.0  0.53758  0.90564  0.68587  1.0000
  S   S262      1.0  0.49581  0.92713  0.65751  1.0000
  Fe  Fe133     1.0  0.58710  0.92655  0.65476  1.0000
  S   S263      1.0  0.59628  0.91509  0.67641  1.0000
  S   S264      1.0  0.61550  0.92632  0.63727  1.0000
  Fe  Fe134     1.0  0.55721  0.88191  0.67531  1.0000
  S   S265      1.0  0.56050  0.84499  0.68464  1.0000
  Fe  Fe135     1.0  0.57639  0.93965  0.68552  1.0000
  S   S266      1.0  0.58571  0.95947  0.70739  1.0000
  S   S267      1.0  0.54827  0.89234  0.65336  1.0000
  S   S268      1.0  0.56987  0.95390  0.66396  1.0000
  Fe  Fe136     1.0  0.57795  0.66993  0.64880  1.0000
  S   S269      1.0  0.58810  0.70022  0.66624  1.0000
  S   S270      1.0  0.59620  0.67207  0.62686  1.0000
  Fe  Fe137     1.0  0.52596  0.63392  0.66318  1.0000
  S   S271      1.0  0.53259  0.66277  0.68105  1.0000
  S   S272      1.0  0.49622  0.59082  0.66350  1.0000
  Fe  Fe138     1.0  0.54640  0.69534  0.66481  1.0000
  S   S273      1.0  0.53215  0.72851  0.66083  1.0000
  Fe  Fe139     1.0  0.57374  0.66536  0.68128  1.0000
  S   S274      1.0  0.58905  0.66263  0.70364  1.0000
  S   S275      1.0  0.53658  0.66603  0.64683  1.0000
  S   S276      1.0  0.56684  0.63565  0.66392  1.0000
  C   C657      1.0  0.55255  0.81279  0.67770  1.0000
  C   C658      1.0  0.56446  0.79694  0.68366  1.0000
  C   C659      1.0  0.55879  0.77129  0.67856  1.0000
  C   C660      1.0  0.54080  0.76097  0.66753  1.0000
  C   C661      1.0  0.52893  0.77687  0.66157  1.0000
  C   C662      1.0  0.53474  0.80257  0.66659  1.0000
  H   H1053     1.0  0.57813  0.80446  0.69233  1.0000
  H   H1054     1.0  0.56800  0.75933  0.68332  1.0000
  H   H1055     1.0  0.51481  0.76905  0.65312  1.0000
  H   H1056     1.0  0.52497  0.81420  0.66205  1.0000
  C   C663      1.0  0.40921  0.53587  0.65870  1.0000
  C   C664      1.0  0.42786  0.52610  0.66263  1.0000
  C   C665      1.0  0.45421  0.54322  0.66407  1.0000
  C   C666      1.0  0.46242  0.57042  0.66177  1.0000
  C   C667      1.0  0.44381  0.58024  0.65787  1.0000
  C   C668      1.0  0.41750  0.56308  0.65630  1.0000
  S   S277      1.0  0.63076  0.58083  0.73145  1.0000
  H   H1057     1.0  0.46830  0.53521  0.66699  1.0000
  H   H1058     1.0  0.44958  0.60102  0.65607  1.0000
  H   H1059     1.0  0.40334  0.57095  0.65327  1.0000
  C   C669      1.0  0.40883  0.89395  0.66901  1.0000
  C   C670      1.0  0.42412  0.87967  0.67228  1.0000
  C   C671      1.0  0.45090  0.88987  0.66937  1.0000
  C   C672      1.0  0.46275  0.91440  0.66291  1.0000
  C   C673      1.0  0.44752  0.92887  0.65986  1.0000
  C   C674      1.0  0.42086  0.91893  0.66306  1.0000
  H   H1060     1.0  0.41513  0.86032  0.67687  1.0000
  H   H1061     1.0  0.46221  0.87839  0.67172  1.0000
  H   H1062     1.0  0.45648  0.94791  0.65491  1.0000
  H   H1063     1.0  0.40964  0.93044  0.66064  1.0000
  H   H1064     1.0  0.63809  0.85624  0.63220  1.0000
  H   H1065     1.0  0.38537  0.92887  0.68674  1.0000
  H   H1066     1.0  0.34960  0.90269  0.71182  1.0000
  C   C675      1.0  0.61908  0.60379  0.72408  1.0000
  C   C676      1.0  0.61300  0.62140  0.73241  1.0000
  C   C677      1.0  0.60425  0.63950  0.72595  1.0000
  C   C678      1.0  0.60121  0.64008  0.71112  1.0000
  C   C679      1.0  0.60730  0.62245  0.70280  1.0000
  C   C680      1.0  0.61617  0.60447  0.70925  1.0000
  C   C681      1.0  0.35224  0.86679  0.62767  1.0000
  H   H1067     1.0  0.59975  0.65313  0.73250  1.0000
  H   H1068     1.0  0.60543  0.62284  0.69138  1.0000
  H   H1069     1.0  0.39224  0.93978  0.73168  1.0000
  C   C682      1.0  0.63285  0.69190  0.60592  1.0000
  C   C683      1.0  0.59254  0.88286  0.73618  1.0000
  H   H1070     1.0  0.39736  0.96124  0.69434  1.0000
  H   H1071     1.0  0.56388  0.90410  0.72165  1.0000
  S   S278      1.0  0.37561  0.51522  0.65630  1.0000
  C   C684      1.0  0.62832  0.68995  0.62065  1.0000
  C   C685      1.0  0.59746  0.82004  0.64553  1.0000
  H   H1072     1.0  0.60739  0.88122  0.70141  1.0000
  H   H1073     1.0  0.58747  0.80750  0.63633  1.0000
  H   H1074     1.0  0.62337  0.87477  0.71670  1.0000
  H   H1075     1.0  0.36989  0.88993  0.70249  1.0000
  C   C686      1.0  0.64126  0.94974  0.62735  1.0000
  H   H1076     1.0  0.41683  0.91711  0.70008  1.0000
  H   H1077     1.0  0.60988  0.84648  0.62083  1.0000
  H   H1078     1.0  0.37871  0.88620  0.60387  1.0000
  C   C687      1.0  0.57103  0.89107  0.71561  1.0000
  H   H1079     1.0  0.64640  0.69996  0.64121  1.0000
  H   H1080     1.0  0.39354  0.91968  0.60975  1.0000
  N   N67       1.0  0.37477  0.89192  0.62613  1.0000
  N   N68       1.0  0.50692  0.59847  0.62047  1.0000
  C   C688      1.0  0.49238  0.61409  0.62531  1.0000
  C   C689      1.0  0.51031  0.60118  0.60495  1.0000
  C   C690      1.0  0.49240  0.57060  0.62412  1.0000
  C   C691      1.0  0.53262  0.60808  0.62750  1.0000
  H   H1081     1.0  0.48981  0.61284  0.63702  1.0000
  H   H1082     1.0  0.47269  0.60706  0.62045  1.0000
  H   H1083     1.0  0.50259  0.63519  0.62260  1.0000
  H   H1084     1.0  0.52119  0.58962  0.60093  1.0000
  H   H1085     1.0  0.49131  0.59426  0.59929  1.0000
  H   H1086     1.0  0.52138  0.62201  0.60190  1.0000
  H   H1087     1.0  0.48975  0.56790  0.63579  1.0000
  H   H1088     1.0  0.50267  0.55816  0.62057  1.0000
  H   H1089     1.0  0.47272  0.56278  0.61921  1.0000
  H   H1090     1.0  0.54420  0.59682  0.62411  1.0000
  H   H1091     1.0  0.53085  0.60637  0.63923  1.0000
  H   H1092     1.0  0.54416  0.62908  0.62499  1.0000
  S   S279      1.0  0.34309  0.93263  0.66603  1.0000
  H   H1093     1.0  0.49719  0.60388  0.71184  1.0000
  H   H1094     1.0  0.61848  0.88462  0.65421  1.0000
  C   C692      1.0  0.57735  0.85046  0.64037  1.0000
  H   H1095     1.0  0.58493  0.81218  0.65491  1.0000
  H   H1096     1.0  0.61579  0.81732  0.64757  1.0000
  H   H1097     1.0  0.62291  0.87867  0.62850  1.0000
  H   H1098     1.0  0.59017  0.85417  0.71269  1.0000
  C   C693      1.0  0.36955  0.90297  0.71140  1.0000
  C   C694      1.0  0.37658  0.90085  0.61125  1.0000
  H   H1099     1.0  0.41594  0.90705  0.63007  1.0000
  H   H1100     1.0  0.43024  0.94962  0.70746  1.0000
  H   H1101     1.0  0.35038  0.85961  0.63884  1.0000
  H   H1102     1.0  0.60285  0.85664  0.66527  1.0000
  H   H1103     1.0  0.60933  0.93278  0.72704  1.0000
  H   H1104     1.0  0.57312  0.89782  0.70445  1.0000
  H   H1105     1.0  0.63398  0.86242  0.65792  1.0000
  H   H1106     1.0  0.61812  0.92686  0.70964  1.0000
  H   H1107     1.0  0.40239  0.87432  0.62295  1.0000
  C   C695      1.0  0.61498  0.86356  0.65566  1.0000
  H   H1108     1.0  0.63722  0.98421  0.63538  1.0000
  H   H1109     1.0  0.36370  0.98511  0.69147  1.0000
  C   C696      1.0  0.61905  0.85766  0.63058  1.0000
  C   C697      1.0  0.33958  0.98232  0.72461  1.0000
  C   C698      1.0  0.61542  0.91924  0.72071  1.0000
  H   H1110     1.0  0.41987  0.92158  0.71899  1.0000
  H   H1111     1.0  0.52779  0.62652  0.70539  1.0000
  H   H1112     1.0  0.39720  0.88001  0.64108  1.0000
  C   C699      1.0  0.34108  0.97478  0.71050  1.0000
  H   H1113     1.0  0.35378  0.91523  0.63260  1.0000
  C   C700      1.0  0.38748  0.94661  0.72135  1.0000
  H   H1114     1.0  0.35398  0.85123  0.62084  1.0000
  H   H1115     1.0  0.50314  0.60688  0.69313  1.0000
  C   C701      1.0  0.64789  0.97680  0.62834  1.0000
  H   H1116     1.0  0.55699  0.61069  0.69365  1.0000
  H   H1117     1.0  0.36379  0.94023  0.69581  1.0000
  H   H1118     1.0  0.56485  0.84505  0.64990  1.0000
  C   C702      1.0  0.60792  0.99058  0.71351  1.0000
  C   C703      1.0  0.39863  0.88822  0.63019  1.0000
  H   H1119     1.0  0.35894  0.90410  0.60795  1.0000
  H   H1120     1.0  0.55210  0.57671  0.69420  1.0000
  N   N69       1.0  0.60222  0.84789  0.64304  1.0000
  C   C704      1.0  0.36241  0.99020  0.70242  1.0000
  C   C705      1.0  0.60469  0.87480  0.71270  1.0000
  H   H1121     1.0  0.55582  0.87081  0.71570  1.0000
  N   N70       1.0  0.52259  0.58602  0.70441  1.0000
  C   C706      1.0  0.53493  0.58700  0.71844  1.0000
  C   C707      1.0  0.50129  0.56012  0.70228  1.0000
  C   C708      1.0  0.54205  0.59040  0.69321  1.0000
  C   C709      1.0  0.51220  0.60672  0.70367  1.0000
  H   H1122     1.0  0.52081  0.58350  0.72718  1.0000
  H   H1123     1.0  0.55081  0.60653  0.72034  1.0000
  H   H1124     1.0  0.54363  0.57212  0.71931  1.0000
  H   H1125     1.0  0.49146  0.55908  0.69182  1.0000
  H   H1126     1.0  0.50851  0.54407  0.70254  1.0000
  H   H1127     1.0  0.48627  0.55602  0.71059  1.0000
  H   H1128     1.0  0.53313  0.58770  0.68246  1.0000
  H   H1129     1.0  0.62094  0.59105  0.70268  1.0000
  H   H1130     1.0  0.59125  0.98469  0.73439  1.0000
  N   N71       1.0  0.59595  0.89199  0.72132  1.0000
  C   C710      1.0  0.38370  0.94056  0.69597  1.0000
  H   H1131     1.0  0.56635  0.83772  0.63146  1.0000
  H   H1132     1.0  0.40094  0.96746  0.71992  1.0000
  H   H1133     1.0  0.61099  0.88332  0.74085  1.0000
  H   H1134     1.0  0.58583  0.89541  0.74291  1.0000
  H   H1135     1.0  0.36978  0.90556  0.64670  1.0000
  H   H1136     1.0  0.37298  0.89416  0.72143  1.0000
  H   H1137     1.0  0.38832  0.93100  0.63475  1.0000
  C   C711      1.0  0.37154  0.91183  0.63543  1.0000
  C   C712      1.0  0.65539  0.94062  0.61801  1.0000
  H   H1138     1.0  0.42196  0.50530  0.66448  1.0000
  C   C713      1.0  0.60620  0.99786  0.72765  1.0000
  H   H1139     1.0  0.65052  0.91983  0.61704  1.0000
  H   H1140     1.0  0.57791  0.86236  0.73696  1.0000
  H   H1141     1.0  0.61527  0.62128  0.74382  1.0000
  H   H1142     1.0  0.33385  0.86885  0.62476  1.0000
  H   H1143     1.0  0.63458  0.92080  0.72484  1.0000
  C   C714      1.0  0.65807  0.70484  0.60048  1.0000
  H   H1144     1.0  0.32795  0.98185  0.56255  1.0000
  H   H1145     1.0  0.32785  0.98963  0.54402  1.0000
  H   H1146     1.0  0.59625  0.57451  0.83882  1.0000
  Fe  Fe140     1.0  0.65870  0.57812  0.91675  1.0000
  C   C715      1.0  0.65390  0.58974  0.82214  1.0000
  Fe  Fe141     1.0  0.61701  0.52118  0.77422  1.0000
  S   S280      1.0  0.61424  0.56066  0.77464  1.0000
  S   S281      1.0  0.63618  0.52787  0.75309  1.0000
  C   C716      1.0  0.63262  0.58320  0.84971  1.0000
  Fe  Fe142     1.0  0.63671  0.56873  0.75407  1.0000
  H   H1147     1.0  0.34982  0.95774  0.98583  1.0000
  C   C717      1.0  0.57232  0.51630  0.88080  1.0000
  S   S282      1.0  0.65290  0.53947  0.88152  1.0000
  Fe  Fe143     1.0  0.63387  0.52336  0.90231  1.0000
  Fe  Fe144     1.0  0.65336  0.57386  0.78545  1.0000
  S   S283      1.0  0.61985  0.55561  0.90605  1.0000
  H   H1148     1.0  0.57074  0.53856  0.85581  1.0000
  S   S284      1.0  0.61910  0.58113  0.86683  1.0000
  H   H1149     1.0  0.63675  0.63332  0.99164  1.0000
  C   C718      1.0  0.61668  0.57917  0.83761  1.0000
  H   H1150     1.0  0.35360  0.97685  0.96993  1.0000
  C   C719      1.0  0.62719  0.58200  0.82388  1.0000
  H   H1151     1.0  0.60866  0.52765  0.86064  1.0000
  Fe  Fe145     1.0  0.64027  0.57231  0.88550  1.0000
  H   H1152     1.0  0.61489  0.57963  0.81465  1.0000
  H   H1153     1.0  0.55619  0.50880  0.84581  1.0000
  C   C720      1.0  0.55824  0.51726  0.85666  1.0000
  S   S285      1.0  0.65475  0.53410  0.78609  1.0000
  C   C721      1.0  0.59531  0.50669  0.86155  1.0000
  C   C722      1.0  0.34014  0.95936  0.97572  1.0000
  H   H1154     1.0  0.53885  0.51568  0.86020  1.0000
  H   H1155     1.0  0.58349  0.53782  0.88031  1.0000
  C   C723      1.0  0.65912  0.58972  0.84796  1.0000
  H   H1156     1.0  0.58283  0.50841  0.88829  1.0000
  H   H1157     1.0  0.33745  0.94176  0.96919  1.0000
  H   H1158     1.0  0.55321  0.51298  0.88551  1.0000
  C   C724      1.0  0.65602  0.63277  0.99389  1.0000
  N   N72       1.0  0.56959  0.50404  0.86666  1.0000
  Fe  Fe146     1.0  0.95905  0.20223  0.00140  1.0000
  C   C725      1.0  0.89510  0.13844  0.00174  1.0000
  C   C726      1.0  0.85941  0.09520  0.99824  1.0000
  Fe  Fe147     1.0  0.98883  0.25602  0.01648  1.0000
  H   H1159     1.0  0.88907  0.16163  0.01850  1.0000
  Fe  Fe148     1.0  0.78424  0.03470  0.00973  1.0000
  S   S286      1.0  0.81409  0.07678  0.01463  1.0000
  H   H1160     1.0  0.84593  0.12830  0.02510  1.0000
  S   S287      1.0  0.74298  0.02913  0.01424  1.0000
  C   C727      1.0  0.84543  0.09994  0.00936  1.0000
  C   C728      1.0  0.88099  0.14328  0.01276  1.0000
  C   C729      1.0  0.85641  0.12424  0.01649  1.0000
  S   S288      1.0  0.95547  0.24143  0.00061  1.0000
  C   C730      1.0  0.75522  0.09089  0.99755  1.0000
  H   H1161     1.0  0.76672  0.08619  0.00601  1.0000
  S   S289      1.0  0.98962  0.27839  0.03714  1.0000
  H   H1162     1.0  0.74946  0.10655  0.00169  1.0000
  S   S290      1.0  0.98981  0.21581  0.01856  1.0000
  S   S291      1.0  0.92634  0.16172  0.99640  1.0000
  H   H1163     1.0  0.67219  0.01218  0.11687  1.0000
  H   H1164     1.0  0.73718  0.07304  0.99582  1.0000
  H   H1165     1.0  0.80636  0.11816  0.99539  1.0000
  H   H1166     1.0  0.79623  0.09649  0.38401  1.0000
  Fe  Fe149     1.0  0.91462  0.32751  0.31415  1.0000
  S   S292      1.0  0.92758  0.35899  0.33094  1.0000
  S   S293      1.0  0.93323  0.33221  0.29225  1.0000
  Fe  Fe150     1.0  0.86527  0.29204  0.33036  1.0000
  S   S294      1.0  0.87511  0.32233  0.34769  1.0000
  S   S295      1.0  0.83149  0.25383  0.33731  1.0000
  Fe  Fe151     1.0  0.88594  0.35388  0.33117  1.0000
  S   S296      1.0  0.87084  0.38664  0.33316  1.0000
  Fe  Fe152     1.0  0.91593  0.32518  0.34645  1.0000
  S   S297      1.0  0.93201  0.32689  0.36894  1.0000
  S   S298      1.0  0.87289  0.32365  0.31370  1.0000
  S   S299      1.0  0.90619  0.29382  0.32966  1.0000
  Fe  Fe153     1.0  0.69495  0.12200  0.32645  1.0000
  H   H1167     1.0  0.93360  0.37912  0.36171  1.0000
  S   S300      1.0  0.72897  0.15653  0.31643  1.0000
  C   C731      1.0  0.69148  0.46387  0.31777  1.0000
  C   C732      1.0  0.72924  0.09492  0.29786  1.0000
  S   S301      1.0  0.69718  0.08293  0.33087  1.0000
  Fe  Fe154     1.0  0.97153  0.22134  0.44671  1.0000
  S   S302      1.0  0.95822  0.23486  0.46679  1.0000
  S   S303      1.0  0.67062  0.11972  0.34561  1.0000
  H   H1168     1.0  0.71712  0.09014  0.26240  1.0000
  H   H1169     1.0  0.71304  0.07646  0.30102  1.0000
  Fe  Fe155     1.0  0.95822  0.17443  0.42685  1.0000
  S   S304      1.0  0.93587  0.13166  0.42107  1.0000
  S   S305      1.0  0.94523  0.20793  0.42742  1.0000
  Fe  Fe156     1.0  0.79657  0.02938  0.44067  1.0000
  S   S306      1.0  0.75438  0.02280  0.44047  1.0000
  S   S307      1.0  0.82283  0.07161  0.44535  1.0000
  C   C733      1.0  0.88832  0.37170  0.37422  1.0000
  H   H1170     1.0  0.93369  0.38204  0.38760  1.0000
  C   C734      1.0  0.75715  0.00790  0.49006  1.0000
  H   H1171     1.0  0.70329  0.04136  0.35958  1.0000
  H   H1172     1.0  0.82924  0.11945  0.40274  1.0000
  C   C735      1.0  0.98555  0.36432  0.29597  1.0000
  C   C736      1.0  0.90441  0.11512  0.42780  1.0000
  C   C737      1.0  0.89321  0.12784  0.43667  1.0000
  C   C738      1.0  0.86822  0.11414  0.44199  1.0000
  C   C739      1.0  0.85428  0.08767  0.43853  1.0000
  C   C740      1.0  0.86538  0.07495  0.42957  1.0000
  C   C741      1.0  0.89041  0.08868  0.42423  1.0000
  H   H1173     1.0  0.90384  0.14819  0.43948  1.0000
  H   H1174     1.0  0.85972  0.12408  0.44891  1.0000
  H   H1175     1.0  0.85482  0.05454  0.42687  1.0000
  H   H1176     1.0  0.89898  0.07874  0.41737  1.0000
  C   C742      1.0  0.97222  0.23272  0.48339  1.0000
  C   C743      1.0  0.77360  0.07621  0.41707  1.0000
  H   H1177     1.0  0.89154  0.41707  0.36287  1.0000
  C   C744      1.0  0.69320  0.05271  0.37971  1.0000
  C   C745      1.0  0.69544  0.05083  0.39453  1.0000
  C   C746      1.0  0.70895  0.03645  0.40057  1.0000
  H   H1178     1.0  0.74718  0.09099  0.29783  1.0000
  C   C747      1.0  0.71824  0.02571  0.37701  1.0000
  C   C748      1.0  0.70488  0.04020  0.37098  1.0000
  H   H1179     1.0  0.71040  0.47144  0.31219  1.0000
  H   H1180     1.0  0.71008  0.03485  0.41197  1.0000
  H   H1181     1.0  0.74293  0.13654  0.26980  1.0000
  C   C749      1.0  0.94564  0.30503  0.37562  1.0000
  C   C750      1.0  0.94416  0.29923  0.39021  1.0000
  C   C751      1.0  0.95475  0.28193  0.39585  1.0000
  C   C752      1.0  0.96744  0.27069  0.38696  1.0000
  H   H1182     1.0  0.98226  0.36184  0.30726  1.0000
  C   C753      1.0  0.95790  0.29341  0.36672  1.0000
  H   H1183     1.0  0.93481  0.30817  0.39722  1.0000
  H   H1184     1.0  0.95356  0.27767  0.40709  1.0000
  H   H1185     1.0  0.74877  0.14433  0.28832  1.0000
  H   H1186     1.0  0.95943  0.29786  0.35550  1.0000
  C   C754      1.0  0.80285  0.22720  0.33118  1.0000
  C   C755      1.0  0.79545  0.22344  0.31686  1.0000
  C   C756      1.0  0.77287  0.20183  0.31262  1.0000
  C   C757      1.0  0.75717  0.18364  0.32258  1.0000
  C   C758      1.0  0.76457  0.18739  0.33690  1.0000
  C   C759      1.0  0.78721  0.20894  0.34113  1.0000
  H   H1187     1.0  0.80712  0.23718  0.30904  1.0000
  H   H1188     1.0  0.76744  0.19931  0.30152  1.0000
  H   H1189     1.0  0.75281  0.17373  0.34473  1.0000
  H   H1190     1.0  0.79249  0.21158  0.35225  1.0000
  C   C760      1.0  0.90766  0.47742  0.33381  1.0000
  C   C761      1.0  0.88082  0.46371  0.33433  1.0000
  C   C762      1.0  0.86999  0.43600  0.33402  1.0000
  C   C763      1.0  0.88574  0.42160  0.33309  1.0000
  C   C764      1.0  0.91260  0.43529  0.33250  1.0000
  C   C765      1.0  0.92342  0.46298  0.33290  1.0000
  H   H1191     1.0  0.86841  0.47445  0.33505  1.0000
  H   H1192     1.0  0.84920  0.42569  0.33451  1.0000
  H   H1193     1.0  0.92507  0.42467  0.33171  1.0000
  H   H1194     1.0  0.94421  0.47338  0.33249  1.0000
  S   S308      1.0  0.67529  0.07048  0.37265  1.0000
  C   C766      1.0  0.96514  0.35191  0.28646  1.0000
  C   C767      1.0  0.74612  0.12879  0.28022  1.0000
  H   H1195     1.0  0.95441  0.34584  0.26432  1.0000
  H   H1196     1.0  0.70653  0.49170  0.34198  1.0000
  H   H1197     1.0  0.94477  0.42161  0.26884  1.0000
  N   N73       1.0  0.92319  0.40328  0.28736  1.0000
  C   C768      1.0  0.90539  0.40766  0.29752  1.0000
  C   C769      1.0  0.94614  0.40300  0.29506  1.0000
  C   C770      1.0  0.93152  0.42457  0.27674  1.0000
  C   C771      1.0  0.90975  0.37785  0.28010  1.0000
  H   H1198     1.0  0.89935  0.39233  0.30593  1.0000
  H   H1199     1.0  0.88744  0.40717  0.29218  1.0000
  H   H1200     1.0  0.91457  0.42701  0.30290  1.0000
  H   H1201     1.0  0.94078  0.38624  0.30257  1.0000
  H   H1202     1.0  0.96053  0.40091  0.28762  1.0000
  H   H1203     1.0  0.95609  0.42135  0.30123  1.0000
  N   N74       1.0  0.68446  0.48558  0.32253  1.0000
  H   H1204     1.0  0.76662  0.01771  0.48050  1.0000
  H   H1205     1.0  0.91470  0.42558  0.27082  1.0000
  H   H1206     1.0  0.92307  0.37304  0.27302  1.0000
  H   H1207     1.0  0.98938  0.14197  0.41341  1.0000
  H   H1208     1.0  0.69567  0.11601  0.27410  1.0000
  N   N75       1.0  0.88056  0.23386  0.36345  1.0000
  C   C772      1.0  0.88651  0.26226  0.36368  1.0000
  C   C773      1.0  0.85441  0.21957  0.36920  1.0000
  C   C774      1.0  0.89991  0.22841  0.37219  1.0000
  C   C775      1.0  0.88146  0.22539  0.34867  1.0000
  H   H1209     1.0  0.87163  0.26705  0.35783  1.0000
  H   H1210     1.0  0.90535  0.27346  0.35860  1.0000
  H   H1211     1.0  0.88761  0.26987  0.37469  1.0000
  H   H1212     1.0  0.84914  0.19804  0.36916  1.0000
  H   H1213     1.0  0.85305  0.22573  0.38029  1.0000
  H   H1214     1.0  0.83950  0.22344  0.36276  1.0000
  H   H1215     1.0  0.89574  0.20709  0.37261  1.0000
  H   H1216     1.0  0.90060  0.23554  0.38329  1.0000
  H   H1217     1.0  0.91972  0.23840  0.36785  1.0000
  H   H1218     1.0  0.87705  0.20403  0.34805  1.0000
  H   H1219     1.0  0.90090  0.23601  0.34396  1.0000
  H   H1220     1.0  0.86719  0.22935  0.34178  1.0000
  H   H1221     1.0  0.94203  0.44401  0.28185  1.0000
  N   N76       1.0  0.91170  0.39628  0.37359  1.0000
  H   H1222     1.0  0.89267  0.42023  0.38181  1.0000
  C   C776      1.0  0.70023  0.10918  0.28448  1.0000
  C   C777      1.0  0.96897  0.27660  0.37239  1.0000
  H   H1223     1.0  0.87629  0.37135  0.38358  1.0000
  H   H1224     1.0  0.68641  0.06031  0.40140  1.0000
  H   H1225     1.0  0.97889  0.26815  0.36545  1.0000
  H   H1226     1.0  0.91657  0.39922  0.39626  1.0000
  H   H1227     1.0  0.90205  0.36150  0.28787  1.0000
  C   C778      1.0  0.80599  0.06709  0.40413  1.0000
  N   N77       1.0  0.72419  0.10420  0.28389  1.0000
  C   C779      1.0  0.72033  0.02364  0.39182  1.0000
  C   C780      1.0  0.72106  0.08389  0.27308  1.0000
  H   H1228     1.0  0.89352  0.35427  0.37494  1.0000
  C   C781      1.0  0.78166  0.08912  0.39257  1.0000
  H   H1229     1.0  0.82281  0.10961  0.42090  1.0000
  H   H1230     1.0  0.73870  0.07946  0.27238  1.0000
  H   H1231     1.0  0.79159  0.04763  0.40059  1.0000
  H   H1232     1.0  0.73155  0.10967  0.30631  1.0000
  H   H1233     1.0  0.76302  0.08931  0.41841  1.0000
  C   C782      1.0  0.81353  0.11154  0.41067  1.0000
  H   H1234     1.0  0.75911  0.05635  0.41432  1.0000
  H   H1235     1.0  0.78217  0.07473  0.42757  1.0000
  H   H1236     1.0  0.81493  0.06405  0.41421  1.0000
  H   H1237     1.0  0.82153  0.07395  0.39607  1.0000
  H   H1238     1.0  0.76673  0.07003  0.38891  1.0000
  H   H1239     1.0  0.77184  0.10298  0.39366  1.0000
  C   C783      1.0  0.96998  0.35538  0.27180  1.0000
  H   H1240     1.0  0.80497  0.12632  0.41232  1.0000
  N   N78       1.0  0.79371  0.08604  0.40609  1.0000
  Fe  Fe157     1.0  0.98121  0.23041  0.41503  1.0000
  H   H1241     1.0  0.70451  0.06521  0.27570  1.0000
  Fe  Fe158     1.0  0.67081  0.07947  0.34926  1.0000
  C   C784      1.0  0.92702  0.39564  0.36107  1.0000
  H   H1242     1.0  0.70195  0.12456  0.29247  1.0000
  H   H1243     1.0  0.68330  0.09111  0.28740  1.0000
  H   H1244     1.0  0.94537  0.41714  0.38640  1.0000
  H   H1245     1.0  0.76459  0.12586  0.27972  1.0000
  S   S309      1.0  0.99256  0.19575  0.41323  1.0000
  C   C785      1.0  0.92752  0.39882  0.38656  1.0000
  H   H1246     1.0  0.98779  0.08214  0.43165  1.0000
  H   H1247     1.0  0.91538  0.39302  0.35118  1.0000
  H   H1248     1.0  0.92103  0.43770  0.37150  1.0000
  H   H1249     1.0  0.94452  0.41410  0.36000  1.0000
  S   S310      1.0  0.98177  0.24926  0.39333  1.0000
  H   H1250     1.0  0.87592  0.36924  0.36458  1.0000
  C   C786      1.0  0.90393  0.41882  0.37243  1.0000
  S   S311      1.0  0.98131  0.18595  0.44698  1.0000
  H   H1251     1.0  0.89310  0.37772  0.27359  1.0000
  C   C787      1.0  0.98949  0.09675  0.42319  1.0000
  C   C788      1.0  0.99036  0.22130  0.48464  1.0000
  S   S312      1.0  0.79487  0.00709  0.42062  1.0000
  H   H1252     1.0  0.72690  0.01587  0.37013  1.0000
  H   H1253     1.0  0.96964  0.09602  0.42100  1.0000
  H   H1254     1.0  0.97780  0.13133  0.43857  1.0000
  S   S313      1.0  0.66147  0.03794  0.29940  1.0000
  H   H1255     1.0  0.67669  0.45060  0.31031  1.0000
  H   H1256     1.0  0.95102  0.25154  0.49469  1.0000
  H   H1257     1.0  0.69324  0.45187  0.32689  1.0000
  H   H1258     1.0  0.66807  0.48884  0.30221  1.0000
  H   H1259     1.0  0.66077  0.00612  0.27522  1.0000
  S   S314      1.0  0.73756  0.00504  0.39867  1.0000
  Fe  Fe159     1.0  0.75229  0.99943  0.42071  1.0000
  Fe  Fe160     1.0  0.94997  0.20258  0.57064  1.0000
  S   S315      1.0  0.96216  0.24051  0.55819  1.0000
  S   S316      1.0  0.90700  0.17669  0.56733  1.0000
  C   C789      1.0  0.75283  0.00802  0.51586  1.0000
  C   C790      1.0  0.98796  0.34323  0.72329  1.0000
  H   H1260     1.0  0.74026  0.09521  0.60118  1.0000
  H   H1261     1.0  0.75920  0.04656  0.62016  1.0000
  S   S317      1.0  0.97591  0.22176  0.58950  1.0000
  H   H1262     1.0  0.67283  0.01517  0.62078  1.0000
  H   H1263     1.0  0.78071  0.03932  0.50384  1.0000
  H   H1264     1.0  0.92261  0.21440  0.52296  1.0000
  H   H1265     1.0  0.76521  0.17891  0.73915  1.0000
  H   H1266     1.0  0.77167  0.12144  0.72221  1.0000
  H   H1267     1.0  0.92132  0.18959  0.50143  1.0000
  Fe  Fe161     1.0  0.99011  0.25866  0.57638  1.0000
  Fe  Fe162     1.0  0.79530  0.03408  0.58113  1.0000
  S   S318      1.0  0.83023  0.06605  0.59172  1.0000
  S   S319      1.0  0.76011  0.03896  0.57258  1.0000
  H   H1268     1.0  0.78747  0.11789  0.59626  1.0000
  H   H1269     1.0  0.87753  0.14475  0.51661  1.0000
  S   S320      1.0  0.94336  0.32652  0.73889  1.0000
  H   H1270     1.0  0.73079  0.16674  0.73752  1.0000
  C   C791      1.0  0.97026  0.35099  0.73047  1.0000
  H   H1271     1.0  0.80971  0.10437  0.60302  1.0000
  H   H1272     1.0  0.91399  0.13446  0.52607  1.0000
  H   H1273     1.0  0.96119  0.38394  0.73625  1.0000
  H   H1274     1.0  0.78797  0.08824  0.58892  1.0000
  H   H1275     1.0  0.96850  0.32568  0.66074  1.0000
  C   C792      1.0  0.92195  0.15433  0.53095  1.0000
  C   C793      1.0  0.74855  0.16695  0.73226  1.0000
  N   N79       1.0  0.91511  0.17324  0.52250  1.0000
  C   C794      1.0  0.88665  0.16438  0.52173  1.0000
  S   S321      1.0  0.79700  0.00901  0.56298  1.0000
  C   C795      1.0  0.95374  0.35075  0.69076  1.0000
  H   H1276     1.0  0.74068  0.06575  0.59357  1.0000
  N   N80       1.0  0.96916  0.35099  0.67809  1.0000
  H   H1277     1.0  0.95084  0.37049  0.66481  1.0000
  H   H1278     1.0  0.98245  0.37383  0.65915  1.0000
  C   C796      1.0  0.88695  0.14505  0.57374  1.0000
  C   C797      1.0  0.89356  0.13386  0.58567  1.0000
  C   C798      1.0  0.87615  0.10949  0.59088  1.0000
  C   C799      1.0  0.85223  0.09571  0.58407  1.0000
  C   C800      1.0  0.84587  0.10663  0.57195  1.0000
  C   C801      1.0  0.86302  0.13127  0.56693  1.0000
  H   H1279     1.0  0.91178  0.14425  0.59109  1.0000
  H   H1280     1.0  0.88123  0.10129  0.60030  1.0000
  H   H1281     1.0  0.82751  0.09639  0.56663  1.0000
  H   H1282     1.0  0.85757  0.13979  0.55777  1.0000
  H   H1283     1.0  0.91741  0.15588  0.50241  1.0000
  N   N81       1.0  0.74752  0.14009  0.73031  1.0000
  C   C802      1.0  0.92564  0.17506  0.50804  1.0000
  H   H1284     1.0  0.78885  0.15256  0.73069  1.0000
  H   H1285     1.0  0.72712  0.13404  0.71032  1.0000
  H   H1286     1.0  0.94750  0.20587  0.53089  1.0000
  H   H1287     1.0  0.86052  0.43583  0.73845  1.0000
  H   H1288     1.0  0.95230  0.33446  0.69810  1.0000
  H   H1289     1.0  0.70675  0.12388  0.72556  1.0000
  S   S322      1.0  0.97949  0.19018  0.56059  1.0000
  Fe  Fe163     1.0  0.99242  0.22837  0.54891  1.0000
  C   C803      1.0  0.96479  0.24236  0.49562  1.0000
  H   H1290     1.0  0.93712  0.32246  0.66677  1.0000
  H   H1291     1.0  0.74327  0.10660  0.74329  1.0000
  H   H1292     1.0  0.88083  0.17830  0.51549  1.0000
  H   H1293     1.0  0.90417  0.48886  0.72461  1.0000
  C   C804      1.0  0.97452  0.37760  0.73070  1.0000
  H   H1294     1.0  0.77137  0.04738  0.60271  1.0000
  C   C805      1.0  0.92622  0.19927  0.52937  1.0000
  H   H1295     1.0  0.94706  0.18144  0.50829  1.0000
  S   S323      1.0  0.66681  0.06912  0.73136  1.0000
  H   H1296     1.0  0.91417  0.15241  0.54190  1.0000
  C   C806      1.0  0.97040  0.37278  0.66866  1.0000
  H   H1297     1.0  0.98659  0.30304  0.63528  1.0000
  H   H1298     1.0  0.77097  0.11757  0.62073  1.0000
  H   H1299     1.0  0.87821  0.16283  0.53252  1.0000
  C   C807      1.0  0.72535  0.12500  0.72101  1.0000
  H   H1300     1.0  0.72869  0.06496  0.61106  1.0000
  Fe  Fe164     1.0  0.73667  0.00265  0.58513  1.0000
  H   H1301     1.0  0.93372  0.34841  0.68783  1.0000
  H   H1302     1.0  0.98025  0.28210  0.61148  1.0000
  S   S324      1.0  0.76320  0.02517  0.53211  1.0000
  H   H1303     1.0  0.75048  0.17742  0.72199  1.0000
  C   C808      1.0  0.77183  0.14139  0.72383  1.0000
  H   H1304     1.0  0.79313  0.10387  0.62732  1.0000
  H   H1305     1.0  0.96998  0.24862  0.51829  1.0000
  H   H1306     1.0  0.75908  0.08756  0.63073  1.0000
  C   C809      1.0  0.76510  0.02014  0.50332  1.0000
  C   C810      1.0  0.95712  0.32590  0.67035  1.0000
  H   H1307     1.0  0.95610  0.30904  0.67711  1.0000
  N   N82       1.0  0.77016  0.08368  0.60941  1.0000
  C   C811      1.0  0.77373  0.05915  0.61248  1.0000
  C   C812      1.0  0.78961  0.09931  0.59897  1.0000
  C   C813      1.0  0.77347  0.09888  0.62265  1.0000
  C   C814      1.0  0.74384  0.07726  0.60357  1.0000
  H   H1308     1.0  0.79347  0.06306  0.61673  1.0000
  H   H1309     1.0  0.72352  0.10438  0.71963  1.0000
  H   H1310     1.0  0.93584  0.49044  0.72039  1.0000
  H   H1311     1.0  0.91775  0.19896  0.54002  1.0000
  H   H1312     1.0  0.96273  0.36931  0.69695  1.0000
  H   H1313     1.0  0.97910  0.39201  0.67422  1.0000
  C   C815      1.0  0.97537  0.24056  0.50901  1.0000
  S   S325      1.0  0.70738  0.00829  0.60029  1.0000
  H   H1314     1.0  0.98507  0.32276  0.72317  1.0000
  H   H1315     1.0  0.77493  0.15133  0.71333  1.0000
  H   H1316     1.0  0.94332  0.16066  0.53195  1.0000
  C   C816      1.0  0.99323  0.22878  0.51025  1.0000
  H   H1317     1.0  0.75939  0.25323  0.74427  1.0000
  Fe  Fe165     1.0  0.76021  0.01146  0.55505  1.0000
  C   C817      1.0  0.74436  0.12701  0.74425  1.0000
  S   S326      1.0  0.77214  0.99913  0.59451  1.0000
  S   S327      1.0  0.86402  0.48707  0.74683  1.0000
  H   H1318     1.0  0.91271  0.29861  0.96464  1.0000
  H   H1319     1.0  0.94248  0.29677  0.92306  1.0000
  H   H1320     1.0  0.78724  0.08223  0.96888  1.0000
  H   H1321     1.0  0.87272  0.40249  0.75076  1.0000
  H   H1322     1.0  0.87371  0.37645  0.94341  1.0000
  H   H1323     1.0  0.74093  0.17973  0.87142  1.0000
  Fe  Fe166     1.0  0.69025  0.15579  0.91242  1.0000
  S   S328      1.0  0.71446  0.19503  0.92235  1.0000
  S   S329      1.0  0.71264  0.13676  0.90077  1.0000
  Fe  Fe167     1.0  0.85341  0.30879  0.75889  1.0000
  S   S330      1.0  0.88387  0.29268  0.76229  1.0000
  H   H1324     1.0  0.88631  0.35485  0.93517  1.0000
  Fe  Fe168     1.0  0.88878  0.36284  0.76999  1.0000
  S   S331      1.0  0.92190  0.35059  0.77427  1.0000
  H   H1325     1.0  0.92426  0.42127  0.82378  1.0000
  H   H1326     1.0  0.78034  0.14227  0.86175  1.0000
  Fe  Fe169     1.0  0.89170  0.31413  0.78315  1.0000
  S   S332      1.0  0.89766  0.29415  0.80306  1.0000
  S   S333      1.0  0.85912  0.32749  0.78047  1.0000
  H   H1327     1.0  0.73588  0.08814  0.97135  1.0000
  H   H1328     1.0  0.80354  0.17179  0.86954  1.0000
  Fe  Fe170     1.0  0.68768  0.09987  0.91211  1.0000
  C   C818      1.0  0.67929  0.12145  0.84562  1.0000
  Fe  Fe171     1.0  0.69706  0.14318  0.76671  1.0000
  H   H1329     1.0  0.74514  0.14969  0.87384  1.0000
  S   S334      1.0  0.68965  0.10062  0.77046  1.0000
  H   H1330     1.0  0.94367  0.28126  0.97501  1.0000
  Fe  Fe172     1.0  0.89104  0.31827  0.91386  1.0000
  S   S335      1.0  0.85013  0.31639  0.91387  1.0000
  S   S336      1.0  0.90343  0.31234  0.93640  1.0000
  Fe  Fe173     1.0  0.89731  0.33428  0.88244  1.0000
  S   S337      1.0  0.85736  0.33371  0.88067  1.0000
  S   S338      1.0  0.92345  0.34958  0.86347  1.0000
  Fe  Fe174     1.0  0.86566  0.35421  0.90171  1.0000
  S   S339      1.0  0.84986  0.38518  0.90689  1.0000
  Fe  Fe175     1.0  0.84552  0.29609  0.89293  1.0000
  S   S340      1.0  0.80989  0.26288  0.88435  1.0000
  S   S341      1.0  0.90668  0.35758  0.90286  1.0000
  S   S342      1.0  0.88524  0.29512  0.89347  1.0000
  H   H1331     1.0  0.69501  0.15605  0.83259  1.0000
  C   C819      1.0  0.89737  0.47444  0.90863  1.0000
  C   C820      1.0  0.87036  0.46415  0.90946  1.0000
  C   C821      1.0  0.85615  0.43682  0.90886  1.0000
  C   C822      1.0  0.86869  0.41948  0.90722  1.0000
  C   C823      1.0  0.89570  0.42975  0.90626  1.0000
  C   C824      1.0  0.90995  0.45708  0.90709  1.0000
  H   H1332     1.0  0.86042  0.47724  0.91071  1.0000
  H   H1333     1.0  0.83530  0.42913  0.90966  1.0000
  H   H1334     1.0  0.90563  0.41671  0.90485  1.0000
  H   H1335     1.0  0.93082  0.46487  0.90637  1.0000
  C   C825      1.0  0.88632  0.42574  0.76966  1.0000
  H   H1336     1.0  0.87991  0.17699  0.95472  1.0000
  C   C826      1.0  0.88300  0.46830  0.76946  1.0000
  C   C827      1.0  0.87241  0.46348  0.75577  1.0000
  H   H1337     1.0  0.80597  0.12886  0.97743  1.0000
  H   H1338     1.0  0.95577  0.30011  0.79847  1.0000
  H   H1339     1.0  0.87538  0.41194  0.80601  1.0000
  H   H1340     1.0  0.86328  0.37614  0.84047  1.0000
  C   C828      1.0  0.90331  0.31067  0.81955  1.0000
  C   C829      1.0  0.88860  0.29824  0.83139  1.0000
  C   C830      1.0  0.89416  0.31016  0.84488  1.0000
  C   C831      1.0  0.91506  0.33422  0.84669  1.0000
  C   C832      1.0  0.92982  0.34658  0.83485  1.0000
  C   C833      1.0  0.92379  0.33506  0.82130  1.0000
  H   H1341     1.0  0.87295  0.27923  0.83015  1.0000
  H   H1342     1.0  0.88271  0.30042  0.85394  1.0000
  H   H1343     1.0  0.94616  0.36506  0.83622  1.0000
  H   H1344     1.0  0.93548  0.34467  0.81231  1.0000
  N   N83       1.0  0.91525  0.38982  0.94405  1.0000
  Fe  Fe176     1.0  0.73343  0.00852  0.99312  1.0000
  C   C834      1.0  0.74985  0.21693  0.75581  1.0000
  H   H1345     1.0  0.75952  0.05912  0.97771  1.0000
  H   H1346     1.0  0.89537  0.20637  0.94453  1.0000
  H   H1347     1.0  0.92430  0.38924  0.82100  1.0000
  C   C835      1.0  0.74128  0.21377  0.91196  1.0000
  C   C836      1.0  0.73935  0.21276  0.89718  1.0000
  C   C837      1.0  0.76043  0.22836  0.88893  1.0000
  C   C838      1.0  0.78389  0.24444  0.89533  1.0000
  C   C839      1.0  0.78596  0.24547  0.91014  1.0000
  C   C840      1.0  0.76453  0.23043  0.91844  1.0000
  H   H1348     1.0  0.72137  0.20027  0.89211  1.0000
  H   H1349     1.0  0.75845  0.22805  0.87752  1.0000
  H   H1350     1.0  0.80403  0.25772  0.91518  1.0000
  H   H1351     1.0  0.76609  0.23125  0.92989  1.0000
  H   H1352     1.0  0.79789  0.21407  0.86656  1.0000
  C   C841      1.0  0.96562  0.31798  0.79193  1.0000
  C   C842      1.0  0.75579  0.17111  0.87208  1.0000
  C   C843      1.0  0.91899  0.41743  0.94645  1.0000
  H   H1353     1.0  0.92213  0.15525  0.95054  1.0000
  H   H1354     1.0  0.88277  0.35094  0.81719  1.0000
  C   C844      1.0  0.70714  0.03641  0.96382  1.0000
  C   C845      1.0  0.72620  0.03814  0.95396  1.0000
  C   C846      1.0  0.72693  0.05047  0.94076  1.0000
  C   C847      1.0  0.70882  0.06140  0.93729  1.0000
  C   C848      1.0  0.69001  0.06000  0.94724  1.0000
  C   C849      1.0  0.68909  0.04741  0.96037  1.0000
  H   H1355     1.0  0.74913  0.12178  0.97679  1.0000
  S   S343      1.0  0.98990  0.21297  0.98458  1.0000
  S   S344      1.0  0.98357  0.26694  0.96186  1.0000
  C   C850      1.0  0.96089  0.27927  0.95500  1.0000
  C   C851      1.0  0.96029  0.28369  0.94031  1.0000
  C   C852      1.0  0.94253  0.29328  0.93436  1.0000
  C   C853      1.0  0.92533  0.29886  0.94308  1.0000
  C   C854      1.0  0.92588  0.29435  0.95777  1.0000
  C   C855      1.0  0.94342  0.28447  0.96369  1.0000
  C   C856      1.0  0.67475  0.47296  0.77936  1.0000
  N   N84       1.0  0.77061  0.31581  0.90252  1.0000
  C   C857      1.0  0.74807  0.31876  0.89573  1.0000
  C   C858      1.0  0.76158  0.29293  0.91212  1.0000
  C   C859      1.0  0.78567  0.33972  0.91073  1.0000
  C   C860      1.0  0.78718  0.31184  0.89146  1.0000
  H   H1356     1.0  0.73629  0.30094  0.88950  1.0000
  H   H1357     1.0  0.75426  0.33578  0.88835  1.0000
  H   H1358     1.0  0.73517  0.32191  0.90377  1.0000
  H   H1359     1.0  0.75074  0.27438  0.90622  1.0000
  H   H1360     1.0  0.77812  0.29050  0.91762  1.0000
  H   H1361     1.0  0.74853  0.29489  0.92044  1.0000
  H   H1362     1.0  0.80305  0.33826  0.91582  1.0000
  H   H1363     1.0  0.77395  0.34335  0.91926  1.0000
  H   H1364     1.0  0.79285  0.35743  0.90382  1.0000
  H   H1365     1.0  0.80402  0.30893  0.89623  1.0000
  H   H1366     1.0  0.79500  0.32899  0.88422  1.0000
  H   H1367     1.0  0.77647  0.29413  0.88490  1.0000
  S   S345      1.0  0.66657  0.11950  0.92480  1.0000
  H   H1368     1.0  0.77164  0.21481  0.85584  1.0000
  H   H1369     1.0  0.94309  0.22642  0.94286  1.0000
  H   H1370     1.0  0.91684  0.40622  0.80658  1.0000
  H   H1371     1.0  0.95381  0.28806  0.75967  1.0000
  C   C861      1.0  0.78534  0.20492  0.85719  1.0000
  S   S346      1.0  0.70520  0.02130  0.98068  1.0000
  C   C862      1.0  0.94344  0.20730  0.94624  1.0000
  H   H1372     1.0  0.85288  0.39970  0.82024  1.0000
  C   C863      1.0  0.66479  0.09439  0.84561  1.0000
  C   C864      1.0  0.75901  0.20245  0.76492  1.0000
  H   H1373     1.0  0.89345  0.37219  0.84081  1.0000
  H   H1374     1.0  0.95182  0.32782  0.79095  1.0000
  C   C865      1.0  0.79243  0.25346  0.75618  1.0000
  H   H1375     1.0  0.80239  0.16728  0.85062  1.0000
  H   H1376     1.0  0.76523  0.16869  0.83661  1.0000
  C   C866      1.0  0.79029  0.16386  0.86028  1.0000
  N   N85       1.0  0.92143  0.19285  0.95557  1.0000
  H   H1377     1.0  0.90653  0.15634  0.96697  1.0000
  H   H1378     1.0  0.88902  0.38465  0.92651  1.0000
  H   H1379     1.0  0.91832  0.42742  0.93626  1.0000
  Fe  Fe177     1.0  0.66355  0.09135  0.75120  1.0000
  H   H1380     1.0  0.74001  0.02949  0.95635  1.0000
  N   N86       1.0  0.77017  0.09903  0.98432  1.0000
  H   H1381     1.0  0.78970  0.13907  0.99108  1.0000
  C   C867      1.0  0.88997  0.37583  0.93699  1.0000
  C   C868      1.0  0.89001  0.44954  0.77635  1.0000
  H   H1382     1.0  0.68690  0.47504  0.76980  1.0000
  H   H1383     1.0  0.88286  0.42744  0.82310  1.0000
  H   H1384     1.0  0.95551  0.39893  0.94003  1.0000
  C   C869      1.0  0.87383  0.40813  0.81766  1.0000
  H   H1385     1.0  0.92120  0.22762  0.96559  1.0000
  H   H1386     1.0  0.93374  0.36831  0.93276  1.0000
  N   N87       1.0  0.77142  0.17631  0.85905  1.0000
  S   S347      1.0  0.73976  0.16968  0.76996  1.0000
  H   H1387     1.0  0.90711  0.19806  0.97597  1.0000
  H   H1388     1.0  0.76794  0.17942  0.88167  1.0000
  H   H1389     1.0  0.79220  0.20264  0.77669  1.0000
  H   H1390     1.0  0.89519  0.17572  0.93821  1.0000
  C   C870      1.0  0.91582  0.37704  0.95776  1.0000
  H   H1391     1.0  0.89306  0.40403  0.84345  1.0000
  H   H1392     1.0  0.73964  0.17420  0.84549  1.0000
  H   H1393     1.0  0.94139  0.21365  0.97403  1.0000
  H   H1394     1.0  0.93890  0.27537  0.77648  1.0000
  C   C871      1.0  0.75421  0.16529  0.84667  1.0000
  H   H1395     1.0  0.79790  0.20957  0.84767  1.0000
  H   H1396     1.0  0.74310  0.14376  0.84781  1.0000
  H   H1397     1.0  0.90357  0.41884  0.95332  1.0000
  C   C872      1.0  0.94929  0.29361  0.77035  1.0000
  S   S348      1.0  0.67338  0.13399  0.74661  1.0000
  H   H1398     1.0  0.67717  0.13286  0.81008  1.0000
  H   H1399     1.0  0.91315  0.35618  0.95620  1.0000
  C   C873      1.0  0.86882  0.43973  0.74902  1.0000
  H   H1400     1.0  0.98214  0.27981  0.78590  1.0000
  C   C874      1.0  0.67356  0.12206  0.81993  1.0000
  S   S349      1.0  0.71025  0.07601  0.92033  1.0000
  C   C875      1.0  0.91420  0.40229  0.81817  1.0000
  H   H1401     1.0  0.94100  0.17107  0.96589  1.0000
  C   C876      1.0  0.87570  0.42083  0.75597  1.0000
  H   H1402     1.0  0.85298  0.35564  0.81648  1.0000
  C   C877      1.0  0.80145  0.23907  0.76542  1.0000
  C   C878      1.0  0.88392  0.38548  0.83732  1.0000
  C   C879      1.0  0.89686  0.18772  0.94790  1.0000
  H   H1403     1.0  0.88559  0.48639  0.77481  1.0000
  C   C880      1.0  0.77705  0.07744  0.97921  1.0000
  C   C881      1.0  0.93617  0.38891  0.93494  1.0000
  S   S350      1.0  0.81299  0.28504  0.75000  1.0000
  H   H1404     1.0  0.87606  0.36802  0.80254  1.0000
  N   N88       1.0  0.88649  0.39025  0.82186  1.0000
  H   H1405     1.0  0.90015  0.37708  0.96487  1.0000
  H   H1406     1.0  0.96231  0.21182  0.95180  1.0000
  H   H1407     1.0  0.93649  0.39856  0.92453  1.0000
  C   C882      1.0  0.78488  0.21367  0.76967  1.0000
  H   H1408     1.0  0.74143  0.05127  0.93310  1.0000
  H   H1409     1.0  0.94328  0.19595  0.93652  1.0000
  H   H1410     1.0  0.98281  0.33132  0.79798  1.0000
  H   H1411     1.0  0.67589  0.06819  0.94470  1.0000
  S   S351      1.0  0.66388  0.14240  0.78027  1.0000
  S   S352      1.0  0.77475  0.01491  0.98834  1.0000
  S   S353      1.0  0.89534  0.40287  0.77889  1.0000
  C   C883      1.0  0.92280  0.16775  0.95986  1.0000
  C   C884      1.0  0.87402  0.36511  0.81421  1.0000
  H   H1412     1.0  0.67423  0.04614  0.96789  1.0000
  C   C885      1.0  0.79410  0.12237  0.98716  1.0000
  C   C886      1.0  0.92271  0.20873  0.96833  1.0000
  Fe  Fe178     1.0  0.91215  0.33066  0.75304  1.0000
  H   H1413     1.0  0.89822  0.45348  0.78693  1.0000
  H   H1414     1.0  0.93462  0.38703  0.96341  1.0000
  H   H1415     1.0  0.82129  0.24742  0.76917  1.0000
  Fe  Fe179     1.0  0.68139  0.12677  0.88416  1.0000
  H   H1416     1.0  0.76456  0.11061  0.96312  1.0000
  H   H1417     1.0  0.93556  0.30327  0.76862  1.0000
  C   C887      1.0  0.75432  0.10525  0.97343  1.0000
  N   N89       1.0  0.97281  0.31137  0.77785  1.0000
  H   H1418     1.0  0.85145  0.07672  0.99261  1.0000
  C   C888      1.0  0.68376  0.13514  0.83273  1.0000
  S   S354      1.0  0.69242  0.13920  0.86134  1.0000
  S   S355      1.0  0.88093  0.34555  0.74797  1.0000
  H   H1419     1.0  0.78994  0.07303  0.98692  1.0000
  H   H1420     1.0  0.73000  0.20863  0.75209  1.0000
  H   H1421     1.0  0.67637  0.49306  0.78215  1.0000
  H   H1422     1.0  0.76051  0.13799  0.75168  1.0000
  H   H1423     1.0  0.72628  0.12591  0.74939  1.0000
  H   H1424     1.0  0.93798  0.42872  0.95164  1.0000
  C   C889      1.0  0.98521  0.33557  0.76943  1.0000
  H   H1425     1.0  0.66196  0.08345  0.85540  1.0000
  H   H1426     1.0  0.99050  0.33120  0.75865  1.0000
  H   H1427     1.0  0.68357  0.46592  0.78822  1.0000
  Fe  Fe180     1.0  0.98679  0.25233  0.98424  1.0000
  H   H1428     1.0  0.97377  0.27983  0.93348  1.0000
  C   C890      1.0  0.76655  0.24222  0.75140  1.0000
  H   H1429     1.0  0.97194  0.34591  0.76776  1.0000
  C   C891      1.0  0.99099  0.29821  0.77964  1.0000
  H   H1430     1.0  0.89456  0.11010  0.98597  1.0000
  C   C892      1.0  0.88396  0.11428  0.99448  1.0000
  H   H1431     1.0  0.95322  0.71322  0.03417  1.0000
  Fe  Fe181     1.0  0.97839  0.77584  0.00242  1.0000
  H   H1432     1.0  0.76692  0.89686  0.05531  1.0000
  C   C893      1.0  0.91297  0.77919  0.00438  1.0000
  H   H1433     1.0  0.76843  0.96286  0.04636  1.0000
  H   H1434     1.0  0.68853  0.68417  0.06029  1.0000
  C   C894      1.0  0.68304  0.70492  0.04199  1.0000
  S   S356      1.0  0.71746  0.97017  0.04465  1.0000
  C   C895      1.0  0.69541  0.65017  0.00791  1.0000
  H   H1435     1.0  0.90732  0.70191  0.05439  1.0000
  H   H1436     1.0  0.68490  0.69337  0.00848  1.0000
  Fe  Fe182     1.0  0.73393  0.73324  0.01530  1.0000
  H   H1437     1.0  0.67119  0.72398  0.02507  1.0000
  S   S357      1.0  0.71362  0.70935  0.03472  1.0000
  C   C896      1.0  0.91234  0.74438  0.03887  1.0000
  H   H1438     1.0  0.91872  0.70036  0.01573  1.0000
  N   N90       1.0  0.75877  0.92256  0.04072  1.0000
  S   S358      1.0  0.76961  0.77092  0.01659  1.0000
  H   H1439     1.0  0.98333  0.85351  0.00917  1.0000
  H   H1440     1.0  0.69157  0.93812  0.06830  1.0000
  C   C897      1.0  0.66660  0.96735  0.04407  1.0000
  C   C898      1.0  0.68496  0.95983  0.05076  1.0000
  H   H1441     1.0  0.66540  0.65923  0.02699  1.0000
  S   S359      1.0  0.94702  0.79126  0.00815  1.0000
  C   C899      1.0  0.94711  0.72918  0.03753  1.0000
  C   C900      1.0  0.67758  0.94405  0.06300  1.0000
  H   H1442     1.0  0.95944  0.74721  0.03173  1.0000
  H   H1443     1.0  0.91556  0.74857  0.05042  1.0000
  H   H1444     1.0  0.92582  0.73440  0.01292  1.0000
  H   H1445     1.0  0.67190  0.97954  0.03469  1.0000
  Fe  Fe183     1.0  0.73597  0.98970  0.02367  1.0000
  H   H1446     1.0  0.90871  0.68171  0.03983  1.0000
  H   H1447     1.0  0.90724  0.80771  0.01795  1.0000
  C   C901      1.0  0.91399  0.71708  0.01932  1.0000
  S   S360      1.0  0.72366  0.96838  0.00291  1.0000
  C   C902      1.0  0.89794  0.79119  0.01094  1.0000
  H   H1448     1.0  0.95195  0.73282  0.04900  1.0000
  C   C903      1.0  0.66566  0.71336  0.03495  1.0000
  H   H1449     1.0  0.89333  0.71253  0.01661  1.0000
  H   H1450     1.0  0.73301  0.90554  0.02314  1.0000
  C   C904      1.0  0.73766  0.92169  0.03098  1.0000
  C   C905      1.0  0.85841  0.76074  0.99947  1.0000
  H   H1451     1.0  0.89170  0.74031  0.03636  1.0000
  S   S361      1.0  0.75116  0.71468  0.99926  1.0000
  H   H1452     1.0  0.78017  0.91268  0.02455  1.0000
  H   H1453     1.0  0.74547  0.93976  0.05774  1.0000
  C   C906      1.0  0.78271  0.92822  0.03257  1.0000
  Fe  Fe184     1.0  0.76586  0.97643  0.00010  1.0000
  H   H1454     1.0  0.85975  0.79165  0.01360  1.0000
  H   H1455     1.0  0.71962  0.91883  0.03683  1.0000
  H   H1456     1.0  0.92420  0.76268  0.03315  1.0000
  H   H1457     1.0  0.74298  0.94027  0.02492  1.0000
  H   H1458     1.0  0.73335  0.89202  0.05402  1.0000
  S   S362      1.0  0.77820  0.99692  0.02117  1.0000
  H   H1459     1.0  0.74806  0.88087  0.04001  1.0000
  H   H1460     1.0  0.78842  0.94708  0.02668  1.0000
  H   H1461     1.0  0.79924  0.92960  0.03956  1.0000
  C   C907      1.0  0.87092  0.78211  0.00850  1.0000
  N   N91       1.0  0.91930  0.72233  0.03464  1.0000
  C   C908      1.0  0.90378  0.69865  0.04277  1.0000
  C   C909      1.0  0.75145  0.89693  0.04786  1.0000
  H   H1462     1.0  0.77911  0.94475  0.05893  1.0000
  H   H1463     1.0  0.88269  0.69288  0.04077  1.0000
  C   C910      1.0  0.76320  0.94333  0.05144  1.0000
  Fe  Fe185     1.0  0.78589  0.75337  0.99930  1.0000
  S   S363      1.0  0.97462  0.73388  0.00225  1.0000
  H   H1464     1.0  0.70659  0.66450  0.01624  1.0000
  H   H1465     1.0  0.69298  0.63032  0.01169  1.0000
  C   C911      1.0  0.67533  0.69098  0.05479  1.0000
  N   N92       1.0  0.67016  0.65183  0.00505  1.0000
  H   H1466     1.0  0.66710  0.97352  0.10191  1.0000
  C   C912      1.0  0.67446  0.67860  0.00024  1.0000
  Fe  Fe186     1.0  0.75086  0.78511  0.99877  1.0000
  H   H1467     1.0  0.79161  0.86061  0.99615  1.0000
  S   S364      1.0  0.82426  0.74796  0.99599  1.0000
  C   C913      1.0  0.75153  0.85508  0.99669  1.0000
  S   S365      1.0  0.71453  0.74803  0.99862  1.0000
  H   H1468     1.0  0.73018  0.90534  0.99590  1.0000
  S   S366      1.0  0.73836  0.82005  0.99717  1.0000
  H   H1469     1.0  0.70760  0.65457  0.99826  1.0000
  C   C914      1.0  0.77813  0.87019  0.99615  1.0000
  C   C915      1.0  0.73441  0.86809  0.99659  1.0000
  H   H1470     1.0  0.71378  0.85668  0.99690  1.0000
  C   C916      1.0  0.74365  0.89574  0.99606  1.0000
  C   C917      1.0  0.90048  0.75790  0.99532  1.0000
  C   C918      1.0  0.77025  0.91087  0.99558  1.0000
  S   S367      1.0  0.78318  0.94591  0.99536  1.0000
  H   H1471     1.0  0.80799  0.90929  0.99510  1.0000
  C   C919      1.0  0.78737  0.89786  0.99553  1.0000
  S   S368      1.0  0.67437  0.60058  0.33355  1.0000
  H   H1472     1.0  0.96411  0.76463  0.46920  1.0000
  Fe  Fe187     1.0  0.68134  0.56435  0.32782  1.0000
  S   S369      1.0  0.71932  0.56587  0.31789  1.0000
  H   H1473     1.0  0.89790  0.64849  0.36114  1.0000
  Fe  Fe188     1.0  0.86932  0.57313  0.33443  1.0000
  S   S370      1.0  0.88890  0.55905  0.35178  1.0000
  S   S371      1.0  0.82809  0.56776  0.34133  1.0000
  Fe  Fe189     1.0  0.92130  0.59793  0.31840  1.0000
  S   S372      1.0  0.94314  0.58613  0.33520  1.0000
  S   S373      1.0  0.94180  0.62404  0.29966  1.0000
  Fe  Fe190     1.0  0.90933  0.54677  0.33458  1.0000
  Fe  Fe191     1.0  0.92071  0.59937  0.35084  1.0000
  S   S374      1.0  0.93465  0.62019  0.37216  1.0000
  S   S375      1.0  0.88796  0.55820  0.31705  1.0000
  S   S376      1.0  0.90087  0.61380  0.33419  1.0000
  Fe  Fe192     1.0  0.96737  0.77973  0.43690  1.0000
  S   S377      1.0  0.93127  0.77905  0.44769  1.0000
  S   S378      1.0  0.97436  0.74267  0.43466  1.0000
  Fe  Fe193     1.0  0.78445  0.97110  0.43432  1.0000
  S   S379      1.0  0.74185  0.96143  0.43289  1.0000
  S   S380      1.0  0.80157  0.94006  0.43567  1.0000
  C   C920      1.0  0.67179  0.66820  0.45890  1.0000
  C   C921      1.0  0.75648  0.75851  0.48694  1.0000
  C   C922      1.0  0.75276  0.91665  0.46239  1.0000
  Fe  Fe194     1.0  0.76457  0.76261  0.44773  1.0000
  S   S381      1.0  0.79321  0.79310  0.43383  1.0000
  S   S382      1.0  0.76554  0.77541  0.47069  1.0000
  Fe  Fe195     1.0  0.73617  0.72840  0.42222  1.0000
  S   S383      1.0  0.76191  0.75694  0.40654  1.0000
  S   S384      1.0  0.70010  0.69099  0.41817  1.0000
  Fe  Fe196     1.0  0.79424  0.75909  0.42146  1.0000
  S   S385      1.0  0.83046  0.76004  0.41086  1.0000
  Fe  Fe197     1.0  0.75917  0.78910  0.42016  1.0000
  S   S386      1.0  0.75369  0.82415  0.41041  1.0000
  S   S387      1.0  0.76880  0.72857  0.43656  1.0000
  S   S388      1.0  0.73026  0.76049  0.43459  1.0000
  C   C923      1.0  0.78740  0.90787  0.42871  1.0000
  C   C924      1.0  0.77000  0.90153  0.41726  1.0000
  C   C925      1.0  0.75969  0.87575  0.41184  1.0000
  C   C926      1.0  0.76627  0.85600  0.41797  1.0000
  C   C927      1.0  0.78314  0.86223  0.42966  1.0000
  C   C928      1.0  0.79396  0.88813  0.43484  1.0000
  H   H1474     1.0  0.76492  0.91659  0.41239  1.0000
  H   H1475     1.0  0.74668  0.87114  0.40279  1.0000
  H   H1476     1.0  0.78812  0.84720  0.43461  1.0000
  H   H1477     1.0  0.80739  0.89287  0.44371  1.0000
  H   H1478     1.0  0.70855  0.92075  0.45432  1.0000
  H   H1479     1.0  0.96935  0.69037  0.40782  1.0000
  H   H1480     1.0  0.73048  0.90171  0.43711  1.0000
  H   H1481     1.0  0.90770  0.72834  0.49204  1.0000
  H   H1482     1.0  0.70548  0.85635  0.46769  1.0000
  C   C929      1.0  0.90346  0.77389  0.43730  1.0000
  C   C930      1.0  0.88103  0.77359  0.44389  1.0000
  C   C931      1.0  0.85845  0.76926  0.43590  1.0000
  C   C932      1.0  0.85823  0.76516  0.42127  1.0000
  C   C933      1.0  0.88068  0.76558  0.41467  1.0000
  C   C934      1.0  0.90324  0.76989  0.42266  1.0000
  H   H1483     1.0  0.88114  0.77676  0.45521  1.0000
  H   H1484     1.0  0.84125  0.76905  0.44105  1.0000
  H   H1485     1.0  0.88062  0.76246  0.40334  1.0000
  H   H1486     1.0  0.92044  0.77009  0.41749  1.0000
  C   C935      1.0  0.92062  0.72087  0.46552  1.0000
  N   N93       1.0  0.72754  0.89489  0.45961  1.0000
  C   C936      1.0  0.94906  0.65374  0.37742  1.0000
  C   C937      1.0  0.95424  0.65981  0.39191  1.0000
  C   C938      1.0  0.96528  0.68607  0.39666  1.0000
  C   C939      1.0  0.97148  0.70669  0.38694  1.0000
  C   C940      1.0  0.96611  0.70060  0.37243  1.0000
  C   C941      1.0  0.95482  0.67433  0.36770  1.0000
  H   H1487     1.0  0.94981  0.64408  0.39954  1.0000
  H   H1488     1.0  0.70156  0.51052  0.30469  1.0000
  H   H1489     1.0  0.75392  0.92464  0.47331  1.0000
  H   H1490     1.0  0.95055  0.67001  0.35658  1.0000
  C   C942      1.0  0.86394  0.60362  0.37172  1.0000
  N   N94       1.0  0.84315  0.83746  0.40098  1.0000
  C   C943      1.0  0.70192  0.66583  0.39221  1.0000
  C   C944      1.0  0.68946  0.66539  0.40518  1.0000
  H   H1491     1.0  0.96943  0.65498  0.27599  1.0000
  C   C945      1.0  0.98528  0.61221  0.29586  1.0000
  H   H1492     1.0  0.66679  0.69605  0.48129  1.0000
  C   C946      1.0  0.86121  0.85449  0.39039  1.0000
  C   C947      1.0  0.66892  0.62259  0.38580  1.0000
  C   C948      1.0  0.69155  0.64451  0.38248  1.0000
  C   C949      1.0  0.74981  0.56755  0.32474  1.0000
  C   C950      1.0  0.76966  0.56962  0.31518  1.0000
  C   C951      1.0  0.79376  0.57000  0.31999  1.0000
  C   C952      1.0  0.79831  0.56798  0.33448  1.0000
  C   C953      1.0  0.77842  0.56584  0.34405  1.0000
  C   C954      1.0  0.75443  0.56575  0.33925  1.0000
  H   H1493     1.0  0.76642  0.57100  0.30393  1.0000
  H   H1494     1.0  0.80873  0.57164  0.31246  1.0000
  H   H1495     1.0  0.78157  0.56419  0.35528  1.0000
  H   H1496     1.0  0.73948  0.56413  0.34679  1.0000
  H   H1497     1.0  0.90977  0.69928  0.46482  1.0000
  C   C955      1.0  0.82462  0.81369  0.39389  1.0000
  C   C956      1.0  0.97088  0.62639  0.29117  1.0000
  H   H1498     1.0  0.96377  0.76377  0.48829  1.0000
  H   H1499     1.0  0.74157  0.87719  0.44319  1.0000
  H   H1500     1.0  0.87460  0.60071  0.36246  1.0000
  H   H1501     1.0  0.70760  0.86985  0.44217  1.0000
  H   H1502     1.0  0.69434  0.68771  0.48415  1.0000
  C   C957      1.0  0.88640  0.65057  0.37026  1.0000
  H   H1503     1.0  0.85609  0.62606  0.34795  1.0000
  C   C958      1.0  0.84606  0.62893  0.35754  1.0000
  N   N95       1.0  0.86067  0.62876  0.37065  1.0000
  H   H1504     1.0  0.88486  0.66992  0.36931  1.0000
  C   C959      1.0  0.82880  0.85175  0.40766  1.0000
  H   H1505     1.0  0.93764  0.76717  0.47852  1.0000
  C   C960      1.0  0.84632  0.63186  0.38310  1.0000
  S   S389      1.0  0.98441  0.79631  0.41587  1.0000
  H   H1506     1.0  0.96935  0.72033  0.48702  1.0000
  H   H1507     1.0  0.68714  0.88841  0.45956  1.0000
  H   H1508     1.0  0.84497  0.58658  0.37192  1.0000
  H   H1509     1.0  0.75683  0.72176  0.47987  1.0000
  H   H1510     1.0  0.87526  0.60286  0.38135  1.0000
  H   H1511     1.0  0.82681  0.61567  0.38368  1.0000
  H   H1512     1.0  0.72464  0.87959  0.48077  1.0000
  H   H1513     1.0  0.87231  0.84421  0.38515  1.0000
  H   H1514     1.0  0.76919  0.91043  0.46092  1.0000
  H   H1515     1.0  0.97794  0.63722  0.32321  1.0000
  H   H1516     1.0  0.81486  0.83933  0.41560  1.0000
  H   H1517     1.0  0.84200  0.86979  0.41322  1.0000
  H   H1518     1.0  0.67235  0.66440  0.44730  1.0000
  H   H1519     1.0  0.96993  0.72356  0.46806  1.0000
  H   H1520     1.0  0.73993  0.86581  0.46833  1.0000
  H   H1521     1.0  0.93182  0.72735  0.45556  1.0000
  C   C961      1.0  0.98034  0.64384  0.27972  1.0000
  S   S390      1.0  0.72517  0.96832  0.47250  1.0000
  C   C962      1.0  0.75317  0.73230  0.48864  1.0000
  H   H1522     1.0  0.97835  0.59871  0.30463  1.0000
  H   H1523     1.0  0.90630  0.73021  0.46560  1.0000
  H   H1524     1.0  0.96308  0.68263  0.33106  1.0000
  C   C963      1.0  0.72423  0.87318  0.46956  1.0000
  H   H1525     1.0  0.87216  0.84721  0.41753  1.0000
  S   S391      1.0  0.79067  0.99454  0.45449  1.0000
  C   C964      1.0  0.85791  0.82984  0.41194  1.0000
  H   H1526     1.0  0.84358  0.65068  0.38266  1.0000
  C   C965      1.0  0.66678  0.64364  0.40819  1.0000
  H   H1527     1.0  0.89785  0.65107  0.38005  1.0000
  S   S392      1.0  0.92270  0.51235  0.33446  1.0000
  H   H1528     1.0  0.81723  0.85762  0.39974  1.0000
  H   H1529     1.0  0.87546  0.87264  0.39539  1.0000
  C   C966      1.0  0.68689  0.70030  0.47780  1.0000
  H   H1530     1.0  0.86868  0.81867  0.40726  1.0000
  H   H1531     1.0  0.84490  0.81685  0.42008  1.0000
  H   H1532     1.0  0.85683  0.63174  0.39316  1.0000
  H   H1533     1.0  0.83463  0.80211  0.38887  1.0000
  H   H1534     1.0  0.70655  0.91157  0.47259  1.0000
  H   H1535     1.0  0.97068  0.71640  0.36484  1.0000
  H   H1536     1.0  0.81298  0.81854  0.38559  1.0000
  H   H1537     1.0  0.85070  0.86054  0.38194  1.0000
  H   H1538     1.0  0.69001  0.73425  0.45694  1.0000
  H   H1539     1.0  0.81080  0.80049  0.40163  1.0000
  H   H1540     1.0  0.70123  0.64490  0.37257  1.0000
  H   H1541     1.0  0.84346  0.64769  0.35625  1.0000
  H   H1542     1.0  0.82650  0.61274  0.35752  1.0000
  C   C967      1.0  0.67834  0.71325  0.45445  1.0000
  C   C968      1.0  0.70648  0.90420  0.46161  1.0000
  Fe  Fe198     1.0  0.74852  0.98602  0.45276  1.0000
  H   H1543     1.0  0.67941  0.71071  0.44277  1.0000
  C   C969      1.0  0.72671  0.88549  0.44488  1.0000
  C   C970      1.0  0.73648  0.98352  0.48915  1.0000
  H   H1544     1.0  0.71943  0.68250  0.38970  1.0000
  N   N96       1.0  0.68795  0.69581  0.46240  1.0000
  C   C971      1.0  0.95146  0.75723  0.47860  1.0000
  H   H1545     1.0  0.75605  0.93328  0.45501  1.0000
  H   H1546     1.0  0.98479  0.70629  0.31914  1.0000
  H   H1547     1.0  0.67866  0.65451  0.46461  1.0000
  H   H1548     1.0  0.70003  0.51936  0.33613  1.0000
  N   N97       1.0  0.93781  0.72839  0.47814  1.0000
  H   H1549     1.0  0.69896  0.72104  0.48072  1.0000
  H   H1550     1.0  0.72758  0.72252  0.46038  1.0000
  H   H1551     1.0  0.72317  0.68930  0.46439  1.0000
  H   H1552     1.0  0.97423  0.64708  0.34090  1.0000
  C   C972      1.0  0.70457  0.50260  0.33243  1.0000
  C   C973      1.0  0.71496  0.70159  0.45837  1.0000
  H   H1553     1.0  0.94729  0.69447  0.47628  1.0000
  H   H1554     1.0  0.91170  0.69771  0.49116  1.0000
  C   C974      1.0  0.92225  0.71940  0.49111  1.0000
  C   C975      1.0  0.98827  0.65048  0.33209  1.0000
  C   C976      1.0  0.97755  0.68545  0.32257  1.0000
  H   H1555     1.0  0.96705  0.67322  0.31336  1.0000
  H   H1556     1.0  0.67662  0.51716  0.31330  1.0000
  S   S393      1.0  0.98647  0.74023  0.39219  1.0000
  H   H1557     1.0  0.66633  0.66624  0.34528  1.0000
  C   C977      1.0  0.95689  0.71615  0.47733  1.0000
  H   H1558     1.0  0.71634  0.69767  0.44691  1.0000
  H   H1559     1.0  0.72385  0.51118  0.32726  1.0000
  S   S394      1.0  0.66254  0.54182  0.34742  1.0000
  Fe  Fe199     1.0  0.99372  0.76015  0.41411  1.0000
  C   C978      1.0  0.68259  0.50108  0.31010  1.0000
  Fe  Fe200     1.0  0.77070  0.97449  0.57542  1.0000
  S   S395      1.0  0.78439  0.94116  0.57665  1.0000
  S   S396      1.0  0.73351  0.97536  0.56661  1.0000
  C   C979      1.0  0.68223  0.98519  0.61068  1.0000
  H   H1560     1.0  0.96525  0.66214  0.67338  1.0000
  Fe  Fe201     1.0  0.95532  0.76855  0.56077  1.0000
  S   S397      1.0  0.91110  0.74928  0.56017  1.0000
  H   H1561     1.0  0.67326  0.56073  0.71872  1.0000
  Fe  Fe202     1.0  0.73690  0.79273  0.56280  1.0000
  S   S398      1.0  0.70896  0.75055  0.56232  1.0000
  S   S399      1.0  0.71890  0.82257  0.56006  1.0000
  Fe  Fe203     1.0  0.78379  0.77841  0.56877  1.0000
  S   S400      1.0  0.75891  0.73535  0.56949  1.0000
  S   S401      1.0  0.82766  0.79886  0.57095  1.0000
  Fe  Fe204     1.0  0.73987  0.74374  0.54991  1.0000
  S   S402      1.0  0.73365  0.71823  0.53021  1.0000
  Fe  Fe205     1.0  0.73005  0.74622  0.58191  1.0000
  S   S403      1.0  0.71174  0.73132  0.60361  1.0000
  S   S404      1.0  0.76591  0.78634  0.54877  1.0000
  S   S405      1.0  0.75700  0.78891  0.58274  1.0000
  H   H1562     1.0  0.85724  0.76328  0.53234  1.0000
  H   H1563     1.0  0.70730  0.58899  0.70233  1.0000
  H   H1564     1.0  0.73181  0.82365  0.59238  1.0000
  C   C980      1.0  0.96907  0.61434  0.73332  1.0000
  H   H1565     1.0  0.73782  0.61140  0.70933  1.0000
  H   H1566     1.0  0.76469  0.97483  0.53833  1.0000
  H   H1567     1.0  0.93407  0.61435  0.72386  1.0000
  H   H1568     1.0  0.95309  0.51474  0.74274  1.0000
  H   H1569     1.0  0.94147  0.64965  0.65947  1.0000
  S   S406      1.0  0.97827  0.78736  0.54134  1.0000
  H   H1570     1.0  0.66265  0.78579  0.61605  1.0000
  C   C981      1.0  0.82108  0.76021  0.51195  1.0000
  C   C982      1.0  0.67925  0.71566  0.60973  1.0000
  H   H1571     1.0  0.96872  0.62931  0.64801  1.0000
  H   H1572     1.0  0.81221  0.98876  0.53674  1.0000
  H   H1573     1.0  0.91236  0.54367  0.71321  1.0000
  H   H1574     1.0  0.69088  0.72208  0.63173  1.0000
  C   C983      1.0  0.74222  0.73385  0.51358  1.0000
  C   C984      1.0  0.74587  0.76009  0.51187  1.0000
  H   H1575     1.0  0.83201  0.81121  0.51730  1.0000
  H   H1576     1.0  0.70306  0.77692  0.58761  1.0000
  H   H1577     1.0  0.74273  0.77088  0.52069  1.0000
  H   H1578     1.0  0.73795  0.57887  0.73579  1.0000
  C   C985      1.0  0.96646  0.63058  0.70953  1.0000
  C   C986      1.0  0.88849  0.76339  0.56415  1.0000
  C   C987      1.0  0.89601  0.79027  0.56652  1.0000
  C   C988      1.0  0.87718  0.80068  0.56902  1.0000
  C   C989      1.0  0.85067  0.78438  0.56921  1.0000
  C   C990      1.0  0.84320  0.75742  0.56711  1.0000
  C   C991      1.0  0.86200  0.74705  0.56450  1.0000
  H   H1579     1.0  0.91631  0.80306  0.56630  1.0000
  H   H1580     1.0  0.88319  0.82156  0.57066  1.0000
  H   H1581     1.0  0.82296  0.74453  0.56748  1.0000
  H   H1582     1.0  0.85602  0.72620  0.56281  1.0000
  C   C992      1.0  0.76283  0.95412  0.53881  1.0000
  N   N98       1.0  0.98039  0.67051  0.65227  1.0000
  C   C993      1.0  0.68740  0.78105  0.59275  1.0000
  C   C994      1.0  0.76547  0.90826  0.57226  1.0000
  C   C995      1.0  0.77684  0.88983  0.57318  1.0000
  C   C996      1.0  0.76279  0.86353  0.56939  1.0000
  C   C997      1.0  0.73725  0.85553  0.56458  1.0000
  C   C998      1.0  0.72582  0.87395  0.56364  1.0000
  C   C999      1.0  0.73987  0.90028  0.56749  1.0000
  H   H1583     1.0  0.79667  0.89592  0.57684  1.0000
  H   H1584     1.0  0.77176  0.84948  0.57016  1.0000
  H   H1585     1.0  0.70599  0.86779  0.55999  1.0000
  H   H1586     1.0  0.73089  0.91431  0.56682  1.0000
  H   H1587     1.0  0.82523  0.74216  0.51235  1.0000
  H   H1588     1.0  0.98773  0.67921  0.63014  1.0000
  H   H1589     1.0  0.67974  0.56250  0.73733  1.0000
  H   H1590     1.0  0.85639  0.79187  0.54069  1.0000
  H   H1591     1.0  0.96829  0.69433  0.63822  1.0000
  N   N99       1.0  0.69783  0.80075  0.60416  1.0000
  C   C1000     1.0  0.73253  0.98329  0.51503  1.0000
  C   C1001     1.0  0.95446  0.61898  0.72234  1.0000
  C   C1002     1.0  0.69940  0.61087  0.72626  1.0000
  H   H1592     1.0  0.86612  0.79349  0.52260  1.0000
  H   H1593     1.0  0.82561  0.96522  0.53223  1.0000
  C   C1003     1.0  0.95952  0.66643  0.66259  1.0000
  H   H1594     1.0  0.68628  0.95075  0.60266  1.0000
  C   C1004     1.0  0.72180  0.59194  0.71099  1.0000
  H   H1595     1.0  0.66118  0.70584  0.58916  1.0000
  C   C1005     1.0  0.78324  0.95782  0.51609  1.0000
  H   H1596     1.0  0.95457  0.65980  0.63423  1.0000
  S   S407      1.0  0.97490  0.74011  0.56357  1.0000
  H   H1597     1.0  0.93470  0.72486  0.50084  1.0000
  H   H1598     1.0  0.74356  0.94168  0.53429  1.0000
  H   H1599     1.0  0.72252  0.97401  0.52456  1.0000
  H   H1600     1.0  0.79642  0.91939  0.52642  1.0000
  H   H1601     1.0  0.74620  0.61366  0.73532  1.0000
  C   C1006     1.0  0.80912  0.96768  0.53755  1.0000
  H   H1602     1.0  0.80069  0.75434  0.50823  1.0000
  H   H1603     1.0  0.79884  0.79185  0.52155  1.0000
  C   C1007     1.0  0.97231  0.67618  0.63811  1.0000
  C   C1008     1.0  0.78095  0.92293  0.53223  1.0000
  C   C1009     1.0  0.85241  0.78073  0.53054  1.0000
  N   N100      1.0  0.82518  0.77316  0.52596  1.0000
  C   C1010     1.0  0.75302  0.77234  0.49864  1.0000
  C   C1011     1.0  0.81924  0.79684  0.52501  1.0000
  H   H1604     1.0  0.83371  0.77344  0.50376  1.0000
  H   H1605     1.0  0.96807  0.56316  0.72377  1.0000
  H   H1606     1.0  0.80948  0.76439  0.54691  1.0000
  H   H1607     1.0  0.72034  0.80578  0.62338  1.0000
  H   H1608     1.0  0.69012  0.61011  0.73672  1.0000
  H   H1609     1.0  0.76433  0.94581  0.51100  1.0000
  H   H1610     1.0  0.72998  0.57672  0.70977  1.0000
  H   H1611     1.0  0.69608  0.54825  0.72606  1.0000
  C   C1012     1.0  0.72982  0.59425  0.73625  1.0000
  H   H1612     1.0  0.70814  0.95241  0.50108  1.0000
  H   H1613     1.0  0.67343  0.76202  0.59692  1.0000
  H   H1614     1.0  0.79882  0.95523  0.50989  1.0000
  H   H1615     1.0  0.95592  0.54593  0.70747  1.0000
  H   H1616     1.0  0.81243  0.73722  0.53795  1.0000
  H   H1617     1.0  0.81011  0.96319  0.54903  1.0000
  H   H1618     1.0  0.68417  0.60834  0.71807  1.0000
  C   C1013     1.0  0.98598  0.64661  0.65150  1.0000
  C   C1014     1.0  0.80787  0.75486  0.53639  1.0000
  H   H1619     1.0  0.70531  0.83345  0.59004  1.0000
  H   H1620     1.0  0.74334  0.69970  0.50322  1.0000
  H   H1621     1.0  0.78197  0.91723  0.54350  1.0000
  N   N101      1.0  0.70999  0.59036  0.72508  1.0000
  H   H1622     1.0  0.89732  0.52907  0.72950  1.0000
  C   C1015     1.0  0.91625  0.54073  0.72453  1.0000
  C   C1016     1.0  0.67576  0.95816  0.60979  1.0000
  C   C1017     1.0  0.68888  0.56428  0.72680  1.0000
  C   C1018     1.0  0.93941  0.52461  0.74121  1.0000
  H   H1623     1.0  0.76192  0.90940  0.52789  1.0000
  H   H1624     1.0  0.82190  0.80689  0.53550  1.0000
  N   N102      1.0  0.78404  0.95061  0.53114  1.0000
  C   C1019     1.0  0.72433  0.97115  0.50170  1.0000
  H   H1625     1.0  0.72855  0.78827  0.60958  1.0000
  C   C1020     1.0  0.71546  0.82589  0.59800  1.0000
  H   H1626     1.0  0.67757  0.78786  0.58427  1.0000
  S   S408      1.0  0.98250  0.79797  0.57610  1.0000
  C   C1021     1.0  0.71216  0.79148  0.61460  1.0000
  H   H1627     1.0  0.76287  0.94890  0.55019  1.0000
  C   C1022     1.0  0.74581  0.71994  0.50190  1.0000
  H   H1628     1.0  0.69951  0.77237  0.61933  1.0000
  H   H1629     1.0  0.78728  0.74802  0.53303  1.0000
  H   H1630     1.0  0.68336  0.81930  0.61990  1.0000
  H   H1631     1.0  0.75566  0.79265  0.49745  1.0000
  H   H1632     1.0  0.71473  0.63087  0.72506  1.0000
  H   H1633     1.0  0.95492  0.68415  0.66351  1.0000
  H   H1634     1.0  0.72396  0.84125  0.60625  1.0000
  H   H1635     1.0  0.92405  0.56034  0.72972  1.0000
  H   H1636     1.0  0.78581  0.97875  0.51501  1.0000
  H   H1637     1.0  0.99227  0.64184  0.66200  1.0000
  C   C1023     1.0  0.67620  0.80448  0.61127  1.0000
  C   C1024     1.0  0.67469  0.71394  0.62445  1.0000
  H   H1638     1.0  0.95506  0.63470  0.70130  1.0000
  C   C1025     1.0  0.95897  0.54324  0.71895  1.0000
  H   H1639     1.0  0.66490  0.81124  0.60361  1.0000
  C   C1026     1.0  0.66815  0.99434  0.62002  1.0000
  H   H1640     1.0  0.91855  0.50243  0.70795  1.0000
  H   H1641     1.0  0.97319  0.53386  0.71985  1.0000
  N   N103      1.0  0.93438  0.52743  0.72601  1.0000
  C   C1027     1.0  0.99311  0.63732  0.70737  1.0000
  C   C1028     1.0  0.92278  0.50115  0.71941  1.0000
  Fe  Fe206     1.0  0.67405  0.54415  0.76499  1.0000
  H   H1642     1.0  0.76086  0.81496  0.96776  1.0000
  H   H1643     1.0  0.78062  0.53501  0.87568  1.0000
  S   S409      1.0  0.76941  0.77011  0.98165  1.0000
  Fe  Fe207     1.0  0.73421  0.73231  0.98261  1.0000
  S   S410      1.0  0.71321  0.71512  0.96177  1.0000
  Fe  Fe208     1.0  0.89949  0.59016  0.92158  1.0000
  S   S411      1.0  0.87686  0.54737  0.92647  1.0000
  S   S412      1.0  0.91245  0.61488  0.94194  1.0000
  Fe  Fe209     1.0  0.88955  0.57953  0.88947  1.0000
  S   S413      1.0  0.86639  0.53645  0.89225  1.0000
  S   S414      1.0  0.89218  0.59905  0.86797  1.0000
  Fe  Fe210     1.0  0.84806  0.54907  0.91029  1.0000
  S   S415      1.0  0.80530  0.52871  0.91457  1.0000
  Fe  Fe211     1.0  0.89708  0.53823  0.90817  1.0000
  S   S416      1.0  0.86890  0.59212  0.90656  1.0000
  S   S417      1.0  0.92206  0.58094  0.90419  1.0000
  Fe  Fe212     1.0  0.87223  0.52494  0.75868  1.0000
  S   S418      1.0  0.91041  0.54391  0.76956  1.0000
  Fe  Fe213     1.0  0.85689  0.57017  0.76552  1.0000
  S   S419      1.0  0.89526  0.59307  0.77653  1.0000
  H   H1644     1.0  0.72404  0.58519  0.91592  1.0000
  C   C1029     1.0  0.79587  0.52882  0.87156  1.0000
  Fe  Fe214     1.0  0.88904  0.55455  0.78683  1.0000
  S   S420      1.0  0.90000  0.54655  0.80917  1.0000
  S   S421      1.0  0.85011  0.53224  0.77678  1.0000
  C   C1030     1.0  0.78172  0.54539  0.75863  1.0000
  C   C1031     1.0  0.68213  0.65070  0.93612  1.0000
  H   H1645     1.0  0.78456  0.60292  0.77253  1.0000
  H   H1646     1.0  0.92918  0.57176  0.93977  1.0000
  C   C1032     1.0  0.69176  0.67659  0.94149  1.0000
  H   H1647     1.0  0.94252  0.55052  0.94783  1.0000
  C   C1033     1.0  0.68318  0.63023  0.94446  1.0000
  C   C1034     1.0  0.75904  0.63959  0.93497  1.0000
  H   H1648     1.0  0.69010  0.69208  0.93508  1.0000
  H   H1649     1.0  0.72192  0.76440  0.94152  1.0000
  H   H1650     1.0  0.95401  0.60731  0.95601  1.0000
  C   C1035     1.0  0.79272  0.57084  0.76416  1.0000
  C   C1036     1.0  0.74973  0.82160  0.95993  1.0000
  N   N104      1.0  0.75002  0.61161  0.93102  1.0000
  C   C1037     1.0  0.73822  0.54531  0.76088  1.0000
  C   C1038     1.0  0.74916  0.57047  0.76676  1.0000
  C   C1039     1.0  0.77626  0.58327  0.76820  1.0000
  H   H1651     1.0  0.82044  0.51621  0.85058  1.0000
  H   H1652     1.0  0.67310  0.64648  0.92572  1.0000
  C   C1040     1.0  0.78444  0.54281  0.90782  1.0000
  C   C1041     1.0  0.75765  0.52980  0.90965  1.0000
  C   C1042     1.0  0.74047  0.53974  0.90350  1.0000
  C   C1043     1.0  0.75009  0.56256  0.89534  1.0000
  C   C1044     1.0  0.77688  0.57596  0.89384  1.0000
  C   C1045     1.0  0.79404  0.56624  0.90017  1.0000
  S   S422      1.0  0.91602  0.50870  0.90990  1.0000
  H   H1653     1.0  0.71980  0.52930  0.90468  1.0000
  H   H1654     1.0  0.83745  0.57323  0.87503  1.0000
  H   H1655     1.0  0.81463  0.57654  0.89885  1.0000
  C   C1046     1.0  0.89331  0.58354  0.85176  1.0000
  C   C1047     1.0  0.88730  0.59330  0.83903  1.0000
  C   C1048     1.0  0.88805  0.58147  0.82592  1.0000
  C   C1049     1.0  0.89568  0.56030  0.82541  1.0000
  C   C1050     1.0  0.90151  0.55048  0.83815  1.0000
  C   C1051     1.0  0.90003  0.56181  0.85128  1.0000
  H   H1656     1.0  0.88192  0.61003  0.83933  1.0000
  H   H1657     1.0  0.88308  0.58899  0.81623  1.0000
  H   H1658     1.0  0.90740  0.53408  0.83786  1.0000
  H   H1659     1.0  0.90468  0.55411  0.86100  1.0000
  C   C1052     1.0  0.82992  0.53671  0.85451  1.0000
  C   C1053     1.0  0.70515  0.66218  0.96319  1.0000
  C   C1054     1.0  0.70306  0.68247  0.95511  1.0000
  H   H1660     1.0  0.78224  0.61673  0.91744  1.0000
  C   C1055     1.0  0.94266  0.62238  0.80354  1.0000
  H   H1661     1.0  0.71430  0.66649  0.97353  1.0000
  S   S423      1.0  0.70438  0.52924  0.75769  1.0000
  C   C1056     1.0  0.73676  0.59511  0.94318  1.0000
  H   H1662     1.0  0.76347  0.83326  0.95169  1.0000
  H   H1663     1.0  0.78601  0.50829  0.86775  1.0000
  C   C1057     1.0  0.97386  0.69437  0.95742  1.0000
  C   C1058     1.0  0.97337  0.68666  0.94315  1.0000
  C   C1059     1.0  0.95442  0.66283  0.93808  1.0000
  C   C1060     1.0  0.93583  0.64615  0.94731  1.0000
  C   C1061     1.0  0.93638  0.65381  0.96158  1.0000
  C   C1062     1.0  0.95513  0.67778  0.96660  1.0000
  H   H1664     1.0  0.80384  0.56055  0.83994  1.0000
  H   H1665     1.0  0.95421  0.65748  0.92705  1.0000
  H   H1666     1.0  0.92217  0.64109  0.96884  1.0000
  H   H1667     1.0  0.91162  0.74859  0.98998  1.0000
  C   C1063     1.0  0.94582  0.56563  0.93946  1.0000
  Fe  Fe215     1.0  0.91378  0.58073  0.75822  1.0000
  H   H1668     1.0  0.72927  0.57388  0.94042  1.0000
  H   H1669     1.0  0.77844  0.55444  0.85259  1.0000
  H   H1670     1.0  0.80850  0.52864  0.88073  1.0000
  H   H1671     1.0  0.81087  0.58163  0.86977  1.0000
  H   H1672     1.0  0.71494  0.61125  0.92151  1.0000
  H   H1673     1.0  0.76614  0.58422  0.92424  1.0000
  H   H1674     1.0  0.72155  0.59319  0.74702  1.0000
  C   C1064     1.0  0.71343  0.80899  0.94366  1.0000
  H   H1675     1.0  0.95778  0.61391  0.92956  1.0000
  H   H1676     1.0  0.76901  0.65252  0.92597  1.0000
  H   H1677     1.0  0.74644  0.51338  0.75230  1.0000
  C   C1065     1.0  0.77233  0.60537  0.92694  1.0000
  S   S424      1.0  0.67729  0.59778  0.89652  1.0000
  H   H1678     1.0  0.72602  0.82041  0.93492  1.0000
  H   H1679     1.0  0.71985  0.59936  0.94653  1.0000
  H   H1680     1.0  0.78434  0.59385  0.88770  1.0000
  H   H1681     1.0  0.92447  0.60467  0.80467  1.0000
  H   H1682     1.0  0.66684  0.63700  0.98375  1.0000
  H   H1683     1.0  0.74113  0.61764  0.90933  1.0000
  H   H1684     1.0  0.72094  0.77669  0.97282  1.0000
  C   C1066     1.0  0.75464  0.53282  0.75688  1.0000
  H   H1685     1.0  0.70275  0.79673  0.97121  1.0000
  C   C1067     1.0  0.96794  0.60216  0.81584  1.0000
  H   H1686     1.0  0.94044  0.63290  0.79386  1.0000
  C   C1068     1.0  0.97421  0.60750  0.93010  1.0000
  H   H1687     1.0  0.84443  0.53719  0.86276  1.0000
  Fe  Fe216     1.0  0.68835  0.56326  0.89403  1.0000
  H   H1688     1.0  0.74281  0.83506  0.96576  1.0000
  H   H1689     1.0  0.78253  0.52744  0.84397  1.0000
  H   H1690     1.0  0.77284  0.64443  0.94410  1.0000
  H   H1691     1.0  0.95526  0.68330  0.97760  1.0000
  H   H1692     1.0  0.78691  0.60978  0.93566  1.0000
  S   S425      1.0  0.72938  0.57459  0.88652  1.0000
  C   C1069     1.0  0.97036  0.60079  0.95543  1.0000
  H   H1693     1.0  0.84080  0.54892  0.84549  1.0000
  C   C1070     1.0  0.96142  0.59689  0.79051  1.0000
  N   N105      1.0  0.97063  0.58829  0.94162  1.0000
  C   C1071     1.0  0.79313  0.54722  0.84865  1.0000
  H   H1694     1.0  0.67165  0.59303  0.85717  1.0000
  S   S426      1.0  0.66846  0.59845  0.80526  1.0000
  H   H1695     1.0  0.73682  0.58024  0.77007  1.0000
  C   C1072     1.0  0.82461  0.57317  0.86594  1.0000
  H   H1696     1.0  0.98770  0.69936  0.93593  1.0000
  H   H1697     1.0  0.96810  0.58703  0.96441  1.0000
  C   C1073     1.0  0.73176  0.60625  0.91893  1.0000
  H   H1698     1.0  0.94413  0.57841  0.79210  1.0000
  H   H1699     1.0  0.69682  0.79256  0.93878  1.0000
  C   C1074     1.0  0.69496  0.63620  0.95798  1.0000
  H   H1700     1.0  0.79413  0.53562  0.75541  1.0000
  H   H1701     1.0  0.74254  0.64483  0.93806  1.0000
  H   H1702     1.0  0.97831  0.59142  0.78912  1.0000
  S   S427      1.0  0.87604  0.56117  0.74641  1.0000
  H   H1703     1.0  0.74894  0.77399  0.95338  1.0000
  S   S428      1.0  0.82680  0.58837  0.76551  1.0000
  H   H1704     1.0  0.68624  0.68392  0.99040  1.0000
  S   S429      1.0  0.67578  0.58521  0.76499  1.0000
  H   H1705     1.0  0.70556  0.82209  0.94909  1.0000
  C   C1075     1.0  0.71050  0.78425  0.96511  1.0000
  H   H1706     1.0  0.97531  0.59902  0.91956  1.0000
  C   C1076     1.0  0.73793  0.78180  0.94612  1.0000
  H   H1707     1.0  0.83711  0.58675  0.85781  1.0000
  H   H1708     1.0  0.74998  0.59841  0.95249  1.0000
  H   H1709     1.0  0.75108  0.79225  0.93737  1.0000
  N   N106      1.0  0.81087  0.54646  0.86017  1.0000
  H   H1710     1.0  0.97051  0.61518  0.82520  1.0000
  H   H1711     1.0  0.92124  0.51261  0.74681  1.0000
  N   N107      1.0  0.96525  0.61511  0.80254  1.0000
  N   N108      1.0  0.72792  0.79917  0.95370  1.0000
  H   H1712     1.0  0.69601  0.62057  0.96451  1.0000
  H   H1713     1.0  0.75015  0.51168  0.91560  1.0000
  H   H1714     1.0  0.69393  0.76698  0.96088  1.0000
  S   S430      1.0  0.67117  0.54416  0.91455  1.0000
  H   H1715     1.0  0.69044  0.59982  0.83303  1.0000
  H   H1716     1.0  0.98843  0.61848  0.95726  1.0000
  H   H1717     1.0  0.94420  0.63520  0.81287  1.0000
  H   H1718     1.0  0.94503  0.55596  0.92901  1.0000
  C   C1077     1.0  0.66974  0.59348  0.83425  1.0000
  H   H1719     1.0  0.95844  0.60569  0.78036  1.0000
  H   H1720     1.0  0.86414  0.73227  0.98590  1.0000
  H   H1721     1.0  0.95041  0.58404  0.81782  1.0000
  C   C1078     1.0  0.98885  0.63895  0.80024  1.0000
  H   H1722     1.0  0.98473  0.59630  0.81547  1.0000
  H   H1723     1.0  0.98745  0.64890  0.79016  1.0000
  C   C1079     1.0  0.87345  0.74870  0.99297  1.0000
  S   S431      1.0  0.66899  0.59681  0.93894  1.0000
  H   H1724     1.0  0.99012  0.56484  0.95008  1.0000
  H   H1725     1.0  0.99213  0.62544  0.93169  1.0000
  S   S432      1.0  0.95543  0.60106  0.75007  1.0000
  H   H1726     1.0  0.99211  0.65329  0.80903  1.0000
  H   H1727     1.0  0.99267  0.56953  0.93121  1.0000
  C   C1080     1.0  0.99213  0.57926  0.94147  1.0000
  H   H1728     1.0  0.94789  0.54406  0.74657  1.0000
