data_image0
_chemical_formula_structural       FeS2FeS2FeSFeS3FeS2FeS2FeSFeS3FeS2FeS2FeSFeS3FeS2FeS2FeSFeS3C6H4C6H4C6H4C6H4C6H4C6H4C6H4C6H4FeS2FeS2FeSFeS3FeS2FeS2FeSFeS3FeS2FeS2FeSFeS3FeS2FeS2FeSFeS3C6H4C6H4C6H4C6H4C6H4C6H4C6H4C6H4FeS2FeS2FeSFeS3FeS2FeS2FeSFeS3FeS2FeS2FeSFeS3FeS2FeS2FeSFeS3C6H4C6H4C6H4C6H4C6H4C6H4C6H4C6H4FeS2FeS2FeSFeS3FeS2FeS2FeSFeS3FeS2FeS2FeSFeS3FeS2FeS2FeSFeS3C6H4C6H4C6H4C6H4C6H4C6H4C6H4C6H4NC4H12NC4H12NC4H12NC4H12NC4H12NC4H12NC4H12NC4H12NC4H12NC4H12NC4H12NC4H12NC4H12NC4H12NC4H12NC4H12NC4H12NC4H12NC4H12NC4H12NC4H12NC4H12NC4H12NC4H12NC4H12NC4H12NC4H12NC4H12NC4H12NC4H12NC4H12NC4H12
_chemical_formula_sum              "Fe64 S128 C320 H512 N32"
_cell_length_a       41.551217429245455
_cell_length_b       41.56832246996452
_cell_length_c       35.47715053309298
_cell_angle_alpha    90.2077227539225
_cell_angle_beta     89.39568241887291
_cell_angle_gamma    111.55460928778359

_space_group_name_H-M_alt    "P 1"
_space_group_IT_number       1

loop_
  _space_group_symop_operation_xyz
  'x, y, z'

loop_
  _atom_site_type_symbol
  _atom_site_label
  _atom_site_symmetry_multiplicity
  _atom_site_fract_x
  _atom_site_fract_y
  _atom_site_fract_z
  _atom_site_occupancy
  Fe  Fe1       1.0  0.21666865293518273  0.34022778241466695  0.4110274344801807  1.0000
  S   S1        1.0  0.17819512740824045  0.36444955742342433  0.42603325226628785  1.0000
  S   S2        1.0  0.23544909812273843  0.33437594691863287  0.351872900163193  1.0000
  Fe  Fe2       1.0  0.2229843300664555  0.31973295313020667  0.49184986562653393  1.0000
  S   S3        1.0  0.1841196109629622  0.3417130370613868  0.5130507615963987  1.0000
  S   S4        1.0  0.24707476313231155  0.2975454382826839  0.5370641052119238  1.0000
  Fe  Fe3       1.0  0.1529258430788084  0.3174161639133032  0.4623896270570659  1.0000
  S   S5        1.0  0.09412450917845216  0.2962566044070885  0.45813416692442593  1.0000
  Fe  Fe4       1.0  0.21194896892955273  0.38746407334983  0.4759684334358885  1.0000
  S   S6        1.0  0.21371046086982098  0.43888479695386023  0.500749641891739  1.0000
  S   S7        1.0  0.18929645573584586  0.291368919665902  0.44395997882707333  1.0000
  S   S8        1.0  0.2531397839143355  0.36720396403463107  0.45805829737591786  1.0000
  Fe  Fe5       1.0  0.350798128547343  0.17398812222921844  0.549852959097085  1.0000
  S   S9        1.0  0.3707549412914639  0.13508435629305143  0.5251644347796706  1.0000
  S   S10       1.0  0.3222705791928769  0.19159735333679775  0.5052341646137273  1.0000
  Fe  Fe6       1.0  0.3806824271949013  0.16923027027310475  0.6273781815978762  1.0000
  S   S11       1.0  0.4025655939271767  0.12985101768662394  0.6075980657007972  1.0000
  S   S12       1.0  0.389738874627002  0.19403679382570677  0.685516525053775  1.0000
  Fe  Fe7       1.0  0.4199061285894331  0.1641277691296953  0.5561449645089636  1.0000
  S   S13       1.0  0.4691063119227988  0.17724123656220922  0.520542002307903  1.0000
  Fe  Fe8       1.0  0.35130122829329136  0.10482709863512009  0.5780892969536267  1.0000
  S   S14       1.0  0.31401385360173173  0.04864905561967005  0.5824308225493203  1.0000
  S   S15       1.0  0.40108597405361707  0.20493908667310134  0.5774616182059902  1.0000
  S   S16       1.0  0.32844566917073553  0.14230572702859087  0.6014278419709567  1.0000
  Fe  Fe9       1.0  0.3577058054486361  0.1156143188063393  0.9822686296193959  1.0000
  S   S17       1.0  0.32322843806069645  0.12468423559658036  0.9384507155305654  1.0000
  S   S18       1.0  0.34352267423944305  0.07029838501714507  0.023582309836517545  1.0000
  Fe  Fe10      1.0  0.4207891650140641  0.1792318362997472  0.9587098223414176  1.0000
  S   S19       1.0  0.39061750787360666  0.1921322735098362  0.9126231471342571  1.0000
  S   S20       1.0  0.47696284914771725  0.21740173782025315  0.9591929651541902  1.0000
  Fe  Fe11      1.0  0.34737833771139076  0.18077416213149358  0.9550121315071589  1.0000
  S   S21       1.0  0.3203056904561812  0.21927551565923475  0.9498115662286662  1.0000
  Fe  Fe12      1.0  0.3689668420360196  0.13575109607974845  0.8991341645860402  1.0000
  S   S22       1.0  0.35793375511804376  0.1113998702170792  0.8407753279289076  1.0000
  S   S23       1.0  0.37869948861372443  0.17142873457435004  0.0022435522313293266  1.0000
  S   S24       1.0  0.4021624597330239  0.12302847641796645  0.9418003999016806  1.0000
  Fe  Fe13      1.0  0.18055306734906842  0.3350763877354184  0.1398301648340903  1.0000
  S   S25       1.0  0.16905145965848803  0.36750222156146756  0.09527840497166441  1.0000
  S   S26       1.0  0.1594047479971588  0.3393149583027578  0.19839146134367544  1.0000
  Fe  Fe14      1.0  0.2207509667179233  0.30798442804045334  0.08358496383558768  1.0000
  S   S27       1.0  0.21344768059951708  0.3397784683968774  0.03537433980299998  1.0000
  S   S28       1.0  0.2457344028531252  0.26761506492836906  0.08395974604885749  1.0000
  Fe  Fe15      1.0  0.2249104978819489  0.38307327396005886  0.07791038309043118  1.0000
  S   S29       1.0  0.2539786071774306  0.44168030211757464  0.0781755564929377  1.0000
  Fe  Fe16      1.0  0.15812803820845941  0.3218668567119733  0.0568065879643456  1.0000
  S   S30       1.0  0.1137124858644226  0.30743538826649913  0.014978899756627804  1.0000
  S   S31       1.0  0.2368292056687202  0.35255738235527545  0.1246204466783955  1.0000
  S   S32       1.0  0.16486094017816186  0.28795064475794313  0.10263294601910442  1.0000
  C   C1        1.0  0.5090993836562846  0.2317798882714022  0.9946919451446303  1.0000
  C   C2        1.0  0.502471314322777  0.22096726714494405  0.032237481618667956  1.0000
  C   C3        1.0  0.05188718410216155  0.2658317258413965  0.9846479151396375  1.0000
  C   C4        1.0  0.07566318073692116  0.26963820089514073  0.013813823643437164  1.0000
  C   C5        1.0  0.06879940992621672  0.24325966063881377  0.04057586549649561  1.0000
  C   C6        1.0  0.038964750607619274  0.2129531168134081  0.0374091171676838  1.0000
  H   H1        1.0  0.4775249114233673  0.20203226934887264  0.04018319084940917  1.0000
  H   H2        1.0  0.05698792032732164  0.2860879267737274  0.9637814539710953  1.0000
  H   H3        1.0  0.08651447054659449  0.24616160801731413  0.06356513949943166  1.0000
  H   H4        1.0  0.5473693667800716  0.26465530971977164  0.9560121314047026  1.0000
  C   C7        1.0  0.3056162916812901  0.03229974593532379  0.024406613545836287  1.0000
  C   C8        1.0  0.27651875521181407  0.029030524981523136  0.002973319967050525  1.0000
  C   C9        1.0  0.28709421522011996  0.506044674344718  0.047127161869184794  1.0000
  C   C10       1.0  0.2777631396239197  0.47018676804133486  0.0418834008699503  1.0000
  C   C11       1.0  0.2888099015886439  0.45836633418107803  0.009076221354842318  1.0000
  C   C12       1.0  0.30933449090452825  0.48223933825163595  0.9821327971126866  1.0000
  H   H5        1.0  0.2769156778439702  0.050082041425545884  0.9848945619163296  1.0000
  H   H6        1.0  0.27862649630421943  0.5154974319205667  0.0723258028197043  1.0000
  H   H7        1.0  0.2819619356919936  0.43089386956528775  0.004698316391422264  1.0000
  H   H8        1.0  0.31812364240575924  0.47284956551460333  0.9570894853959203  1.0000
  C   C13       1.0  0.30065347084118543  0.23317152027267168  0.9877323065387229  1.0000
  C   C14       1.0  0.28741569617095114  0.25932443420979157  0.9814530986266392  1.0000
  C   C15       1.0  0.2712185834941627  0.2708289241203415  0.010811098591103407  1.0000
  C   C16       1.0  0.2679112081022462  0.255998913891667  0.04665902513188434  1.0000
  C   C17       1.0  0.2812978790491303  0.22996668391472797  0.05292285361967952  1.0000
  C   C18       1.0  0.2977265880898546  0.21866181689930023  0.02365900235948204  1.0000
  H   H9        1.0  0.289790029054855  0.27083246379903964  0.9537550370899093  1.0000
  H   H10       1.0  0.2612978360971223  0.29108893201911346  0.005678428640536692  1.0000
  H   H11       1.0  0.2787543316826513  0.21830070330295592  0.08056893548210642  1.0000
  H   H12       1.0  0.3077341863984545  0.19845431544730302  0.028831288323846405  1.0000
  C   C19       1.0  0.3833493263097691  0.17002007305869554  0.7279129760309873  1.0000
  C   C20       1.0  0.36392480257524684  0.1345111476178716  0.7290142890648457  1.0000
  C   C21       1.0  0.35717887397167586  0.1167775085587119  0.7637253910656219  1.0000
  C   C22       1.0  0.3699846321553076  0.13424502862118484  0.7975837075727258  1.0000
  C   C23       1.0  0.3902326419209945  0.16957908182508577  0.7963582518271839  1.0000
  C   C24       1.0  0.39657622367964174  0.18740874886713058  0.7617108021209895  1.0000
  H   H13       1.0  0.35363340472961846  0.12082868472183368  0.7031964188829701  1.0000
  H   H14       1.0  0.34166596412789024  0.08941580708347907  0.764349579323631  1.0000
  H   H15       1.0  0.40076102806222186  0.18325561122380227  0.8220896348162225  1.0000
  H   H16       1.0  0.41181736220025267  0.21483657729557226  0.7610517149318392  1.0000
  C   C25       1.0  0.21396881380685565  0.33604231743430685  0.30956101168255  1.0000
  C   C26       1.0  0.18513804684426294  0.34576644021715414  0.30912390271028756  1.0000
  C   C27       1.0  0.16829792332459118  0.34599580159026344  0.274920439308195  1.0000
  C   C28       1.0  0.18039829924633677  0.33697207359682174  0.2408385340841558  1.0000
  C   C29       1.0  0.20931776480258216  0.32741038704707115  0.24126078271113852  1.0000
  C   C30       1.0  0.22599506397126676  0.32696505145457905  0.2754952672577049  1.0000
  H   H17       1.0  0.17604399169332807  0.3533712284147791  0.33508503860339534  1.0000
  H   H18       1.0  0.14612789562567963  0.3537531896359632  0.27474348586457725  1.0000
  H   H19       1.0  0.21887091246435333  0.32036728677833154  0.215233541808832  1.0000
  H   H20       1.0  0.24831215769638842  0.3194200331534605  0.27561169433429633  1.0000
  C   C31       1.0  0.5049633387965611  0.21693849065563584  0.521568156038455  1.0000
  C   C32       1.0  0.5100612568502316  0.2405681742619299  0.5511805355229743  1.0000
  C   C33       1.0  0.029246121930414454  0.25691923611758605  0.4847677219687445  1.0000
  C   C34       1.0  0.06505222680671337  0.26556079509345154  0.4891616364267521  1.0000
  C   C35       1.0  0.0767416955738802  0.2500577792784224  0.5181322463645156  1.0000
  C   C36       1.0  0.05274521663907708  0.2258547441121604  0.5422201450466507  1.0000
  H   H21       1.0  0.4915460354151257  0.23489898765286724  0.5742482263482014  1.0000
  H   H22       1.0  0.019920193917714536  0.2688578994669736  0.46252292346933105  1.0000
  H   H23       1.0  0.10420422859495282  0.2564597419299478  0.5219203025026817  1.0000
  H   H24       1.0  0.5255509101680121  0.20666224560020352  0.4687922543964616  1.0000
  C   C37       1.0  0.25110745233274634  0.4774720040560045  0.5025443116535186  1.0000
  C   C38       1.0  0.24877481815042854  0.5069493215393199  0.520141496507971  1.0000
  C   C39       1.0  0.31275259013058704  0.02396182296086511  0.5092846014306256  1.0000
  C   C40       1.0  0.29865298418887887  0.017857129765224793  0.5456996912357371  1.0000
  C   C41       1.0  0.31189975042462786  0.5106246111071712  0.4890672353340428  1.0000
  C   C42       1.0  0.2828750113798458  0.4794662472422284  0.48703919106850146  1.0000
  H   H25       1.0  0.22427552226862424  0.5058040224973346  0.5319542686853367  1.0000
  H   H26       1.0  0.333889120315685  0.047972541283521374  0.5029875517642445  1.0000
  H   H27       1.0  0.33633987276344357  0.511855512965594  0.4769608986160379  1.0000
  H   H28       1.0  0.2850657092374338  0.45706364211080713  0.4733058561276249  1.0000
  C   C43       1.0  0.26822927934995816  0.26841987185154215  0.5274941430941105  1.0000
  C   C44       1.0  0.2836535481783668  0.2573169491554959  0.5572960423241526  1.0000
  C   C45       1.0  0.300520220503245  0.23394528842749776  0.5508895967650398  1.0000
  C   C46       1.0  0.30189746465166234  0.22138346761205593  0.5145700726712131  1.0000
  C   C47       1.0  0.286503981878325  0.23243860561177862  0.4847419819409407  1.0000
  C   C48       1.0  0.26979139481956216  0.2559510126410645  0.4911248591528633  1.0000
  H   H29       1.0  0.2825314867503239  0.26688656837712527  0.585494294531478  1.0000
  H   H30       1.0  0.3122962634572903  0.22562404487954305  0.5740773516302358  1.0000
  H   H31       1.0  0.28748349896941094  0.22283020970028242  0.4565435961092863  1.0000
  H   H32       1.0  0.25803967000303857  0.26437069704889615  0.4679908350165412  1.0000
  Fe  Fe17      1.0  0.16761657110283332  0.8352747056089597  0.3906045372808993  1.0000
  S   S33       1.0  0.15931984127611384  0.8701516714895015  0.4352010868742234  1.0000
  S   S34       1.0  0.14456004504036687  0.8301632301158407  0.33194754457478587  1.0000
  Fe  Fe18      1.0  0.20835531401929386  0.8068813138466736  0.4441963434684795  1.0000
  S   S35       1.0  0.2029477200213668  0.8392686047083311  0.4930240118776195  1.0000
  S   S36       1.0  0.24314252562166289  0.7758219490102617  0.4378038352068112  1.0000
  Fe  Fe19      1.0  0.14728943194393132  0.8239819377522998  0.47380964818889226  1.0000
  S   S37       1.0  0.10213369980354042  0.811486933867077  0.5157457260248162  1.0000
  Fe  Fe20      1.0  0.2150485859649813  0.8826195660434749  0.45086714199895145  1.0000
  S   S38       1.0  0.2587048532455923  0.935704448366793  0.4524132902329665  1.0000
  S   S39       1.0  0.15212089232857337  0.7883277104893469  0.42818865718131616  1.0000
  S   S40       1.0  0.22379526053426244  0.8509160987838169  0.40305094957765997  1.0000
  Fe  Fe21      1.0  0.3376163104800748  0.6871111116191824  0.5728816397353638  1.0000
  S   S41       1.0  0.3720140198466556  0.681843266541769  0.5254310783134412  1.0000
  S   S42       1.0  0.30063690527395026  0.7161332430194526  0.5758518283256739  1.0000
  Fe  Fe22      1.0  0.3644847532086666  0.6471470985023772  0.6292388973736694  1.0000
  S   S43       1.0  0.4006808399848413  0.6393148874533219  0.5860181479964848  1.0000
  S   S44       1.0  0.3636085592408628  0.6203833219848354  0.6854453019392296  1.0000
  Fe  Fe23      1.0  0.41394731641117655  0.6947548209372341  0.5693181898486283  1.0000
  S   S45       1.0  0.4696576193071854  0.7340741882401927  0.5718440579328747  1.0000
  Fe  Fe24      1.0  0.3559762318623191  0.6263648810199189  0.5460085169719918  1.0000
  S   S46       1.0  0.3477149091546013  0.5778307691405524  0.5108143084740616  1.0000
  S   S47       1.0  0.38032343727270296  0.7033795735264395  0.6156000793875385  1.0000
  S   S48       1.0  0.3189678715645675  0.6309862298776172  0.5902953829055507  1.0000
  Fe  Fe25      1.0  0.3613184023007682  0.6057543729926081  0.9537696562598728  1.0000
  S   S49       1.0  0.3292871103555158  0.6349422884942995  0.9321567072013306  1.0000
  S   S50       1.0  0.3464417484371272  0.5471558710357296  0.9538989897651537  1.0000
  Fe  Fe26      1.0  0.4235402310127407  0.6719251887007203  0.97086449161738  1.0000
  S   S51       1.0  0.39635638110565624  0.7069237920620607  0.9514407535924867  1.0000
  S   S52       1.0  0.4762821979852037  0.6802523501796434  0.9966017770867365  1.0000
  Fe  Fe27      1.0  0.3493724355242444  0.6703466900160899  0.9816152825896057  1.0000
  S   S53       1.0  0.31012958691455644  0.6820541584306696  0.018535498368717374  1.0000
  Fe  Fe28      1.0  0.3776778719534604  0.669661213170135  0.9026045718173844  1.0000
  S   S54       1.0  0.37463729500621534  0.6936352674706148  0.8455997150046848  1.0000
  S   S55       1.0  0.3777888533959533  0.6383786437668416  0.005494414883419507  1.0000
  S   S56       1.0  0.40838076026149717  0.6375734129072428  0.9196288022364193  1.0000
  Fe  Fe29      1.0  0.20866993436248293  0.8380096098760014  0.12089606678818668  1.0000
  S   S57       1.0  0.1656010840024133  0.854274033415941  0.101907419378279  1.0000
  S   S58       1.0  0.23161910069960853  0.8471243429969102  0.17979405991227423  1.0000
  Fe  Fe30      1.0  0.22349183858397587  0.8194648133463852  0.04037290251078526  1.0000
  S   S59       1.0  0.1808706449236724  0.8341512834351444  0.01590346227254824  1.0000
  S   S60       1.0  0.2621593530821765  0.8099039003302243  0.00021539077074694823  1.0000
  Fe  Fe31      1.0  0.2010731516126054  0.8807441969917339  0.05380574429647052  1.0000
  S   S61       1.0  0.2066821614997184  0.9342982768408599  0.03251523059467869  1.0000
  Fe  Fe32      1.0  0.14897432933533974  0.8061652528305034  0.06584404194902596  1.0000
  S   S62       1.0  0.09165488562268134  0.7715020733524398  0.07078779114894146  1.0000
  S   S63       1.0  0.2452419498681575  0.8678245037553627  0.07506498472971052  1.0000
  S   S64       1.0  0.19051106270154772  0.7881414438612946  0.08800832471534785  1.0000
  C   C49       1.0  0.5110179763839092  0.7202118489376136  0.004338428433104946  1.0000
  C   C50       1.0  0.5111194687481384  0.7514313619517738  0.9896862695135569  1.0000
  C   C51       1.0  0.024669604652461413  0.7393064744335666  0.04656094909454476  1.0000
  C   C52       1.0  0.05953988403490494  0.7558493313494257  0.03544940465504189  1.0000
  C   C53       1.0  0.06781239723696587  0.758548710729608  0.9969816777259941  1.0000
  C   C54       1.0  0.041548870383332104  0.7445728329830813  0.9700628816327298  1.0000
  H   H33       1.0  0.48923884880001406  0.751751953994812  0.9736396965673193  1.0000
  H   H34       1.0  0.017988185925784862  0.7372846302152513  0.07624201195152353  1.0000
  H   H35       1.0  0.09446426762622791  0.7711227837705019  0.9879866044629625  1.0000
  H   H36       1.0  0.5398913785094058  0.6963822169469341  0.036714471833042106  1.0000
  C   C55       1.0  0.3185733290380275  0.5180859122275134  0.9873588875078343  1.0000
  C   C56       1.0  0.30708643248963247  0.5298620053058792  0.01990674867350739  1.0000
  C   C57       1.0  0.24652668052104904  0.9987819574992233  0.005650891073234909  1.0000
  C   C58       1.0  0.24554599731351007  0.9711940382651648  0.02904232250461512  1.0000
  C   C59       1.0  0.2748967915483546  0.9741563368697591  0.04988172888564013  1.0000
  C   C60       1.0  0.3045626622926828  0.004728634885291738  0.04791433385023902  1.0000
  H   H37       1.0  0.31382690646495476  0.5573270168300976  0.02428984440839499  1.0000
  H   H38       1.0  0.22391578554582267  0.9968223480300729  0.9895245540661521  1.0000
  H   H39       1.0  0.2747905925153418  0.9531528348087708  0.06778575846206669  1.0000
  H   H40       1.0  0.3269886574490312  0.007051388894300459  0.06457227272219468  1.0000
  C   C61       1.0  0.29866285936644354  0.7188852584244794  0.014759864651639809  1.0000
  C   C62       1.0  0.2697313648793069  0.7196791112886836  0.03500738555145764  1.0000
  C   C63       1.0  0.2587303998848887  0.7477591671026839  0.031454680258355676  1.0000
  C   C64       1.0  0.2764546159346898  0.775199505115753  0.0073203874250509235  1.0000
  C   C65       1.0  0.30563948319654777  0.7746065003404612  0.9873142253157509  1.0000
  C   C66       1.0  0.31695803593924204  0.7467341338240269  0.9913454807678533  1.0000
  H   H41       1.0  0.2555587435642632  0.6983125470268091  0.053355728029851585  1.0000
  H   H42       1.0  0.23623710271062376  0.7479018615870147  0.04699202901775749  1.0000
  H   H43       1.0  0.31974271441753666  0.7959561699462212  0.9689562825797309  1.0000
  H   H44       1.0  0.3398103311800766  0.7467492603516501  0.97647399912806  1.0000
  C   C67       1.0  0.3662711056286328  0.6410380473634371  0.7297556414352333  1.0000
  C   C68       1.0  0.36601601162440517  0.6745008066828765  0.7328596138274761  1.0000
  C   C69       1.0  0.3686101927603867  0.6902114938385302  0.7685518798853114  1.0000
  C   C70       1.0  0.3714126699288242  0.6726517571816971  0.8014412034878087  1.0000
  C   C71       1.0  0.37162002391112975  0.6391896484667615  0.7983296598431963  1.0000
  C   C72       1.0  0.3690743721925328  0.6234961512481899  0.7626272749665728  1.0000
  H   H45       1.0  0.3634631679764136  0.6881288907412701  0.7078302275159359  1.0000
  H   H46       1.0  0.36827232127027576  0.7160546395794741  0.7707105385036003  1.0000
  H   H47       1.0  0.37371766294077624  0.6253767324729229  0.823416931577219  1.0000
  H   H48       1.0  0.3692425283464707  0.5975866918112235  0.7605382996328929  1.0000
  C   C73       1.0  0.16907552745818227  0.8371103675000798  0.2896217722926432  1.0000
  C   C74       1.0  0.20519053859934658  0.8523140968115032  0.28957779720187166  1.0000
  C   C75       1.0  0.22397808927026983  0.8555947377991806  0.25560454921965964  1.0000
  C   C76       1.0  0.2068173404579118  0.8441453346296546  0.22135146798835043  1.0000
  C   C77       1.0  0.1706636706194604  0.8298992960045847  0.22120955319788724  1.0000
  C   C78       1.0  0.1519082799990955  0.8263432627325199  0.2552547512207926  1.0000
  H   H49       1.0  0.21859963180511083  0.8614962287414398  0.31573087183503  1.0000
  H   H50       1.0  0.251951458760206  0.8669550843716408  0.2558623070225643  1.0000
  H   H51       1.0  0.157143299007043  0.8209324417481305  0.19502803418545125  1.0000
  H   H52       1.0  0.12393697325613968  0.8147038467920832  0.2550363771821319  1.0000
  C   C79       1.0  0.5037648182738389  0.744945311636089  0.5377542850925747  1.0000
  C   C80       1.0  0.5364152262102309  0.7695147918953181  0.5471993427055064  1.0000
  C   C81       1.0  0.05691754235198648  0.7485817979724808  0.48785390038430915  1.0000
  C   C82       1.0  0.06123423512322115  0.7773950800104298  0.5106234533484089  1.0000
  C   C83       1.0  0.03279200893993161  0.7782315785905001  0.5319498083787338  1.0000
  C   C84       1.0  0.0006115968383877434  0.7503569951462377  0.5311366522215386  1.0000
  H   H53       1.0  0.540205512762593  0.7813534872271799  0.5748013786878812  1.0000
  H   H54       1.0  0.07850763053992148  0.7475154622657882  0.47129509167009737  1.0000
  H   H55       1.0  0.03578198772444868  0.8005230430458343  0.5494092984669192  1.0000
  H   H56       1.0  0.47436396732872116  0.7111067185463826  0.49414637652045174  1.0000
  C   C85       1.0  0.27256709106883775  0.9671420504511221  0.4887433501644699  1.0000
  C   C86       1.0  0.2998090706987324  0.9986761291399444  0.48103165777417556  1.0000
  C   C87       1.0  0.2778317784853725  0.5380656409737666  0.5222998651486488  1.0000
  C   C88       1.0  0.3096635878010918  0.5400310195755724  0.5069201960796551  1.0000
  C   C89       1.0  0.2713844098719079  0.9863324776245348  0.5534294608560775  1.0000
  C   C90       1.0  0.25828860337325726  0.961116826671002  0.525100006816409  1.0000
  H   H57       1.0  0.3111591619135854  0.003490122055474165  0.4530335305702636  1.0000
  H   H58       1.0  0.2755179208861087  0.5605843295441428  0.5356121108303752  1.0000
  H   H59       1.0  0.26035001968977567  0.9813504524527846  0.5815611467473013  1.0000
  H   H60       1.0  0.23735171988109685  0.9369777112017655  0.531467958499234  1.0000
  C   C91       1.0  0.258245272575552  0.7586471137364971  0.4763746010317896  1.0000
  C   C92       1.0  0.24613841082768745  0.7597216677360922  0.5130803167909416  1.0000
  C   C93       1.0  0.2594092270979221  0.7465566151013938  0.5431934864000506  1.0000
  C   C94       1.0  0.2845424439320351  0.731845202306455  0.5368621131262343  1.0000
  C   C95       1.0  0.2964658997304977  0.730571057966186  0.5000876403502451  1.0000
  C   C96       1.0  0.28337760375743115  0.7439761029869738  0.46999306268754704  1.0000
  H   H61       1.0  0.22647475170905604  0.7705432574677096  0.5182855374525104  1.0000
  H   H62       1.0  0.2499452159195842  0.7474685899475884  0.5715545341131194  1.0000
  H   H63       1.0  0.3157954734785225  0.7193104484321327  0.49487963617219194  1.0000
  H   H64       1.0  0.29280783342166616  0.7429215222330907  0.4416595183619834  1.0000
  Fe  Fe33      1.0  0.6817532682873633  0.32869797934764106  0.4090900679073155  1.0000
  S   S65       1.0  0.6739570076349515  0.36843110090211084  0.44768083490085886  1.0000
  S   S66       1.0  0.6647326711394932  0.33152125245336245  0.34869430900428877  1.0000
  Fe  Fe34      1.0  0.7065523669902277  0.2950290761784821  0.47423425504251276  1.0000
  S   S67       1.0  0.7015607176185515  0.33333247979271136  0.5167321684317928  1.0000
  S   S68       1.0  0.7147743106269413  0.24555791788903344  0.4908199268665244  1.0000
  Fe  Fe35      1.0  0.6504635131548264  0.3245968973008904  0.4886438267336125  1.0000
  S   S69       1.0  0.6021539360828123  0.31679549762894804  0.5243883436579034  1.0000
  Fe  Fe36      1.0  0.725395453169526  0.37404011364656153  0.4719831601278433  1.0000
  S   S70       1.0  0.7706069740134395  0.4264590726072926  0.47411411643924195  1.0000
  S   S71       1.0  0.6542613923070658  0.28457102853176813  0.4484653050599311  1.0000
  S   S72       1.0  0.7343570537367693  0.33586795098447436  0.4313249028244356  1.0000
  Fe  Fe37      1.0  0.8662449283809986  0.19043201726036385  0.5673592344542953  1.0000
  S   S73       1.0  0.8934912671282609  0.1690835562594608  0.5247420630231144  1.0000
  S   S74       1.0  0.8542655484243974  0.23851848382555219  0.5556216952754198  1.0000
  Fe  Fe38      1.0  0.8692219841364409  0.14020183533765074  0.6285494567766501  1.0000
  S   S75       1.0  0.896298228434945  0.11459406287080605  0.5902392619814226  1.0000
  S   S76       1.0  0.8497574372318915  0.12054155255504817  0.687581604950128  1.0000
  Fe  Fe39      1.0  0.9290830631758925  0.168967039644426  0.5717572848018548  1.0000
  S   S77       1.0  0.9879387939483895  0.1860436088114373  0.5686996711689412  1.0000
  Fe  Fe40      1.0  0.8584233996287669  0.11649716843490418  0.5462324048981508  1.0000
  S   S78       1.0  0.8322078637374289  0.07625745129804597  0.5008980607879477  1.0000
  S   S79       1.0  0.9044032068138538  0.19411311674044984  0.6133563820625433  1.0000
  S   S80       1.0  0.828826564283621  0.1384505645626666  0.5855627908620805  1.0000
  Fe  Fe41      1.0  0.856741227411073  0.11394403554118356  0.9516594664181872  1.0000
  S   S81       1.0  0.8405002103814257  0.15612903301122016  0.928706696935533  1.0000
  S   S82       1.0  0.8155950526770804  0.05967168642846787  0.9482490709094924  1.0000
  Fe  Fe42      1.0  0.9299780775167656  0.165384041615913  0.971450758448192  1.0000
  S   S83       1.0  0.9184182420801159  0.2105898286781703  0.9499699611041833  1.0000
  S   S84       1.0  0.9783664484740169  0.17032166909913854  0.0048184962119735  1.0000
  Fe  Fe43      1.0  0.86693825085254  0.18661103154485909  0.9793078724471836  1.0000
  S   S85       1.0  0.8460787520211916  0.21261795957671573  0.024666131240696387  1.0000
  Fe  Fe44      1.0  0.8931681759531815  0.17585195827105593  0.9008876251847809  1.0000
  S   S86       1.0  0.9057683388002324  0.19925568397021504  0.8420320378688755  1.0000
  S   S87       1.0  0.8798762207816774  0.14316599611228617  0.0039230551081270715  1.0000
  S   S88       1.0  0.9080595436733304  0.1318199261112462  0.9206163093982414  1.0000
  Fe  Fe45      1.0  0.7140709498294935  0.33336752839739825  0.13175791163280648  1.0000
  S   S89       1.0  0.6745186508717524  0.3566476399758806  0.11801909235618273  1.0000
  S   S90       1.0  0.7380924576018753  0.33266834390700767  0.18933181418934297  1.0000
  Fe  Fe46      1.0  0.7205081023000472  0.31355414010452365  0.04933636162159832  1.0000
  S   S91       1.0  0.6806551823571181  0.33478318832930043  0.03043920724468796  1.0000
  S   S92       1.0  0.7448430092460798  0.2940917607198345  0.0006847696747782629  1.0000
  Fe  Fe47      1.0  0.7086826174254588  0.3803540412346899  0.06761392323899976  1.0000
  S   S93       1.0  0.7176505532042114  0.43411554555197956  0.043423703675646845  1.0000
  Fe  Fe48      1.0  0.6499709184791009  0.3092289820996217  0.0816096863298385  1.0000
  S   S94       1.0  0.5918265752001575  0.27730086344046323  0.0862126674855185  1.0000
  S   S95       1.0  0.7500561488447487  0.3604629909022078  0.08378605043745958  1.0000
  S   S96       1.0  0.6879452066280243  0.28456485300938056  0.09825287015317677  1.0000
  C   C97       1.0  0.015342199629044151  0.20905339421267055  0.008012363178334647  1.0000
  C   C98       1.0  0.021759652746600855  0.23584636429453745  0.9818806397668275  1.0000
  C   C99       1.0  0.528174748265697  0.23500953064546545  0.059749576647003054  1.0000
  C   C100      1.0  0.5610050748841885  0.2594238513716276  0.05002823671638438  1.0000
  C   C101      1.0  0.5678001926818073  0.26973822735731484  0.012358279961618202  1.0000
  C   C102      1.0  0.5419095072533365  0.2561531171203072  0.98496332856595  1.0000
  H   H65       1.0  0.003952098754411937  0.23311896436141352  0.9589656473550384  1.0000
  H   H66       1.0  0.5227030515590559  0.22678393055273954  0.08879338157908795  1.0000
  H   H67       1.0  0.5928499769638108  0.2885265895089292  0.00446210535122038  1.0000
  H   H68       1.0  0.03403437986540192  0.1924584425867457  0.05793155824332086  1.0000
  C   C103      1.0  0.7984583723227416  0.030380258869772542  0.9858968440421394  1.0000
  C   C104      1.0  0.8114382567272237  0.037402047125962706  0.0224390037538984  1.0000
  C   C105      1.0  0.7561727889365446  0.4979264652009476  0.013765623119308594  1.0000
  C   C106      1.0  0.7572704897505338  0.4688548661320718  0.03308590504451472  1.0000
  C   C107      1.0  0.7895757764861646  0.4676624183468924  0.04196783088593481  1.0000
  C   C108      1.0  0.820282881128108  0.49492546517781294  0.030983382147520944  1.0000
  H   H69       1.0  0.8324054718851948  0.06154454012698277  0.028398049585024898  1.0000
  H   H70       1.0  0.7313822509454999  0.4992332882870793  0.006828234830651203  1.0000
  H   H71       1.0  0.7909113887332738  0.44584051878781134  0.05747192632776654  1.0000
  H   H72       1.0  0.8450722144766353  0.4936627202120196  0.03790994728873498  1.0000
  C   C109      1.0  0.818077118703436  0.23525848675553687  0.01716649672869197  1.0000
  C   C110      1.0  0.8050501316521506  0.247401445962129  0.04857535719078566  1.0000
  C   C111      1.0  0.7824137692029618  0.26527518004374134  0.04397817523855087  1.0000
  C   C112      1.0  0.7726989794062119  0.2712043903745686  0.00784733431803919  1.0000
  C   C113      1.0  0.7856944040803779  0.25898449758363673  0.9764072596622712  1.0000
  C   C114      1.0  0.8082929817823876  0.24103282016662916  0.9810020766589301  1.0000
  H   H73       1.0  0.8123896952074362  0.2429473682021437  0.07668037365816627  1.0000
  H   H74       1.0  0.772523069979881  0.27453516326539956  0.06837689220356401  1.0000
  H   H75       1.0  0.7782470794781541  0.2634678226647446  0.9483666159013434  1.0000
  H   H76       1.0  0.8182021620067063  0.23184299172698236  0.9565992487313285  1.0000
  C   C115      1.0  0.8673113828506779  0.14155798785324797  0.7304145733421602  1.0000
  C   C116      1.0  0.8963718112943564  0.1722619729258168  0.7310188328298293  1.0000
  C   C117      1.0  0.9080913118027726  0.18940806621932946  0.7654655371884659  1.0000
  C   C118      1.0  0.8914364586844319  0.1756197589055141  0.7997217980605309  1.0000
  C   C119      1.0  0.8629236982316275  0.144430095572575  0.799190101467348  1.0000
  C   C120      1.0  0.8508168412939817  0.12764744169176126  0.7646696232550336  1.0000
  H   H77       1.0  0.9097511901453016  0.1828468206343014  0.7049616363227125  1.0000
  H   H78       1.0  0.9303510338881607  0.21336421747659662  0.76564460466114  1.0000
  H   H79       1.0  0.8498610731080958  0.13351668155937044  0.8253082626529017  1.0000
  H   H80       1.0  0.8284563380224237  0.10377303892980055  0.7645190207916656  1.0000
  C   C121      1.0  0.684835837161787  0.3294907112721239  0.3047451842779234  1.0000
  C   C122      1.0  0.716948110937614  0.3258135213219873  0.3021812918276778  1.0000
  C   C123      1.0  0.7328411366669996  0.32674412986277884  0.26664346786926674  1.0000
  C   C124      1.0  0.7166523327598624  0.330840704959452  0.23330417839352693  1.0000
  C   C125      1.0  0.684389334974997  0.33410060309490347  0.23589846026263686  1.0000
  C   C126      1.0  0.6686818842070462  0.3335567571031669  0.27142483120396343  1.0000
  H   H81       1.0  0.729507706208017  0.3221412699296489  0.32744399427902093  1.0000
  H   H82       1.0  0.7577075452872555  0.32399062231758524  0.2648612309866622  1.0000
  H   H83       1.0  0.6716056022393284  0.3372079575965869  0.21051295038153794  1.0000
  H   H84       1.0  0.6438353655296842  0.33638499320546733  0.27303110153432686  1.0000
  C   C127      1.0  0.01689627326594456  0.21706199718313912  0.5378228724747037  1.0000
  C   C128      1.0  0.005254873239796565  0.23286621766863397  0.5090260502532654  1.0000
  C   C129      1.0  0.5395958831184454  0.27136545349117563  0.5513416590920243  1.0000
  C   C130      1.0  0.5643462439745393  0.2787741207703025  0.5220640996415513  1.0000
  C   C131      1.0  0.5588129286869251  0.25547176919470027  0.4920985205964321  1.0000
  C   C132      1.0  0.5293868502734385  0.2246557207408068  0.49197061295472505  1.0000
  H   H85       1.0  0.9777648706174945  0.22633928511415083  0.5053426919978701  1.0000
  H   H86       1.0  0.5435778754853368  0.2892826787864311  0.5746153813793012  1.0000
  H   H87       1.0  0.5772142767625282  0.2612132361039  0.4689600873483355  1.0000
  H   H88       1.0  0.06197526945871901  0.21374091301049863  0.5644106641994376  1.0000
  C   C133      1.0  0.7760055370658887  0.46534972350195236  0.49919994173550464  1.0000
  C   C134      1.0  0.8080137522546214  0.49322549967033424  0.49669445785699495  1.0000
  C   C135      1.0  0.7971170898006774  0.01689603550379659  0.5430686024569243  1.0000
  C   C136      1.0  0.8061384858170318  0.03173979054518152  0.507301557261759  1.0000
  C   C137      1.0  0.7548841777152622  0.5010698049444121  0.5396282839547357  1.0000
  C   C138      1.0  0.7494374713549736  0.46947316877542244  0.5208711494943549  1.0000
  H   H89       1.0  0.8287880151207326  0.4903807353230958  0.48006576511192345  1.0000
  H   H90       1.0  0.8064102587689457  0.032594091501466006  0.5679393169645558  1.0000
  H   H91       1.0  0.7340515669537612  0.5038878770301881  0.5561438852941433  1.0000
  H   H92       1.0  0.7246627568018659  0.44835999004194993  0.5230570867214684  1.0000
  C   C139      1.0  0.7535997475718661  0.244252543150434  0.5094436474155498  1.0000
  C   C140      1.0  0.7833126759195013  0.2740479055652221  0.5128081653591305  1.0000
  C   C141      1.0  0.813898105231248  0.27177546791249163  0.5270708896146472  1.0000
  C   C142      1.0  0.8151285005817226  0.23975722126559815  0.537863365918328  1.0000
  C   C143      1.0  0.7853071988084419  0.20994834653474512  0.5348702910162121  1.0000
  C   C144      1.0  0.7546253497986238  0.21226278221264547  0.5208375664080833  1.0000
  H   H93       1.0  0.7828226387680886  0.2988172608891665  0.5042026499674512  1.0000
  H   H94       1.0  0.8368386064528477  0.29497649409150745  0.5294426655766187  1.0000
  H   H95       1.0  0.7858438716075516  0.18525589374743295  0.5436167363607328  1.0000
  H   H96       1.0  0.731591255682046  0.18917050865524612  0.5186593825585981  1.0000
  Fe  Fe49      1.0  0.7004062310895371  0.8555473284626985  0.39252782694390487  1.0000
  S   S97       1.0  0.6688571226729774  0.8680052028602779  0.43841620642268947  1.0000
  S   S98       1.0  0.6994317232141443  0.877843762968193  0.33419081319610777  1.0000
  Fe  Fe50      1.0  0.7247542301497836  0.8112493421648969  0.44550000894535097  1.0000
  S   S99       1.0  0.6938259122649103  0.8189807744859617  0.4946283319419934  1.0000
  S   S100      1.0  0.7589736817323092  0.7794813680603881  0.44223112851259155  1.0000
  Fe  Fe51      1.0  0.6506685938013792  0.8114011852624736  0.45322486569221937  1.0000
  S   S101      1.0  0.593501765349222  0.7758131935933573  0.45066242309045734  1.0000
  Fe  Fe52      1.0  0.7145014514823035  0.8751445834767445  0.4757776658070253  1.0000
  S   S102      1.0  0.7370462881727551  0.9162939708791088  0.5211957876651175  1.0000
  S   S103      1.0  0.6804510000917167  0.7990457345352151  0.40542634630720703  1.0000
  S   S104      1.0  0.7474918225415743  0.8673524422022103  0.42876204315027966  1.0000
  Fe  Fe53      1.0  0.852728178464235  0.6953399462283923  0.5782273224360722  1.0000
  S   S105      1.0  0.8562756140500746  0.6638840368944608  0.5277859590136257  1.0000
  S   S106      1.0  0.8237389062058708  0.7320487899946857  0.5829969569794717  1.0000
  Fe  Fe54      1.0  0.8882875293064358  0.6602284788698021  0.6301153548327157  1.0000
  S   S107      1.0  0.8943459511504976  0.6259625993022557  0.5835833976246205  1.0000
  S   S108      1.0  0.911402865419759  0.6558341820509356  0.6866989554306778  1.0000
  Fe  Fe55      1.0  0.9107662081100083  0.6743697678272222  0.5480174194895392  1.0000
  S   S109      1.0  0.9574381963246428  0.6842551210319714  0.509132076002745  1.0000
  Fe  Fe56      1.0  0.8398040448276146  0.61813627300255  0.567296070443414  1.0000
  S   S110      1.0  0.7920472932380319  0.5682173202378772  0.5611598401989796  1.0000
  S   S111      1.0  0.9081994200817495  0.709029969680492  0.5957057345316309  1.0000
  S   S112      1.0  0.8328479314099686  0.6492830446818946  0.6166850317791834  1.0000
  Fe  Fe57      1.0  0.8612965014126898  0.6085553642047323  0.9711893774028078  1.0000
  S   S113      1.0  0.8179889137775953  0.6236974981964691  0.9505709740293915  1.0000
  S   S114      1.0  0.8585271983166791  0.557374931073506  0.9976558060091928  1.0000
  Fe  Fe58      1.0  0.9166261029314402  0.6800064544166329  0.9520539398479649  1.0000
  S   S115      1.0  0.876989482914814  0.700604353348707  0.9303614579886595  1.0000
  S   S116      1.0  0.974956532653542  0.7099518986464763  0.9459623104004133  1.0000
  Fe  Fe59      1.0  0.8447337592885473  0.6741445232807952  0.9806854365360039  1.0000
  S   S117      1.0  0.8145079384619835  0.6935736440646939  0.023121910911165333  1.0000
  Fe  Fe60      1.0  0.8533805464607193  0.6488614574662465  0.9014916560353496  1.0000
  S   S118      1.0  0.8299842991789113  0.6432062610244665  0.8426885004840557  1.0000
  S   S119      1.0  0.8862295162168354  0.6574771961577577  0.004577369416344013  1.0000
  S   S120      1.0  0.8947995764378576  0.6298140437560632  0.9198068088888511  1.0000
  Fe  Fe61      1.0  0.6971422265492369  0.8270669480900846  0.12061942380344266  1.0000
  S   S121      1.0  0.6722340259068618  0.8650827048405586  0.10587804607376348  1.0000
  S   S122      1.0  0.6963785384053295  0.8013988276584683  0.17732353063746434  1.0000
  Fe  Fe62      1.0  0.7249081965247106  0.8266579245213146  0.04044528993026996  1.0000
  S   S123      1.0  0.7026137289898969  0.8650334450447601  0.020404163967606914  1.0000
  S   S124      1.0  0.7549771121842418  0.811837797674245  0.9945185159124131  1.0000
  Fe  Fe63      1.0  0.7220399158407254  0.8934048490266064  0.07412499243890727  1.0000
  S   S125      1.0  0.7553582624147666  0.9504363975957961  0.08073482236402509  1.0000
  Fe  Fe64      1.0  0.6548552877649054  0.8328833963744539  0.053025815727947526  1.0000
  S   S126      1.0  0.6044691187393809  0.8220189159229522  0.021198742264568405  1.0000
  S   S127      1.0  0.7479253804476931  0.8570786016608655  0.09217918573245118  1.0000
  S   S128      1.0  0.6763268863113429  0.7928128151612835  0.06998594378769263  1.0000
  C   C145      1.0  0.006716963781305374  0.7280193499608058  0.9811639370166654  1.0000
  C   C146      1.0  0.9983505235518173  0.7256935655293748  0.01961371430856196  1.0000
  C   C147      1.0  0.5397361924986325  0.7823536469769122  0.9956042336294755  1.0000
  C   C148      1.0  0.5683904174531998  0.7825495890134893  0.016526895933355136  1.0000
  C   C149      1.0  0.5681807317527905  0.7513528207418655  0.03144714204402477  1.0000
  C   C150      1.0  0.5397533715275029  0.7203571641190751  0.025126879180667805  1.0000
  H   H97       1.0  0.9716554071900035  0.7135007150425644  0.028567003558709947  1.0000
  H   H98       1.0  0.5396044366798555  0.8063270423619758  0.9839478267530731  1.0000
  H   H99       1.0  0.5898016671150507  0.7510800327322088  0.04796226548575944  1.0000
  H   H100      1.0  0.048283448334196954  0.7466053682955494  0.9403931509358362  1.0000
  C   C151      1.0  0.8191223030612569  0.5239416043713765  0.011528277157938582  1.0000
  C   C152      1.0  0.7868451247414155  0.5253249734990745  0.0031131140935904966  1.0000
  C   C153      1.0  0.7975526959100652  0.012836911989596134  0.05129010693852953  1.0000
  C   C154      1.0  0.7708290722036785  0.9810011002593609  0.04383879402784355  1.0000
  C   C155      1.0  0.7576405294345233  0.9741328133958793  0.0073613679007196176  1.0000
  C   C156      1.0  0.7712890239422461  0.9988335814790694  0.9786024251649532  1.0000
  H   H101      1.0  0.7854620349195793  0.5474545538184304  0.9882472551457545  1.0000
  H   H102      1.0  0.8078526687178389  0.01835221197424164  0.07948737637395646  1.0000
  H   H103      1.0  0.7368037095026717  0.9499084307632375  0.0013718256776724669  1.0000
  H   H104      1.0  0.7609438541579212  0.9933416836444341  0.9504217605405292  1.0000
  C   C157      1.0  0.7970115234532357  0.72541021002885  0.0132584803123581  1.0000
  C   C158      1.0  0.7739080673934629  0.730817837990052  0.039454460268083115  1.0000
  C   C159      1.0  0.760659331639611  0.757071174465436  0.033844911442243844  1.0000
  C   C160      1.0  0.7704649346737078  0.77811507737431  0.0019103458874840662  1.0000
  C   C161      1.0  0.7930361813636082  0.7723543315151562  0.9753004971495014  1.0000
  C   C162      1.0  0.8063115763397937  0.7460731835547094  0.9809404646133258  1.0000
  H   H105      1.0  0.7662502759868345  0.7144394337020488  0.0641106036188039  1.0000
  H   H106      1.0  0.7427120368162813  0.7608740673553365  0.05399351952535361  1.0000
  H   H107      1.0  0.8005663693831815  0.7883767739107358  0.9503544019919687  1.0000
  H   H108      1.0  0.824034896220755  0.742031332654687  0.9605635074412534  1.0000
  C   C163      1.0  0.8889835047737312  0.653796635221203  0.7299743388934349  1.0000
  C   C164      1.0  0.8554393688079255  0.654083811261913  0.7311211538693523  1.0000
  C   C165      1.0  0.8377953486655766  0.6509042227699798  0.7658719648704939  1.0000
  C   C166      1.0  0.8537330769391577  0.6481725635496572  0.7998742590873882  1.0000
  C   C167      1.0  0.8874720772919815  0.6483746764009514  0.7987392117669844  1.0000
  C   C168      1.0  0.9048992626093022  0.6509384995189517  0.7639040744900706  1.0000
  H   H109      1.0  0.8431815379537033  0.6570144001194191  0.7053384884658781  1.0000
  H   H110      1.0  0.8118172781631902  0.6510667449003084  0.7665698697609555  1.0000
  H   H111      1.0  0.9000137028315095  0.6462882438517361  0.8246990447990614  1.0000
  H   H112      1.0  0.9308803209209022  0.6508034662825307  0.7633562662528331  1.0000
  C   C169      1.0  0.6997620680584202  0.8564297184194002  0.29093244739311114  1.0000
  C   C170      1.0  0.7004978202222142  0.823054701737649  0.2895928806784698  1.0000
  C   C171      1.0  0.6993851964991332  0.8065113627014104  0.2546026609899075  1.0000
  C   C172      1.0  0.6977727882500925  0.823218810027324  0.22066658365391478  1.0000
  C   C173      1.0  0.6972828301699674  0.8566523523950229  0.2220061283956044  1.0000
  C   C174      1.0  0.6981607685662063  0.8730909292161149  0.2569881086463917  1.0000
  H   H113      1.0  0.701939581427659  0.8099937789098666  0.31547718114433293  1.0000
  H   H114      1.0  0.6997858594510237  0.7806466956845942  0.25386467050556233  1.0000
  H   H115      1.0  0.6960942191188371  0.869845323290723  0.196122780142968  1.0000
  H   H116      1.0  0.6976280272414249  0.898921550806152  0.2577192484641293  1.0000
  C   C175      1.0  0.996571165256229  0.7211931910509551  0.5090514140506743  1.0000
  C   C176      1.0  0.024793937629115748  0.7206573337135112  0.48716000820603395  1.0000
  C   C177      1.0  0.5642625667476192  0.7791171520436649  0.5211283335399505  1.0000
  C   C178      1.0  0.5597147592546861  0.7643036644571735  0.48516142781884886  1.0000
  C   C179      1.0  0.5270673949295507  0.7397389063176181  0.47573338898240924  1.0000
  C   C180      1.0  0.4992675543005137  0.7300235468131043  0.5018538061786253  1.0000
  H   H117      1.0  0.02192803557906231  0.6983339698819745  0.4698017803326568  1.0000
  H   H118      1.0  0.5891394182252396  0.7981130557600816  0.5287696198768521  1.0000
  H   H119      1.0  0.5232270344979677  0.7280496983001219  0.4480418637156652  1.0000
  H   H120      1.0  0.9790248122449029  0.75141881448523  0.5476907606404067  1.0000
  C   C181      1.0  0.7632958458710273  0.9607508740032201  0.5147887772446267  1.0000
  C   C182      1.0  0.775816765115103  0.9816372688047251  0.5467313825771192  1.0000
  C   C183      1.0  0.8135206331278739  0.5247555748127565  0.5155889358417385  1.0000
  C   C184      1.0  0.7869240587886945  0.528898060763515  0.5371290546992921  1.0000
  C   C185      1.0  0.7937332875917039  0.010809422617757303  0.4753371976802292  1.0000
  C   C186      1.0  0.7725420095429566  0.9755123811983853  0.4790028266491417  1.0000
  H   H121      1.0  0.7689052699300565  0.9705286809434978  0.5745666959380763  1.0000
  H   H122      1.0  0.8383071008483959  0.5458341445382108  0.5132961158320787  1.0000
  H   H123      1.0  0.800608446369957  0.021921467900258396  0.44751506458126833  1.0000
  H   H124      1.0  0.7632355374606714  0.959806890581886  0.45414895341934247  1.0000
  C   C187      1.0  0.7763728427967193  0.7662665292114847  0.4817567798036851  1.0000
  C   C188      1.0  0.7670113900083407  0.77159283684562  0.5185340223671051  1.0000
  C   C189      1.0  0.7819916026484528  0.7612525893860228  0.5493354534394258  1.0000
  C   C190      1.0  0.8060488338956454  0.74516059424772  0.5435743307511469  1.0000
  C   C191      1.0  0.815175722208508  0.7395701538236455  0.5067887150181137  1.0000
  C   C192      1.0  0.800424788803774  0.7501763248230758  0.47600740917613116  1.0000
  H   H125      1.0  0.7481780722776943  0.7835606312730535  0.5232027223542691  1.0000
  H   H126      1.0  0.7747072034092666  0.7654643777771023  0.5777761929972925  1.0000
  H   H127      1.0  0.8340270418610554  0.7276287372860444  0.5020590734556111  1.0000
  H   H128      1.0  0.8079170556601687  0.7461879399586994  0.44757681730476123  1.0000
  N   N1        1.0  0.2967777225788225  0.9193728947047723  0.9576455866942108  1.0000
  C   C193      1.0  0.3170267915579605  0.9526583240044123  0.9757864608571686  1.0000
  C   C194      1.0  0.29689148366386925  0.9242983239247858  0.9164044013566897  1.0000
  C   C195      1.0  0.2607455347985058  0.9069416020407226  0.9719881618898278  1.0000
  C   C196      1.0  0.312369158798021  0.8935510788726322  0.9664277313406495  1.0000
  H   H129      1.0  0.34403913754507737  0.9635291084541614  0.9646677937575336  1.0000
  H   H130      1.0  0.31857386578905234  0.9495910325457231  0.006786616205837204  1.0000
  H   H131      1.0  0.3051931590377287  0.9724050904525109  0.9710662651247307  1.0000
  H   H132      1.0  0.3236527228950124  0.9332748255047676  0.9045241263905159  1.0000
  H   H133      1.0  0.28136738945626866  0.8997735729476105  0.9019047775450364  1.0000
  H   H134      1.0  0.28566825508916505  0.9440037019161839  0.9090041257214039  1.0000
  H   H135      1.0  0.2450902189027309  0.881016617562989  0.9603925372196375  1.0000
  H   H136      1.0  0.24754954183955497  0.9250472313457436  0.9647300957366067  1.0000
  H   H137      1.0  0.2597953587545155  0.9044661578015342  0.0031866787985723732  1.0000
  H   H138      1.0  0.29839598499492476  0.8684219145299207  0.9521784949234315  1.0000
  H   H139      1.0  0.31113393468349193  0.8879729982669763  0.9972515284909681  1.0000
  H   H140      1.0  0.33998984684708133  0.9025033642051522  0.9574183934130834  1.0000
  N   N2        1.0  0.21082618972009892  0.9518650545894637  0.1536032946536736  1.0000
  C   C197      1.0  0.2291041879045752  0.9292403293023644  0.14094207313246712  1.0000
  C   C198      1.0  0.17405020674380745  0.9362592964495197  0.14271728309177684  1.0000
  C   C199      1.0  0.22685877543398547  0.9861607958694508  0.13554204991928023  1.0000
  C   C200      1.0  0.21328019335105575  0.9555082711875298  0.1950572614979311  1.0000
  H   H141      1.0  0.25700308780715075  0.9399998915548509  0.1483994419670478  1.0000
  H   H142      1.0  0.22733801628880101  0.9254753844991849  0.10991939075303621  1.0000
  H   H143      1.0  0.21770023217801104  0.9032536281427086  0.1541502053202255  1.0000
  H   H144      1.0  0.15940714718400706  0.9527512672319637  0.15143465649141194  1.0000
  H   H145      1.0  0.17137106602941188  0.9326239651927457  0.11155774869567696  1.0000
  H   H146      1.0  0.16111507255154933  0.9103518330139287  0.15596351753876705  1.0000
  H   H147      1.0  0.21426269600926862  0.004254269475932215  0.14505079814812327  1.0000
  H   H148      1.0  0.2245504316106688  0.9841216134060088  0.10426411692588891  1.0000
  H   H149      1.0  0.25494537123395644  0.9982099958479277  0.14198441147524696  1.0000
  H   H150      1.0  0.1994250423046271  0.9720834845695512  0.20585926664733578  1.0000
  H   H151      1.0  0.24071866824561972  0.9672386025674155  0.2041618826966867  1.0000
  H   H152      1.0  0.20176951356854267  0.9298389846854336  0.2093010404177107  1.0000
  N   N3        1.0  0.2922386416477904  0.17137280184345838  0.8262190406883116  1.0000
  C   C201      1.0  0.3054679063295762  0.18270454107579925  0.7877229910712253  1.0000
  C   C202      1.0  0.26565795349033466  0.18572074257473556  0.8365420976663936  1.0000
  C   C203      1.0  0.3209313894593765  0.18389927296574002  0.85331450005513  1.0000
  C   C204      1.0  0.27695846199250396  0.1331585736562549  0.8275084964233667  1.0000
  H   H153      1.0  0.32474342682408586  0.17137299798088854  0.7786719547135101  1.0000
  H   H154      1.0  0.31853819397234373  0.21131809761147513  0.7859254269906707  1.0000
  H   H155      1.0  0.28437342123965165  0.17448977619945308  0.7666193489954279  1.0000
  H   H156      1.0  0.27652396695503345  0.21452374771071267  0.8358350168716716  1.0000
  H   H157      1.0  0.24340036102770726  0.1767123553595232  0.8168954610993087  1.0000
  H   H158      1.0  0.25551135636187394  0.17787013092543688  0.8656384130499317  1.0000
  H   H159      1.0  0.3117813653519948  0.17601894757361103  0.8826483765902143  1.0000
  H   H160      1.0  0.3335533128878772  0.21259588933754386  0.8530325924770263  1.0000
  H   H161      1.0  0.3411625867960935  0.17313375479881035  0.8469219836222627  1.0000
  H   H162      1.0  0.29628473632320323  0.12159551719520385  0.8191180733932151  1.0000
  H   H163      1.0  0.25475541754168707  0.12268446260337207  0.8079822899110858  1.0000
  H   H164      1.0  0.2678151226283159  0.12359735079450582  0.8564436055178987  1.0000
  N   N4        1.0  0.15762714094223182  0.21494304368969  0.010695033844739354  1.0000
  C   C205      1.0  0.18258590333871022  0.1990069313788523  0.99878137832306  1.0000
  C   C206      1.0  0.1484713190436124  0.2069741125245743  0.05087448616426717  1.0000
  C   C207      1.0  0.1260698571657914  0.2011775462796203  0.9875755239166698  1.0000
  C   C208      1.0  0.17350523191418799  0.2528107499234825  0.005696328776147341  1.0000
  H   H165      1.0  0.19114543202644835  0.20552674537048626  0.9690133310034604  1.0000
  H   H166      1.0  0.17123625445280316  0.17033619777466966  0.001340386888461609  1.0000
  H   H167      1.0  0.20622871807690993  0.2082472220467075  0.016501812982514068  1.0000
  H   H168      1.0  0.1367930695385261  0.1786032059381761  0.05589948777533351  1.0000
  H   H169      1.0  0.17173336391728397  0.21759298489857065  0.06912924432627508  1.0000
  H   H170      1.0  0.12950933698288586  0.21841170943140165  0.060755038611929935  1.0000
  H   H171      1.0  0.1070350935791325  0.21325862710160806  0.995465291512094  1.0000
  H   H172      1.0  0.11288491495985482  0.17272456642751927  0.9911429864376586  1.0000
  H   H173      1.0  0.1321255994180035  0.20652334930101698  0.9570690121799074  1.0000
  H   H174      1.0  0.19725291738799333  0.26403179130125676  0.02290904533040327  1.0000
  H   H175      1.0  0.15539303814913422  0.2656792554191303  0.01444980595841206  1.0000
  H   H176      1.0  0.18089522472678285  0.2600263956026781  0.9757902490387925  1.0000
  N   N5        1.0  0.7650249318471413  0.3943084088946801  0.9533358135759576  1.0000
  C   C209      1.0  0.7691192931488133  0.4303019613406104  0.944198939364175  1.0000
  C   C210      1.0  0.7872684568011767  0.3827971285633072  0.9282107568532741  1.0000
  C   C211      1.0  0.7284578946315293  0.3714429552554749  0.9484489172960533  1.0000
  C   C212      1.0  0.7751514445801461  0.3925572443978491  0.9928043497397363  1.0000
  H   H177      1.0  0.7960107513526526  0.4486932078220734  0.9492782015398317  1.0000
  H   H178      1.0  0.7516784904735189  0.43906717674652807  0.9620667553273791  1.0000
  H   H179      1.0  0.7626798196614251  0.43292290156721214  0.9143173225335142  1.0000
  H   H180      1.0  0.8150487311819985  0.3993613061896719  0.9315419922916621  1.0000
  H   H181      1.0  0.784438943356306  0.3556228653038059  0.9347385261481315  1.0000
  H   H182      1.0  0.780418801103307  0.3836865399633138  0.898116594710469  1.0000
  H   H183      1.0  0.7241282481172767  0.34424353181153544  0.9565207829732112  1.0000
  H   H184      1.0  0.7200577951305969  0.37127286056572234  0.9187875679697604  1.0000
  H   H185      1.0  0.7109650297498994  0.3800453345665069  0.9664494914087173  1.0000
  H   H186      1.0  0.7740184050136579  0.3662207057137805  0.00028534705150784495  1.0000
  H   H187      1.0  0.7574845477803638  0.3988810759210758  0.012585597409630722  1.0000
  H   H188      1.0  0.8018987723069779  0.410926931117762  0.9983325242552954  1.0000
  N   N6        1.0  0.11222282401766838  0.254379067244243  0.3562502757773251  1.0000
  C   C213      1.0  0.11097924646958623  0.28921705690845434  0.3612261680983888  1.0000
  C   C214      1.0  0.14732103367264257  0.2576181775678231  0.3435970731569378  1.0000
  C   C215      1.0  0.08674339480285466  0.23524035117961914  0.32760820289428877  1.0000
  C   C216      1.0  0.10375651736711174  0.23550588007141565  0.3925016776440391  1.0000
  H   H189      1.0  0.11605950384764445  0.30381972597343615  0.3342131988084904  1.0000
  H   H190      1.0  0.1306548262016926  0.3047067277996458  0.3817970379536502  1.0000
  H   H191      1.0  0.08531684389599849  0.2878601025198861  0.3722687878201242  1.0000
  H   H192      1.0  0.149682926132018  0.23192516874377087  0.34069389753486634  1.0000
  H   H193      1.0  0.15413276656855435  0.27089303896120887  0.31579589681283476  1.0000
  H   H194      1.0  0.16746034944886232  0.2730674174112947  0.3638021880985099  1.0000
  H   H195      1.0  0.060003156342280164  0.23245287152064523  0.3362587298872645  1.0000
  H   H196      1.0  0.08698343199502112  0.2088074046753135  0.3231379391379737  1.0000
  H   H197      1.0  0.09238979353207256  0.24883357039294385  0.29989609461248146  1.0000
  H   H198      1.0  0.10445146240816765  0.20908798626778446  0.3900270116138387  1.0000
  H   H199      1.0  0.07756882552770492  0.23294506777396493  0.4030816297454781  1.0000
  H   H200      1.0  0.12227532093677816  0.24935087078266818  0.4148430595365899  1.0000
  N   N7        1.0  0.33475978468353534  0.5269462978458718  0.6212579608682928  1.0000
  C   C217      1.0  0.3311316188783393  0.5148703341117998  0.6607652776428826  1.0000
  C   C218      1.0  0.37116787851886845  0.549213713895441  0.6134991509776803  1.0000
  C   C219      1.0  0.3123903174243801  0.5470248596015056  0.6152753697031521  1.0000
  C   C220      1.0  0.32439429637257716  0.49693307351223065  0.5954245295922662  1.0000
  H   H201      1.0  0.30388151027555116  0.4982229905780642  0.6675762402416818  1.0000
  H   H202      1.0  0.33886980112938686  0.5371376378543374  0.6807968116354759  1.0000
  H   H203      1.0  0.347687405082774  0.4996398487998733  0.6664143713690688  1.0000
  H   H204      1.0  0.37469882418035855  0.5589007324711327  0.5838609137971875  1.0000
  H   H205      1.0  0.37974279755888035  0.5722363482743724  0.6323729204519972  1.0000
  H   H206      1.0  0.38890291371366764  0.5350059895937144  0.6176424891754219  1.0000
  H   H207      1.0  0.3163481418984127  0.5585160503210176  0.5865961066112702  1.0000
  H   H208      1.0  0.3181994906053879  0.5687689824896653  0.6356957885672107  1.0000
  H   H209      1.0  0.2844839233103185  0.5306822057703574  0.6183697779218128  1.0000
  H   H210      1.0  0.3278050539893046  0.5054391410827518  0.5654520589072097  1.0000
  H   H211      1.0  0.29667813544104327  0.4801359043745988  0.5993634515400404  1.0000
  H   H212      1.0  0.3402083983790935  0.48070999937685793  0.5996544455335756  1.0000
  N   N8        1.0  0.0175503000810604  0.7040589075037241  0.6288217780573628  1.0000
  C   C221      1.0  0.04248756743036619  0.6871077760674216  0.636279346195528  1.0000
  C   C222      1.0  0.03640025348858544  0.7396205308001705  0.6150241563673715  1.0000
  C   C223      1.0  0.9985600431331138  0.7053139535611106  0.6639360081355488  1.0000
  C   C224      1.0  0.992738684008142  0.6841542655334505  0.5999665042436244  1.0000
  H   H213      1.0  0.029061237049381905  0.6600745427844513  0.6463544356438199  1.0000
  H   H214      1.0  0.06145552940143828  0.7012993988593484  0.6581520563923696  1.0000
  H   H215      1.0  0.05738952417911691  0.6860686156267337  0.6102944545383312  1.0000
  H   H216      1.0  0.018392067668782097  0.753360448562821  0.6096855153518145  1.0000
  H   H217      1.0  0.055834775525819724  0.7553055797292839  0.635702490545945  1.0000
  H   H218      1.0  0.050458895170638396  0.7396081116997099  0.5880734142589791  1.0000
  H   H219      1.0  0.978375300399855  0.7165335950871182  0.6589319138654819  1.0000
  H   H220      1.0  0.016163129966708878  0.7212002098265584  0.6860038109756578  1.0000
  H   H221      1.0  0.9849954002756954  0.6789766178010193  0.675855018358396  1.0000
  H   H222      1.0  0.974233037210397  0.6968024277132185  0.5927186846905517  1.0000
  H   H223      1.0  0.9771710618620101  0.657513801991977  0.6098094455457771  1.0000
  H   H224      1.0  0.006112740100417069  0.6819753720577282  0.573229565312859  1.0000
  N   N9        1.0  0.31444136521108307  0.8731660824532811  0.5032547759580263  1.0000
  C   C225      1.0  0.2999646843830208  0.8432279831085412  0.5289070024307795  1.0000
  C   C226      1.0  0.3526207615821361  0.8852156098365755  0.5032023800709015  1.0000
  C   C227      1.0  0.30348170724348356  0.9014763569774217  0.5161325980898737  1.0000
  C   C228      1.0  0.30168087662575827  0.8627264665837916  0.46467422366545647  1.0000
  H   H225      1.0  0.2711615793308449  0.833491015267931  0.5295392979619086  1.0000
  H   H226      1.0  0.3090113359761549  0.8500033792038201  0.5583189666952605  1.0000
  H   H227      1.0  0.30758480980549485  0.8212874512570923  0.5198594824944982  1.0000
  H   H228      1.0  0.3643041841158202  0.9076805948306584  0.48390651561753356  1.0000
  H   H229      1.0  0.3631301721743488  0.8934836922168841  0.5318697267328272  1.0000
  H   H230      1.0  0.36171530925527184  0.8643679119600522  0.4937823643777978  1.0000
  H   H231      1.0  0.3142583649054602  0.9246268356978821  0.4975805390117619  1.0000
  H   H232      1.0  0.3120955142165756  0.9098092492644676  0.5453644901994361  1.0000
  H   H233      1.0  0.2748031484146771  0.8935614774927548  0.5156783293510572  1.0000
  H   H234      1.0  0.311093856536054  0.8849124153946955  0.4446714262017021  1.0000
  H   H235      1.0  0.2729803673757189  0.8527370891466236  0.46395112237835534  1.0000
  H   H236      1.0  0.30973896879028784  0.841641786076597  0.4537430159121512  1.0000
  N   N10       1.0  0.2159844162802452  0.7611515160952081  0.3222796033371017  1.0000
  C   C229      1.0  0.24757271114907067  0.7920685410226697  0.32838593644513053  1.0000
  C   C230      1.0  0.20566638061159082  0.7595892853399008  0.2823320395944327  1.0000
  C   C231      1.0  0.18773301763239497  0.7631886522552228  0.34661199019568834  1.0000
  C   C232      1.0  0.22295151092615897  0.7298017308542617  0.33205951003404  1.0000
  H   H237      1.0  0.2558514123468854  0.7941292603111528  0.35834790311500875  1.0000
  H   H238      1.0  0.24323755552570864  0.816207313603321  0.3214762096045404  1.0000
  H   H239      1.0  0.26949372882191974  0.7914424178158284  0.3105139044485048  1.0000
  H   H240      1.0  0.22669233626730148  0.7590371001430042  0.26294043738083833  1.0000
  H   H241      1.0  0.18222717252532908  0.7362817733034765  0.2765729128913201  1.0000
  H   H242      1.0  0.19932386063914953  0.7824710457992491  0.27446992028256045  1.0000
  H   H243      1.0  0.19415394956787876  0.7631588135075194  0.3769610718137203  1.0000
  H   H244      1.0  0.1630178216325169  0.7410604642291543  0.3418457934035805  1.0000
  H   H245      1.0  0.18274136441385203  0.7872489348572478  0.34120526594366674  1.0000
  H   H246      1.0  0.19952101748939202  0.7059872339046053  0.3283354609250699  1.0000
  H   H247      1.0  0.2309804755863223  0.7305049560792781  0.3620874384997266  1.0000
  H   H248      1.0  0.24404783231964647  0.7272697211243905  0.3141594193598916  1.0000
  N   N11       1.0  0.6505023280115577  0.7720286793484616  0.9419122423414691  1.0000
  C   C233      1.0  0.667439659286937  0.8101141669685308  0.9406302709877734  1.0000
  C   C234      1.0  0.6510647769931664  0.7599532346552655  0.9808901375720038  1.0000
  C   C235      1.0  0.6693817027182083  0.7563431040802026  0.9168899473685413  1.0000
  C   C236      1.0  0.6142179406570301  0.7618236986099297  0.9295640852255139  1.0000
  H   H249      1.0  0.6676445760809451  0.8202526911077282  0.9116282636866476  1.0000
  H   H250      1.0  0.6947619720699921  0.8187249645529336  0.9502404134992521  1.0000
  H   H251      1.0  0.6537184596037885  0.8227290632174071  0.9592255291510619  1.0000
  H   H252      1.0  0.678083160978559  0.7668312872111651  0.9909786853839333  1.0000
  H   H253      1.0  0.637586497031343  0.7718706695766219  0.0005077407081668373  1.0000
  H   H254      1.0  0.6378913352790316  0.7314005310332584  0.9832866520736578  1.0000
  H   H255      1.0  0.6696885695517548  0.7649590585611539  0.8871849257896239  1.0000
  H   H256      1.0  0.6573811530041362  0.7275882899719308  0.917354150927624  1.0000
  H   H257      1.0  0.6968404948047678  0.7636341454367788  0.9258223023911372  1.0000
  H   H258      1.0  0.6126983813083894  0.7701678746853645  0.900101125330698  1.0000
  H   H259      1.0  0.5996222830720856  0.7738121866801674  0.9477565206948447  1.0000
  H   H260      1.0  0.6002624183893985  0.7333047079632296  0.9311166328134174  1.0000
  N   N12       1.0  0.43117377367900706  0.28368694191340643  0.00808286135613323  1.0000
  C   C237      1.0  0.44123097233881253  0.28092387338433933  0.9684633969153629  1.0000
  C   C238      1.0  0.4452050585514045  0.26324041353721367  0.03238582784183097  1.0000
  C   C239      1.0  0.392994550417071  0.2703082080601744  0.011454187501124258  1.0000
  C   C240      1.0  0.44542703678524886  0.3202982813870139  0.019977071938782398  1.0000
  H   H261      1.0  0.4321262857192614  0.2968307741419137  0.949276713672516  1.0000
  H   H262      1.0  0.42998613846890976  0.25374366768361506  0.9583261145248284  1.0000
  H   H263      1.0  0.469848318065761  0.2891473091306615  0.9651096053480066  1.0000
  H   H264      1.0  0.47403892647087603  0.27342576694455967  0.03137449000915127  1.0000
  H   H265      1.0  0.4371659621955783  0.2634844998363332  0.06235447494533397  1.0000
  H   H266      1.0  0.43641361704771825  0.23577829648799034  0.023110788692561002  1.0000
  H   H267      1.0  0.3842807320545077  0.27191103121702825  0.040934479470124074  1.0000
  H   H268      1.0  0.38146043202558777  0.24273204256849767  0.002731086931607063  1.0000
  H   H269      1.0  0.3814474803038574  0.2848216413043574  0.9931033859520192  1.0000
  H   H270      1.0  0.43865026320333084  0.3232045915457279  0.0499171805647316  1.0000
  H   H271      1.0  0.4352576195883301  0.3365001095484371  0.00240011198765977  1.0000
  H   H272      1.0  0.4742015689686855  0.33113385444486154  0.017430413937909783  1.0000
  N   N13       1.0  0.8068149147144337  0.5546894533142821  0.6792916720105712  1.0000
  C   C241      1.0  0.7846827956958825  0.5751989389417109  0.6742277110062278  1.0000
  C   C242      1.0  0.7887618808186593  0.5193134862466239  0.6646704552124806  1.0000
  C   C243      1.0  0.8142622256859136  0.5533033367573532  0.7198134870416648  1.0000
  C   C244      1.0  0.8396399863964226  0.5710998959941598  0.6582509058494802  1.0000
  H   H273      1.0  0.759544021107475  0.5634254195066857  0.6894827197998363  1.0000
  H   H274      1.0  0.7789749974242939  0.577164925983669  0.6438808015343638  1.0000
  H   H275      1.0  0.7974385708019442  0.6019999861358731  0.6851748253080365  1.0000
  H   H276      1.0  0.8048557970821267  0.5031897161684142  0.6676639412217465  1.0000
  H   H277      1.0  0.7638323630725152  0.5060138640767007  0.6798527754076529  1.0000
  H   H278      1.0  0.7828379114462323  0.5197543516669461  0.6340835739334167  1.0000
  H   H279      1.0  0.8283274455918759  0.5796844752755197  0.7314252628158948  1.0000
  H   H280      1.0  0.8308030830646451  0.5379236132775571  0.724775030010959  1.0000
  H   H281      1.0  0.7900868911627692  0.541581930506692  0.7367872784124815  1.0000
  H   H282      1.0  0.8575087295495856  0.5569940574887711  0.6622240170038721  1.0000
  H   H283      1.0  0.8534245912040895  0.5981419319170375  0.6677766135621638  1.0000
  H   H284      1.0  0.8350956585519925  0.571852411815265  0.627458439641264  1.0000
  N   N14       1.0  0.7897905631313819  0.13831759086464573  0.4457237968167561  1.0000
  C   C245      1.0  0.7609087729825554  0.14919870831018203  0.45667922756184925  1.0000
  C   C246      1.0  0.777396160040373  0.10011539734667615  0.44427924590635837  1.0000
  C   C247      1.0  0.8176860654372999  0.15130394286445287  0.47373751660500857  1.0000
  C   C248      1.0  0.803318301323016  0.1527116474794086  0.40824445273007487  1.0000
  H   H285      1.0  0.7693447362175955  0.17793045114267642  0.45736985431376304  1.0000
  H   H286      1.0  0.7506514984176081  0.13937220836735714  0.4852255064562426  1.0000
  H   H287      1.0  0.7391081104805294  0.1394258225025841  0.4365139771779978  1.0000
  H   H288      1.0  0.7985289653771742  0.09107923253545974  0.43561002620987826  1.0000
  H   H289      1.0  0.7680542139121836  0.08838470011681819  0.47244701996379956  1.0000
  H   H290      1.0  0.7558702403634157  0.08917364252236278  0.42399959189715514  1.0000
  H   H291      1.0  0.8400885276078661  0.143918740619735  0.46594974105253784  1.0000
  H   H292      1.0  0.8087220289200501  0.14017269450599779  0.5021729303004298  1.0000
  H   H293      1.0  0.8273235441673027  0.18001548767701722  0.47642553274057386  1.0000
  H   H294      1.0  0.8251879425337068  0.14493866483154508  0.39921614737760114  1.0000
  H   H295      1.0  0.813081557101623  0.18151904440471794  0.40847784147053934  1.0000
  H   H296      1.0  0.7829430715785844  0.14352271958741378  0.38636260670066463  1.0000
  N   N15       1.0  0.4334583983787157  0.5735631532923091  0.02757633048738306  1.0000
  C   C249      1.0  0.43603513882380773  0.5839693220373818  0.9875406413022593  1.0000
  C   C250      1.0  0.44714526777401625  0.6047682549272617  0.051512328076009695  1.0000
  C   C251      1.0  0.45381138666869986  0.5514357463984265  0.03352848421543264  1.0000
  C   C252      1.0  0.39680335286473534  0.5540888743124939  0.037567688593395765  1.0000
  H   H297      1.0  0.4255141323819049  0.5611828092258354  0.9685144080322385  1.0000
  H   H298      1.0  0.4632272925404727  0.5992077749282276  0.9789212235399629  1.0000
  H   H299      1.0  0.42090062241293513  0.6005566226248275  0.9822328957856118  1.0000
  H   H300      1.0  0.4456821870599328  0.5980581622489776  0.08195046852401089  1.0000
  H   H301      1.0  0.4746324731880533  0.6204057644838445  0.04432602085840376  1.0000
  H   H302      1.0  0.4324184956179513  0.6221163739115371  0.04753627103605784  1.0000
  H   H303      1.0  0.45240146436513984  0.5430388512082581  0.06345447626198464  1.0000
  H   H304      1.0  0.48158598379408674  0.5654183231126229  0.02613440421647506  1.0000
  H   H305      1.0  0.4440818333391609  0.5277243099951188  0.01574498510526512  1.0000
  H   H306      1.0  0.39358843920955366  0.5458585912654303  0.06759526900924806  1.0000
  H   H307      1.0  0.3855699377483116  0.530472372071745  0.019847631353505202  1.0000
  H   H308      1.0  0.3806817110227169  0.5699745443091948  0.032937021482983164  1.0000
  N   N16       1.0  0.2436766078789363  0.4432284066537683  0.19626188238173278  1.0000
  C   C253      1.0  0.2128334132454029  0.42832895131766074  0.172305912220129  1.0000
  C   C254      1.0  0.24478756801840373  0.41693001664903817  0.22360908213794725  1.0000
  C   C255      1.0  0.24180545904254705  0.47353768971781945  0.2166993832070016  1.0000
  C   C256      1.0  0.275207682091015  0.45400963405553313  0.17234593916943025  1.0000
  H   H309      1.0  0.2114336458636924  0.4470859322828825  0.15062655535749328  1.0000
  H   H310      1.0  0.1884249313128239  0.41973737840881853  0.18925809248253855  1.0000
  H   H311      1.0  0.2133365069781212  0.405246618240228  0.15687837417814018  1.0000
  H   H312      1.0  0.26782774923861263  0.4269702242708311  0.2420824424080994  1.0000
  H   H313      1.0  0.22141795825472038  0.40828530952944153  0.24219992955225947  1.0000
  H   H314      1.0  0.24573938550574556  0.3935370015599707  0.2089686272421797  1.0000
  H   H315      1.0  0.2646810540630617  0.48542623100024157  0.23509832969196415  1.0000
  H   H316      1.0  0.2182356823191499  0.46617378699351947  0.23497030137510777  1.0000
  H   H317      1.0  0.24083887707956117  0.49378940710084807  0.196747718785494  1.0000
  H   H318      1.0  0.2990776689116988  0.46493891150261396  0.1894089509515491  1.0000
  H   H319      1.0  0.27527786238599494  0.47394779857440344  0.15139697958298626  1.0000
  H   H320      1.0  0.276957539215088  0.43178013229599016  0.15592799818215428  1.0000
  N   N17       1.0  0.28319441732158734  0.702784018137587  0.8866522672552494  1.0000
  C   C257      1.0  0.2664448774612722  0.6873294462777045  0.9226787562204679  1.0000
  C   C258      1.0  0.31890484990062495  0.7269164591659966  0.8938067646177091  1.0000
  C   C259      1.0  0.2633100802395788  0.7218486989337575  0.8693105577065442  1.0000
  C   C260      1.0  0.2841532241718313  0.6751899392534788  0.8607410163372278  1.0000
  H   H321      1.0  0.26392826384573487  0.7073083123888657  0.9422364779151813  1.0000
  H   H322      1.0  0.28164506571700626  0.6742392533655799  0.9377040051500503  1.0000
  H   H323      1.0  0.24002317445708374  0.6677913381203799  0.9183006415674131  1.0000
  H   H324      1.0  0.33299143825868516  0.7376586041372362  0.8670820487760827  1.0000
  H   H325      1.0  0.3192068512876381  0.7490279296394889  0.9116896493049721  1.0000
  H   H326      1.0  0.3342051620813306  0.7137181540187717  0.9084512565227475  1.0000
  H   H327      1.0  0.27534115572400175  0.7339947553289714  0.8421697121109011  1.0000
  H   H328      1.0  0.262044580688163  0.7428305331786077  0.8882405324873691  1.0000
  H   H329      1.0  0.23622782807652876  0.7043938607488631  0.8634905868971405  1.0000
  H   H330      1.0  0.29690970705396846  0.6860171343416638  0.8333918102006758  1.0000
  H   H331      1.0  0.25774639733596805  0.656309225355656  0.8547076775223393  1.0000
  H   H332      1.0  0.2992854203940791  0.6605589726522504  0.8727458654925582  1.0000
  N   N18       1.0  0.7535213185809317  0.11745440297884893  0.008749202725968797  1.0000
  C   C261      1.0  0.7492658028638354  0.09333190134928236  0.9767910419759644  1.0000
  C   C262      1.0  0.7546226671544469  0.15127314924341534  0.994589906280364  1.0000
  C   C263      1.0  0.7861820192406225  0.12218968936269999  0.02824667752658582  1.0000
  C   C264      1.0  0.7241822223310963  0.10305606072003308  0.0354367836315855  1.0000
  H   H333      1.0  0.7487194508160917  0.06765178167441979  0.9864490419480296  1.0000
  H   H334      1.0  0.7710878432505422  0.10329787186416409  0.9561715979088711  1.0000
  H   H335      1.0  0.7249051667776883  0.08904200452210209  0.9612934473926636  1.0000
  H   H336      1.0  0.7578681450528749  0.17011365717671945  0.018023577384192843  1.0000
  H   H337      1.0  0.7767639476357601  0.16305280292648147  0.9747219674160372  1.0000
  H   H338      1.0  0.7305077420100011  0.14886189080316523  0.9794929367277704  1.0000
  H   H339      1.0  0.7905855591263452  0.1405518803692312  0.052317533531573576  1.0000
  H   H340      1.0  0.8086453181030199  0.133067987980334  0.008782904085820942  1.0000
  H   H341      1.0  0.7865338512087953  0.0972287459647876  0.03914759326736497  1.0000
  H   H342      1.0  0.7266890058439721  0.1206481582076773  0.05992199567424461  1.0000
  H   H343      1.0  0.7226995982612776  0.07754942112662766  0.04669005723215678  1.0000
  H   H344      1.0  0.6990760172746384  0.09919296194553533  0.02166590078146455  1.0000
  N   N19       1.0  0.6191933324369697  0.2084784483350106  0.5435000453027569  1.0000
  C   C265      1.0  0.6371700845411594  0.24594064260054851  0.550087058817193  1.0000
  C   C266      1.0  0.6152327574376291  0.2017571832905033  0.5025231927008406  1.0000
  C   C267      1.0  0.5846655390594397  0.1967576267828403  0.5618360094809172  1.0000
  C   C268      1.0  0.6398106862750135  0.18955390907484576  0.5595125212106404  1.0000
  H   H345      1.0  0.6231043168938578  0.26109974981495326  0.5370439275899586  1.0000
  H   H346      1.0  0.6636897351976424  0.25555553202287823  0.5376612126219276  1.0000
  H   H347      1.0  0.6395146990067953  0.25229673322949875  0.5806541896041326  1.0000
  H   H348      1.0  0.6017655165700546  0.1737544908443694  0.4964304190484016  1.0000
  H   H349      1.0  0.5999500827467981  0.21572433557821996  0.4894393178443093  1.0000
  H   H350      1.0  0.6407974141547211  0.21052150348115795  0.48776103607783666  1.0000
  H   H351      1.0  0.5689144663913509  0.2113155751707426  0.5511085167451609  1.0000
  H   H352      1.0  0.5866236281220523  0.2007952675888473  0.5928800742089998  1.0000
  H   H353      1.0  0.5697712581539162  0.16883046404220314  0.5565266691383016  1.0000
  H   H354      1.0  0.6436401664265529  0.19433524832048124  0.5903185489009876  1.0000
  H   H355      1.0  0.665967519144331  0.19785715633043421  0.5460033069247311  1.0000
  H   H356      1.0  0.6269800200109324  0.16117258750402433  0.5551615769633607  1.0000
  N   N20       1.0  0.8291924656985832  0.9246114411528704  0.987476863103841  1.0000
  C   C269      1.0  0.8660715043690074  0.934398221950487  0.9971988380394832  1.0000
  C   C270      1.0  0.817895016963869  0.8926044777403125  0.9646654239588305  1.0000
  C   C271      1.0  0.8246206585409386  0.9528561469164051  0.9656800460062476  1.0000
  C   C272      1.0  0.8081641079416448  0.9185907516230857  0.02245376025691494  1.0000
  H   H357      1.0  0.8753787380626844  0.9585778007944183  0.014283417981061482  1.0000
  H   H358      1.0  0.8827042392859574  0.9390021428577974  0.9714368403710641  1.0000
  H   H359      1.0  0.870418956739016  0.9137337173523556  0.013868958735191592  1.0000
  H   H360      1.0  0.8327153312142893  0.8962452925353948  0.9376860552251074  1.0000
  H   H361      1.0  0.8214268414664895  0.8708286979518108  0.9800740879924891  1.0000
  H   H362      1.0  0.7899096156806887  0.8840047375185126  0.9576782729450568  1.0000
  H   H363      1.0  0.8320327842517247  0.9771957527049396  0.9824571952005452  1.0000
  H   H364      1.0  0.7971994919170711  0.9460457680997408  0.9571890555795818  1.0000
  H   H365      1.0  0.8407052253393772  0.9587777748063054  0.9394793933368497  1.0000
  H   H366      1.0  0.8101525510393959  0.896789748692659  0.03911572391331656  1.0000
  H   H367      1.0  0.7802843539115519  0.9121729728791944  0.016274193987562337  1.0000
  H   H368      1.0  0.8164120192603073  0.9419202530727636  0.04089306659490662  1.0000
  N   N21       1.0  0.9612887969609065  0.6142563388870689  0.030789423974115042  1.0000
  C   C273      1.0  0.9976079482669533  0.6344329631949905  0.04084715362414506  1.0000
  C   C274      1.0  0.9547992755237975  0.5768668459459945  0.03250545921004045  1.0000
  C   C275      1.0  0.9548008641783524  0.6233782170146877  0.992166253301069  1.0000
  C   C276      1.0  0.937758519161153  0.6223598940499606  0.05748110111685616  1.0000
  H   H369      1.0  0.0033037792917660624  0.6627605145803744  0.03936561518481117  1.0000
  H   H370      1.0  0.01607563050966343  0.6290220875043748  0.02122000799033438  1.0000
  H   H371      1.0  0.0034557893506701465  0.6285806520197238  0.06998847702695081  1.0000
  H   H372      1.0  0.9274470203423926  0.5611222339057064  0.025175904481685493  1.0000
  H   H373      1.0  0.971756279871936  0.5697478197106647  0.01231886624437717  1.0000
  H   H374      1.0  0.9594564494002323  0.5689872563436442  0.06124491911724841  1.0000
  H   H375      1.0  0.9279527796157213  0.6079076204170095  0.9832290922396809  1.0000
  H   H376      1.0  0.9728108911198159  0.6189130511718475  0.9712042887910374  1.0000
  H   H377      1.0  0.9581630108082568  0.6510920810199539  0.9902187354682983  1.0000
  H   H378      1.0  0.910099303148797  0.6076887721188469  0.05041956225014877  1.0000
  H   H379      1.0  0.9418902020167508  0.6503963017186084  0.05683835515026828  1.0000
  H   H380      1.0  0.9417236101215838  0.6156763444371923  0.08694649311308006  1.0000
  N   N22       1.0  0.1056686349134297  0.37977892853636136  0.5345312923538342  1.0000
  C   C277      1.0  0.11540899364923018  0.3837265214905039  0.4941485800035501  1.0000
  C   C278      1.0  0.09227245405119122  0.34266337114032674  0.544685938219712  1.0000
  C   C279      1.0  0.07854428770161892  0.39419708836162454  0.5417164577210406  1.0000
  C   C280      1.0  0.13641721015553632  0.3985847909475676  0.5574433669525082  1.0000
  H   H381      1.0  0.13583748730649514  0.37319296556515513  0.48789233047037284  1.0000
  H   H382      1.0  0.12597380073770714  0.4114061572298518  0.4854395637021997  1.0000
  H   H383      1.0  0.09301640178418746  0.36954417394184047  0.4758780510773777  1.0000
  H   H384      1.0  0.0851220461117923  0.33856211388650326  0.5750820260437761  1.0000
  H   H385      1.0  0.06886131853412247  0.3277924431925189  0.5281246788531158  1.0000
  H   H386      1.0  0.11174700979792296  0.3306561888742208  0.5388218305233095  1.0000
  H   H387      1.0  0.07045484533595392  0.3915233932788288  0.5719209350762603  1.0000
  H   H388      1.0  0.055056415938385506  0.38061237891401123  0.5246856418922515  1.0000
  H   H389      1.0  0.0878274964703687  0.4221799001692711  0.5343532099092921  1.0000
  H   H390      1.0  0.1573828383889635  0.3883111965517775  0.5527720757263864  1.0000
  H   H391      1.0  0.1301302383083165  0.39649358627206327  0.5880989970770517  1.0000
  H   H392      1.0  0.1476457997285725  0.4265498856204392  0.5498688037125468  1.0000
  N   N23       1.0  0.46864389688345437  0.725414194882877  0.687023071844444  1.0000
  C   C281      1.0  0.46747497114506764  0.721107830218475  0.728438613844591  1.0000
  C   C282      1.0  0.45132380115178466  0.6913460966952676  0.6690863504692661  1.0000
  C   C283      1.0  0.5050173010945767  0.7402925715032489  0.6738229076051648  1.0000
  C   C284      1.0  0.45063238277636525  0.7488235216152921  0.6766332265409201  1.0000
  H   H393      1.0  0.4799277879352977  0.7463294576386112  0.7430393652192756  1.0000
  H   H394      1.0  0.48088824491044435  0.7036567497220086  0.7373193008049537  1.0000
  H   H395      1.0  0.44030817298656066  0.7095334285463493  0.7391058561317337  1.0000
  H   H396      1.0  0.45251757009990146  0.6933989571874762  0.6378192850166527  1.0000
  H   H397      1.0  0.4633937202041402  0.6725535702538783  0.6771609045140821  1.0000
  H   H398      1.0  0.4235574778529623  0.6800104754033518  0.6772915519500927  1.0000
  H   H399      1.0  0.506580080317714  0.7439188384915364  0.6426132189310697  1.0000
  H   H400      1.0  0.5193077162355346  0.7231222060676076  0.6807242575206172  1.0000
  H   H401      1.0  0.5189661550346886  0.7660505518512817  0.6867152096962531  1.0000
  H   H402      1.0  0.45091918808241105  0.7525123996999766  0.6455011088255745  1.0000
  H   H403      1.0  0.46305438899199464  0.7748533559413068  0.6895076746561132  1.0000
  H   H404      1.0  0.42304389920426777  0.7383318875688475  0.6860040859740582  1.0000
  N   N24       1.0  0.7489224640598533  0.42942198355035155  0.3517193224698716  1.0000
  C   C285      1.0  0.7785600215885673  0.4624230697943735  0.35609994371322745  1.0000
  C   C286      1.0  0.7199406308032946  0.4296352179148355  0.37611106870278205  1.0000
  C   C287      1.0  0.7594394220005626  0.40057771445024865  0.36296242382146043  1.0000
  C   C288      1.0  0.7377041469466603  0.42485669194282366  0.31197203123620315  1.0000
  H   H405      1.0  0.7873970599276477  0.46639965268742484  0.38596004875239776  1.0000
  H   H406      1.0  0.7716290724124949  0.48485155811101155  0.3479116108043837  1.0000
  H   H407      1.0  0.8009656687894268  0.4629473025752444  0.3382886001159517  1.0000
  H   H408      1.0  0.6970304002015666  0.40513463338408123  0.37312861049568435  1.0000
  H   H409      1.0  0.7273235175786527  0.4323104470922153  0.40642313718343626  1.0000
  H   H410      1.0  0.7114629298255317  0.4512628346326799  0.36882344941658235  1.0000
  H   H411      1.0  0.7802798610747133  0.39852883091295743  0.34428773405130825  1.0000
  H   H412      1.0  0.737256857388315  0.3754862338533864  0.3614691835175519  1.0000
  H   H413      1.0  0.7690823462739306  0.4037766293351158  0.39246272769144236  1.0000
  H   H414      1.0  0.7147385625009187  0.40058858077889853  0.3081696146901053  1.0000
  H   H415      1.0  0.7583920614382555  0.4231240069533316  0.29278299150559123  1.0000
  H   H416      1.0  0.7303001829997209  0.4465358325171808  0.3021444132471304  1.0000
  N   N25       1.0  0.4284094369648116  0.25597734912066705  0.47116841220447714  1.0000
  C   C289      1.0  0.4586141623673968  0.27094971369422066  0.49602949502972193  1.0000
  C   C290      1.0  0.43696732432238594  0.2716760555566134  0.43328817415525694  1.0000
  C   C291      1.0  0.39861897082288683  0.2630276314958379  0.4870944079907053  1.0000
  C   C292      1.0  0.41946493121676737  0.2182023799591854  0.4682087122513206  1.0000
  H   H417      1.0  0.481655802739151  0.2663630135462429  0.4846649864994402  1.0000
  H   H418      1.0  0.45320939173204294  0.2592275131346444  0.524692790343582  1.0000
  H   H419      1.0  0.4659703480402598  0.2993716577945906  0.4993609473276337  1.0000
  H   H420      1.0  0.4147059018961302  0.26084638728099113  0.4138189581011557  1.0000
  H   H421      1.0  0.44386081963443164  0.3001950482385126  0.4344455153107645  1.0000
  H   H422      1.0  0.4593717749686325  0.2668132484442424  0.4205083353940777  1.0000
  H   H423      1.0  0.4044086268413602  0.2912482721918791  0.49006287483309086  1.0000
  H   H424      1.0  0.39113730525425033  0.25115801407556565  0.5155036235827648  1.0000
  H   H425      1.0  0.3753312425442282  0.2521239802781857  0.4690201885897662  1.0000
  H   H426      1.0  0.39627399806635943  0.20578288531662642  0.45038889790045505  1.0000
  H   H427      1.0  0.4134712255796197  0.20563316581775845  0.496310898289365  1.0000
  H   H428      1.0  0.4412815902890318  0.2118124269367117  0.45620079201946157  1.0000
  N   N26       1.0  0.7819153852504305  0.7786124304043951  0.15268746178408518  1.0000
  C   C293      1.0  0.7814965785599157  0.8075436560958283  0.1768376602804818  1.0000
  C   C294      1.0  0.7948542691232622  0.7557126816829853  0.17452451595700919  1.0000
  C   C295      1.0  0.8048185624113539  0.7924700206317907  0.11968023916555282  1.0000
  C   C296      1.0  0.7464346405983189  0.7586465862044982  0.1397383995257234  1.0000
  H   H429      1.0  0.7718485636902714  0.8253587686306261  0.16125226408947438  1.0000
  H   H430      1.0  0.8077095293749468  0.8230798700397733  0.18751639521395355  1.0000
  H   H431      1.0  0.7639842220927059  0.7980404036899083  0.20173126929334617  1.0000
  H   H432      1.0  0.7954215901027084  0.7335374436407968  0.15711856087847473  1.0000
  H   H433      1.0  0.8216153173830396  0.7698808967088129  0.18471087899029542  1.0000
  H   H434      1.0  0.7781168178542183  0.744838376899557  0.19964492495495267  1.0000
  H   H435      1.0  0.8067691701204187  0.7712882171371946  0.10158681631063161  1.0000
  H   H436      1.0  0.8315484783031314  0.808629876430582  0.1284072579810688  1.0000
  H   H437      1.0  0.7950179434009338  0.8087400338544969  0.10170295415247663  1.0000
  H   H438      1.0  0.7456100096393885  0.7363998465817403  0.12172632422770872  1.0000
  H   H439      1.0  0.7358345624087211  0.7751060457916948  0.12310486119923804  1.0000
  H   H440      1.0  0.7283153187482466  0.7482603144884765  0.1639619115511082  1.0000
  N   N27       1.0  0.8206743409572276  0.8827338205789761  0.521038530735295  1.0000
  C   C297      1.0  0.8254499245650759  0.8594405412427065  0.491724991803013  1.0000
  C   C298      1.0  0.8486219552492763  0.8904816425483048  0.5490172094948004  1.0000
  C   C299      1.0  0.7868729404224103  0.8656888342510827  0.5400957651835495  1.0000
  C   C300      1.0  0.8216981397700145  0.9153081600535786  0.5034560647189108  1.0000
  H   H441      1.0  0.8041818855382075  0.8521071930965699  0.4707610809245935  1.0000
  H   H442      1.0  0.825644128830734  0.8349582720095928  0.5041710868297085  1.0000
  H   H443      1.0  0.8502410328255776  0.8717320067728592  0.4759870228346831  1.0000
  H   H444      1.0  0.8456700312258038  0.9079352725847539  0.5715827855720814  1.0000
  H   H445      1.0  0.8485666717692163  0.8664338188216367  0.5628548823682967  1.0000
  H   H446      1.0  0.8745238812577693  0.9034244289501758  0.5356187065698756  1.0000
  H   H447      1.0  0.7652893246548913  0.8589771291067813  0.5196497284285926  1.0000
  H   H448      1.0  0.7818388506763487  0.8829290651581962  0.5615972486124935  1.0000
  H   H449      1.0  0.7853376259866187  0.8413814500613968  0.5543871542090323  1.0000
  H   H450      1.0  0.8181620062551652  0.9334619461610432  0.5248516471771258  1.0000
  H   H451      1.0  0.8005885209992905  0.910518038407515  0.4826403846471323  1.0000
  H   H452      1.0  0.8466711606679573  0.9288911151201302  0.4885105685896354  1.0000
  N   N28       1.0  0.9496698734772393  0.2665144783625132  0.0525217209289679  1.0000
  C   C301      1.0  0.941596181293772  0.2290281379588453  0.048050556164051406  1.0000
  C   C302      1.0  0.9416319980252423  0.28068341685568765  0.01720597596193052  1.0000
  C   C303      1.0  0.9868666440513798  0.2839302085481372  0.06094602460914289  1.0000
  C   C304      1.0  0.9285103791546813  0.2722379367942594  0.08370844155817947  1.0000
  H   H453      1.0  0.949037150071729  0.217559996953439  0.07322576303487738  1.0000
  H   H454      1.0  0.9556403384428529  0.2237800811471028  0.02348104053832656  1.0000
  H   H455      1.0  0.9135315264071335  0.21471455651344576  0.04330905735648671  1.0000
  H   H456      1.0  0.9468365889734067  0.3088283233100009  0.01970946210672153  1.0000
  H   H457      1.0  0.9574404199063816  0.27713559063420073  0.9931230301549179  1.0000
  H   H458      1.0  0.9138784055539928  0.2675738611930307  0.009604161095292607  1.0000
  H   H459      1.0  0.9941074020229969  0.3123479691216393  0.06423452499108917  1.0000
  H   H460      1.0  0.0034003321703199862  0.27974722764684107  0.037948292911397674  1.0000
  H   H461      1.0  0.9939311256605355  0.2738150690418568  0.08734136111862156  1.0000
  H   H462      1.0  0.9340105893518356  0.3002701357387863  0.08810925980050666  1.0000
  H   H463      1.0  0.9334830046068455  0.2613501383557831  0.11066811447609237  1.0000
  H   H464      1.0  0.9003013137697188  0.25956492527720443  0.07776581214514744  1.0000
  N   N29       1.0  0.24303681458851226  0.0900161817211026  0.5281430282335113  1.0000
  C   C305      1.0  0.24411400616807627  0.1248505976029468  0.5387414696946409  1.0000
  C   C306      1.0  0.2383389043782048  0.06846625742482783  0.5623517602804647  1.0000
  C   C307      1.0  0.275852468866218  0.09306460146195464  0.5091931183045835  1.0000
  C   C308      1.0  0.21397647493147304  0.07362212221232824  0.5021984464409682  1.0000
  H   H465      1.0  0.22000371399334925  0.12366092566125936  0.5536128118370999  1.0000
  H   H466      1.0  0.24754201439970933  0.14178060440432713  0.5135518122013978  1.0000
  H   H467      1.0  0.2662219301535635  0.13825854821399747  0.5576555636467939  1.0000
  H   H468      1.0  0.2383584175903794  0.04229806618870121  0.55540961811407  1.0000
  H   H469      1.0  0.25974852616849775  0.08022685516344577  0.582687077061115  1.0000
  H   H470      1.0  0.21361577004025203  0.06505174520506346  0.577236542184722  1.0000
  H   H471      1.0  0.29786552900268143  0.10302252509612038  0.5289179554991779  1.0000
  H   H472      1.0  0.2817330099828171  0.11115369290629878  0.4847777598413379  1.0000
  H   H473      1.0  0.2752620356340136  0.06755234765212247  0.49884666516567316  1.0000
  H   H474      1.0  0.21234776580584755  0.04717048960478096  0.49392631333781817  1.0000
  H   H475      1.0  0.21705849941043404  0.08903885363187077  0.4758824426284553  1.0000
  H   H476      1.0  0.1887744621613619  0.07114224352185992  0.515454714543338  1.0000
  N   N30       1.0  0.7449479242180792  0.6350299102916602  0.511659603782244  1.0000
  C   C309      1.0  0.7730061906248806  0.6369763048862713  0.4847404237507552  1.0000
  C   C310      1.0  0.7279437273217592  0.6588560531607208  0.4995404977381552  1.0000
  C   C311      1.0  0.7596232418279464  0.6450978562736496  0.5495773967854166  1.0000
  C   C312      1.0  0.719396205652928  0.5991948337231455  0.5128964225037382  1.0000
  H   H477      1.0  0.7864846795937086  0.6193960360261139  0.49324109595592347  1.0000
  H   H478      1.0  0.7927871680002124  0.6637030336155137  0.48310285397309305  1.0000
  H   H479      1.0  0.7629317245108466  0.629492122237048  0.4557934609633984  1.0000
  H   H480      1.0  0.7064636838763599  0.6579202544344103  0.519051049442814  1.0000
  H   H481      1.0  0.7465156095403886  0.6861726266268441  0.4989573690856045  1.0000
  H   H482      1.0  0.7170669860986812  0.6525300690998479  0.4707265425102888  1.0000
  H   H483      1.0  0.7395352695648835  0.6451542418455262  0.5705225029533662  1.0000
  H   H484      1.0  0.7798547681064393  0.6714716322003649  0.5493455209355024  1.0000
  H   H485      1.0  0.7719412778055523  0.6272500712498905  0.5600527353282787  1.0000
  H   H486      1.0  0.7316726545924972  0.5806774703592732  0.521814466513286  1.0000
  H   H487      1.0  0.7076953784667103  0.5906992312019298  0.48476460192337656  1.0000
  H   H488      1.0  0.6980276384940243  0.5966675841091339  0.533237683496042  1.0000
  N   N31       1.0  0.8324670314345759  0.22421455722153136  0.6863752758587648  1.0000
  C   C313      1.0  0.8432093638216792  0.2465440351743944  0.6526318991573344  1.0000
  C   C314      1.0  0.8216113128808893  0.18759523585589294  0.6748897726474186  1.0000
  C   C315      1.0  0.8032086947132623  0.2299205678263386  0.7053860820490879  1.0000
  C   C316      1.0  0.8618642354627448  0.23264144100160014  0.7125718180609464  1.0000
  H   H489      1.0  0.8514075253500021  0.2744184492276491  0.6599810042426633  1.0000
  H   H490      1.0  0.8219109347691709  0.2405094639763567  0.6318003175827315  1.0000
  H   H491      1.0  0.8654143877821651  0.2429340899538969  0.6377790354127486  1.0000
  H   H492      1.0  0.8135087272344645  0.1698151782676943  0.6995841695289203  1.0000
  H   H493      1.0  0.7997336874786719  0.18016877562128913  0.6547674143177086  1.0000
  H   H494      1.0  0.8431804915976708  0.1823762874150588  0.6607956356675422  1.0000
  H   H495      1.0  0.7805816651994388  0.22366593953544964  0.6863577648971639  1.0000
  H   H496      1.0  0.8104796023565385  0.2573125322855438  0.7144862718747687  1.0000
  H   H497      1.0  0.7946047131470086  0.2133308011403553  0.7309493128709124  1.0000
  H   H498      1.0  0.854978386420736  0.21560079396307205  0.7379459816460249  1.0000
  H   H499      1.0  0.8704720050825989  0.2598910196597665  0.7224785561280697  1.0000
  H   H500      1.0  0.8845593182385777  0.2291058049817066  0.6988165275393844  1.0000
  N   N32       1.0  0.5929671313699418  0.8146709520352743  0.33954394645887825  1.0000
  C   C317      1.0  0.5982309374166386  0.8309167118199834  0.30181932617611257  1.0000
  C   C318      1.0  0.5561946518671549  0.7924427874821915  0.34508101109720923  1.0000
  C   C319      1.0  0.6031256952509545  0.8419328058375826  0.368735555974516  1.0000
  C   C320      1.0  0.6145045148569109  0.793387112272821  0.3427323731281609  1.0000
  H   H501      1.0  0.6258597481117217  0.8479446303467637  0.29720001410474295  1.0000
  H   H502      1.0  0.5823921220020586  0.8472064222826673  0.2982740807008424  1.0000
  H   H503      1.0  0.5913010469585751  0.8111750203510818  0.2789874089747967  1.0000
  H   H504      1.0  0.5517525683370136  0.7800664941691329  0.3735402352974187  1.0000
  H   H505      1.0  0.5390903158783776  0.8075909851123884  0.34291337219439544  1.0000
  H   H506      1.0  0.5476828992647247  0.7713561719585407  0.3237675346279808  1.0000
  H   H507      1.0  0.6000338747957096  0.830614882609489  0.3975728814208578  1.0000
  H   H508      1.0  0.5872114414133981  0.858329442070548  0.36747626427222324  1.0000
  H   H509      1.0  0.6306915635019542  0.8593406363350763  0.365273953292425  1.0000
  H   H510      1.0  0.6107358158409836  0.7802008445524734  0.37060792028636125  1.0000
  H   H511      1.0  0.6424458278357009  0.8095437376238079  0.33974660769999676  1.0000
  H   H512      1.0  0.6082568683597591  0.7730797871803723  0.32056935868324105  1.0000
