data_image0
_chemical_formula_structural       FeS2FeS2FeSFeS3FeS2FeS2FeSFeS3FeS2FeS2FeSFeS3FeS2FeS2FeSFeS3FeS2FeS2FeSFeS3FeS2FeS2FeSFeS3FeS2FeS2FeSFeS3FeS2FeS2FeSFeS3FeS2FeS2FeSFeS3FeS2FeS2FeSFeS3FeS2FeS2FeSFeS3FeS2FeS2FeSFeS3FeS2FeS2FeSFeS3FeS2FeS2FeSFeS3FeS2FeS2FeSFeS3FeS2FeS2FeSFeS3C6H4C6H4C6H4C6H4C6H4C6H4C6H4C6H4C6H4C6H4C6H4C6H4C6H4C6H4C6H4C6H4C6H4C6H4C6H4C6H4C6H4C6H4C6H4C6H4C6H4C6H4C6H4C6H4C6H4C6H4C6H4C6H4NC4H12NC4H12NC4H12NC4H12NC4H12NC4H12NC4H12NC4H12NC4H12NC4H12NC4H12NC4H12NC4H12NC4H12NC4H12NC4H12NC4H12NC4H12NC4H12NC4H12NC4H12NC4H12NC4H12NC4H12NC4H12NC4H12NC4H12NC4H12NC4H12NC4H12NC4H12NC4H12
_chemical_formula_sum              "Fe64 S128 C320 H512 N32"
_cell_length_a       39.63277897992946
_cell_length_b       39.27295676839694
_cell_length_c       62.792881839743906
_cell_angle_alpha    87.79001218108468
_cell_angle_beta     87.80701757465677
_cell_angle_gamma    106.06584660027451

_space_group_name_H-M_alt    "P 1"
_space_group_IT_number       1

loop_
  _space_group_symop_operation_xyz
  'x, y, z'

loop_
  _atom_site_type_symbol
  _atom_site_label
  _atom_site_symmetry_multiplicity
  _atom_site_fract_x
  _atom_site_fract_y
  _atom_site_fract_z
  _atom_site_occupancy
  Fe  Fe1       1.0  0.4238346769575584  0.6474117811036731  0.2759603482239088  1.0000
  S   S1        1.0  0.3707448747817732  0.6350451632584201  0.29303511937708554  1.0000
  S   S2        1.0  0.4366974695905314  0.6734735097085259  0.24313034895043872  1.0000
  Fe  Fe2       1.0  0.4554312179545421  0.6150403331471638  0.31182869323181955  1.0000
  S   S3        1.0  0.4050964548446163  0.5994984929417757  0.33191406024074727  1.0000
  S   S4        1.0  0.5041130617138121  0.6072491862070388  0.32553494208559486  1.0000
  Fe  Fe3       1.0  0.380102563717736  0.5825988262036499  0.30127294500488766  1.0000
  S   S5        1.0  0.3370724285317092  0.5323688900117819  0.2987537321733152  1.0000
  Fe  Fe4       1.0  0.4010633699688135  0.6534794459838944  0.32178738879135127  1.0000
  S   S6        1.0  0.38227636293311196  0.6841024300066921  0.3468963533332404  1.0000
  S   S7        1.0  0.4308764019557541  0.5931446625740256  0.2819332275135435  1.0000
  S   S8        1.0  0.4535688603428215  0.6704581194759057  0.30411532195276675  1.0000
  Fe  Fe5       1.0  0.3141477622848379  0.5514216803058246  0.13902280243834128  1.0000
  S   S9        1.0  0.33236929185179764  0.5777115651942495  0.10672458103421738  1.0000
  S   S10       1.0  0.3059176459452604  0.49364612380555367  0.14744433675983598  1.0000
  Fe  Fe6       1.0  0.313560731969982  0.6206682652113602  0.1586732959884588  1.0000
  S   S11       1.0  0.3320236090966806  0.6531128900208459  0.12813604074368187  1.0000
  S   S12       1.0  0.3018763410350821  0.6437608890808845  0.18924297735259205  1.0000
  Fe  Fe7       1.0  0.29354104270099723  0.6083645058814022  0.11329875712444495  1.0000
  S   S13       1.0  0.26019335468194504  0.6174974333297197  0.08686840729883694  1.0000
  Fe  Fe8       1.0  0.3688104288635353  0.6191915705489838  0.12477296742416019  1.0000
  S   S14       1.0  0.42602679868575244  0.6401635996292961  0.11583943581263445  1.0000
  S   S15       1.0  0.27180554501323173  0.5785140679946492  0.1442103320861147  1.0000
  S   S16       1.0  0.3538482508846639  0.5904855652103674  0.15659807522749716  1.0000
  Fe  Fe9       1.0  0.5906492976243333  0.9909342549598295  0.9777110851552722  1.0000
  S   S17       1.0  0.5740900333553952  0.009290345989228557  0.9466078283779804  1.0000
  S   S18       1.0  0.5683413731582199  0.935024551301589  0.9917567772090781  1.0000
  Fe  Fe10      1.0  0.6479139710500207  0.06022285991077867  0.9818039237706617  1.0000
  S   S19       1.0  0.6360690701263583  0.08414136127460511  0.9509895570455409  1.0000
  S   S20       1.0  0.6906399322892648  0.09266266179563502  0.0012376930991805097  1.0000
  Fe  Fe11      1.0  0.5797124485797366  0.06081276472568404  0.9622515731012115  1.0000
  S   S21       1.0  0.5409212344234481  0.09193115998591525  0.956577877850557  1.0000
  Fe  Fe12      1.0  0.6317337087294935  0.030522768704002442  0.9385255676295449  1.0000
  S   S22       1.0  0.6567701794604256  0.022503699791024505  0.9072495890456824  1.0000
  S   S23       1.0  0.5915380237122473  0.04092127445543731  0.9942814903935304  1.0000
  S   S24       1.0  0.6483602549249108  0.008354712140390852  0.9684085502744917  1.0000
  Fe  Fe13      1.0  0.9169076954793296  0.28420508599764827  0.9592780304829182  1.0000
  S   S25       1.0  0.8912840096303747  0.32650702175979196  0.9498333629397488  1.0000
  S   S26       1.0  0.9728083535226844  0.29171005081217577  0.9684963247125856  1.0000
  Fe  Fe14      1.0  0.8529907062726128  0.22412113218162977  0.9496072319738982  1.0000
  S   S27       1.0  0.8218792598699672  0.2609419668272269  0.9394766888877669  1.0000
  S   S28       1.0  0.8315405259085537  0.16543859846609876  0.9467346789974693  1.0000
  Fe  Fe15      1.0  0.8719501814132475  0.29262232628655316  0.9224031791542169  1.0000
  S   S29       1.0  0.871393295758009  0.3144348196443516  0.8888842716317846  1.0000
  Fe  Fe16      1.0  0.8437898055922533  0.29086379855075695  0.9678125738357184  1.0000
  S   S30       1.0  0.8064458031737426  0.30874140124732147  0.9892024132483968  1.0000
  S   S31       1.0  0.9016675760235883  0.2533899768366161  0.9301590373016035  1.0000
  S   S32       1.0  0.8707365270049485  0.25107587924685226  0.9796061327450749  1.0000
  Fe  Fe17      1.0  0.5901504118740333  0.2967715528829862  0.9172120365814046  1.0000
  S   S33       1.0  0.5563887176777589  0.29589942197198166  0.9469381028701596  1.0000
  S   S34       1.0  0.5709213452423165  0.26657671377594083  0.8884921089522487  1.0000
  Fe  Fe18      1.0  0.6562131818004628  0.3412465746662338  0.9359036600936331  1.0000
  S   S35       1.0  0.6290378333139497  0.343283202795891  0.9674553420199236  1.0000
  S   S36       1.0  0.7127970282014437  0.36977376944223955  0.9282017365731305  1.0000
  Fe  Fe19      1.0  0.6022304498501577  0.2859006333202808  0.9635237592253717  1.0000
  S   S37       1.0  0.6000076055724067  0.24539264539431463  0.989975515133151  1.0000
  Fe  Fe20      1.0  0.5865510943475073  0.3534501388568097  0.9478885166558917  1.0000
  S   S38       1.0  0.5692623305550238  0.40207665096718126  0.95380889098293  1.0000
  S   S39       1.0  0.633880576068453  0.28273715737603694  0.933751542236438  1.0000
  S   S40       1.0  0.6155655373543892  0.35520879110739034  0.9164438076928448  1.0000
  Fe  Fe21      1.0  0.1857435789532268  0.4321188297173119  0.9773173137744227  1.0000
  S   S41       1.0  0.16464653617392647  0.4671619507017229  0.9557840202068417  1.0000
  S   S42       1.0  0.20624385729849595  0.3894932191401451  0.963492802458788  1.0000
  Fe  Fe22      1.0  0.17429244655073797  0.47049560776781957  0.016645695160193857  1.0000
  S   S43       1.0  0.15200807032040348  0.5089914788282199  0.9985981093420099  1.0000
  S   S44       1.0  0.18519970232119162  0.46887490615043587  0.05136314867509198  1.0000
  Fe  Fe23      1.0  0.12251547529924033  0.4606201598990755  0.9817841658191685  1.0000
  S   S45       1.0  0.06518983459451601  0.45076713173277755  0.974652996153248  1.0000
  Fe  Fe24      1.0  0.19606591904513657  0.5117192024121604  0.9744266071952093  1.0000
  S   S46       1.0  0.235262528165949  0.558321256778494  0.9572378580402124  1.0000
  S   S47       1.0  0.14140747355480143  0.4219084339590267  0.0020048151839492877  1.0000
  S   S48       1.0  0.2205623384554502  0.4769354211124881  0.9938553578349675  1.0000
  Fe  Fe25      1.0  0.42172344745122375  0.7463692093883558  0.014216680612931508  1.0000
  S   S49       1.0  0.3873042034330584  0.7782220990855709  0.0018529259279162923  1.0000
  S   S50       1.0  0.4478006914025772  0.7626113140715423  0.04464964217025039  1.0000
  Fe  Fe26      1.0  0.4123092695575734  0.6999314992608213  0.9759858293405225  1.0000
  S   S51       1.0  0.3785279735227593  0.7294964322162307  0.9599354419571845  1.0000
  S   S52       1.0  0.4183436820812871  0.6490688925257255  0.9632787872557859  1.0000
  Fe  Fe27      1.0  0.41749820331182474  0.7784839829541184  0.9707656966740433  1.0000
  S   S53       1.0  0.4378271534452323  0.8306975225215856  0.9516531534001668  1.0000
  Fe  Fe28      1.0  0.35209545977075707  0.7261467040247767  0.9925333431548691  1.0000
  S   S54       1.0  0.2948304188667467  0.7026347678439278  0.0024828536883820806  1.0000
  S   S55       1.0  0.4538855956763193  0.7489323227809475  0.9837903274943384  1.0000
  S   S56       1.0  0.3840720406021782  0.6944795188439349  0.007913876895194738  1.0000
  Fe  Fe29      1.0  0.38800357873145075  0.4432588173987379  0.999984214878471  1.0000
  S   S57       1.0  0.36503440538427184  0.47313979679162704  0.0235474120381578  1.0000
  S   S58       1.0  0.3713416022771027  0.4355085907884865  0.9662997268933411  1.0000
  Fe  Fe30      1.0  0.43591983263123263  0.42347868245685  0.03182074519980693  1.0000
  S   S59       1.0  0.4168571347235319  0.4511772542451543  0.05837335269096133  1.0000
  S   S60       1.0  0.473695538582813  0.3908711800803084  0.037021909896699956  1.0000
  Fe  Fe31      1.0  0.3633855810881474  0.4275671406989973  0.04639006335882323  1.0000
  S   S61       1.0  0.31581046938700674  0.402672985501427  0.06781013482094302  1.0000
  Fe  Fe32      1.0  0.4203245915862815  0.4941680598784669  0.03317158138857779  1.0000
  S   S62       1.0  0.4394679406635421  0.5512573533802837  0.0405954697115789  1.0000
  S   S63       1.0  0.38178849215581523  0.3956655313277489  0.022058851893247633  1.0000
  S   S64       1.0  0.4439512955765146  0.4686868139399695  0.007428918725560063  1.0000
  Fe  Fe33      1.0  0.6805744090861906  0.0484667199308987  0.46461119991066363  1.0000
  S   S65       1.0  0.6423136428647598  0.0713470136353884  0.4822041666574028  1.0000
  S   S66       1.0  0.6652099237222612  0.9948764314420678  0.4502151612459924  1.0000
  Fe  Fe34      1.0  0.7440443806637548  0.10889527845823638  0.4746324742285072  1.0000
  S   S67       1.0  0.7110153123175239  0.1362278077946958  0.49328543198670705  1.0000
  S   S68       1.0  0.8027777510010212  0.13167337283781078  0.4744658633298585  1.0000
  Fe  Fe35      1.0  0.682341637193265  0.08246739421197906  0.5070588780789483  1.0000
  S   S69       1.0  0.66657779235151  0.07688755932802568  0.5419510828150956  1.0000
  Fe  Fe36      1.0  0.6744476993545174  0.1230765699874602  0.46660675703297855  1.0000
  S   S70       1.0  0.6495137838281911  0.1648898926139005  0.4555324293072188  1.0000
  S   S71       1.0  0.7184953443857225  0.05562583707857652  0.49088555647417687  1.0000
  S   S72       1.0  0.7096408600445686  0.09959236718306919  0.44660746099533266  1.0000
  Fe  Fe37      1.0  0.7413436501373961  0.41583565394087735  0.5177077465153992  1.0000
  S   S73       1.0  0.7376222512668634  0.3986709085800953  0.48416460733663275  1.0000
  S   S74       1.0  0.7871877764667821  0.4609585912342916  0.5244796800928128  1.0000
  Fe  Fe38      1.0  0.6745777688539512  0.361056192658432  0.5332229718603807  1.0000
  S   S75       1.0  0.6651585124083977  0.33890129256451945  0.5010413114114133  1.0000
  S   S76       1.0  0.6316265115484566  0.3380870070009778  0.5583479467761006  1.0000
  Fe  Fe39      1.0  0.722900929444428  0.3437781087915287  0.49932229958241464  1.0000
  S   S77       1.0  0.7497925913774237  0.30370861558350554  0.4883001353609721  1.0000
  Fe  Fe40      1.0  0.6806470630887292  0.3956898817233378  0.4888472071755577  1.0000
  S   S78       1.0  0.6516083733016398  0.4116770432047409  0.4618789356754421  1.0000
  S   S79       1.0  0.7312819894351253  0.3611578470040663  0.5327094029618947  1.0000
  S   S80       1.0  0.6855887282083576  0.41776923431115137  0.5213488143328121  1.0000
  Fe  Fe41      1.0  0.9047010901055286  0.31910734060593465  0.44204288412891296  1.0000
  S   S81       1.0  0.8843436128376815  0.34019629726429607  0.4709785962437264  1.0000
  S   S82       1.0  0.8636826740330857  0.28049530003085826  0.42452572481653006  1.0000
  Fe  Fe42      1.0  0.978783167120495  0.36859795803766543  0.4446414556375096  1.0000
  S   S83       1.0  0.9639396219580515  0.3945799442248231  0.473239465769266  1.0000
  S   S84       1.0  0.03543043397762946  0.38252677358530696  0.43272762648352003  1.0000
  Fe  Fe43      1.0  0.9353327255515597  0.3391730644630073  0.4846942671532191  1.0000
  S   S85       1.0  0.9418146708735372  0.3195490211272475  0.5176791504169727  1.0000
  Fe  Fe44      1.0  0.914890325170546  0.3933251938137997  0.4564409559602967  1.0000
  S   S86       1.0  0.8948948352919651  0.441169551055829  0.4530647884606132  1.0000
  S   S87       1.0  0.9530351125722213  0.3127082249519413  0.4572062775565844  1.0000
  S   S88       1.0  0.9323527476727276  0.372532078204376  0.4264588383706576  1.0000
  Fe  Fe45      1.0  0.24759315050359457  0.5363842313560865  0.4195416823040767  1.0000
  S   S89       1.0  0.2309596077115516  0.5739164884975136  0.44099414011120563  1.0000
  S   S90       1.0  0.278987436104159  0.49870309655761047  0.4270882831654455  1.0000
  Fe  Fe46      1.0  0.21285759624820919  0.5578329247455242  0.3811494778394441  1.0000
  S   S91       1.0  0.19270951063171246  0.5967519159478419  0.39905176203343634  1.0000
  S   S92       1.0  0.19963494794387374  0.5451810039018306  0.34749691954637835  1.0000
  Fe  Fe47      1.0  0.24631945158949067  0.6123210836723223  0.41241263599537353  1.0000
  S   S93       1.0  0.27779680735007545  0.6696939468108187  0.40905917295077876  1.0000
  Fe  Fe48      1.0  0.17910233462458452  0.5545199071046831  0.4256449353851966  1.0000
  S   S94       1.0  0.12553550592179905  0.5407475516848291  0.44266126306245107  1.0000
  S   S95       1.0  0.26744199204118396  0.5761637453035477  0.3923745258665284  1.0000
  S   S96       1.0  0.19497028954806042  0.5142934096545374  0.4063168262867489  1.0000
  Fe  Fe49      1.0  0.49906305454639993  0.7990559958743562  0.41495742000443375  1.0000
  S   S97       1.0  0.4585737470036705  0.8138986314702384  0.4357478116150232  1.0000
  S   S98       1.0  0.505242928896975  0.8063643663868918  0.37937921496185634  1.0000
  Fe  Fe50      1.0  0.5332219947965784  0.7736247227014309  0.45226767212917174  1.0000
  S   S99       1.0  0.49632502915169524  0.7865585119473757  0.476400211755457  1.0000
  S   S100      1.0  0.5784563376928579  0.753689572475253  0.4615522965317747  1.0000
  Fe  Fe51      1.0  0.45472256969971075  0.7622421055534963  0.45378236056013477  1.0000
  S   S101      1.0  0.40758491451442813  0.7191951410050961  0.46718250252537247  1.0000
  Fe  Fe52      1.0  0.5040441032352128  0.8368162037131504  0.4562095328489304  1.0000
  S   S102      1.0  0.5123948211521927  0.8913276031036619  0.46908434599393134  1.0000
  S   S103      1.0  0.491473374569483  0.7454885339129851  0.43107122827808786  1.0000
  S   S104      1.0  0.5445352329008005  0.8255906610598063  0.433854965018332  1.0000
  Fe  Fe53      1.0  0.4781444191035227  0.5052602819151241  0.42089564025166304  1.0000
  S   S105      1.0  0.45695401347385517  0.49366913630081083  0.45489158182095646  1.0000
  S   S106      1.0  0.45453637605494507  0.47829813707303315  0.3920091210902239  1.0000
  Fe  Fe54      1.0  0.5341973464000718  0.5710145743017772  0.4307913469991766  1.0000
  S   S107      1.0  0.5177242980240936  0.5669399731442101  0.4654846106122216  1.0000
  S   S108      1.0  0.5808389323677675  0.6135528368574813  0.41722849171470294  1.0000
  Fe  Fe55      1.0  0.5135122530644798  0.5091107016226247  0.46300987387965953  1.0000
  S   S109      1.0  0.5348255158814884  0.48393551697392106  0.4900586000854378  1.0000
  Fe  Fe56      1.0  0.4626781659346743  0.5522066229474288  0.45455729797092737  1.0000
  S   S110      1.0  0.4213925388220724  0.5769036516729332  0.4666856128401989  1.0000
  S   S111      1.0  0.5344468735754822  0.5144230459234524  0.4290080249484774  1.0000
  S   S112      1.0  0.4796833395092057  0.5627724447369582  0.4200734805429324  1.0000
  Fe  Fe57      1.0  0.7460370090196022  0.19220268177506122  0.8190578530421496  1.0000
  S   S113      1.0  0.7457118111086051  0.23129444271453142  0.792291771682444  1.0000
  S   S114      1.0  0.7965139483287222  0.18797127776508948  0.8323968798290782  1.0000
  Fe  Fe58      1.0  0.6667198311816145  0.16094652385718292  0.8208892182772837  1.0000
  S   S115      1.0  0.6593649975671938  0.19744514487012926  0.7942679276593031  1.0000
  S   S116      1.0  0.619052369752043  0.12244956131456532  0.836793662657752  1.0000
  Fe  Fe59      1.0  0.7063811369814594  0.18583420942675802  0.778571325214336  1.0000
  S   S117      1.0  0.706906078746604  0.16806405667470198  0.7450510301302145  1.0000
  Fe  Fe60      1.0  0.6989426556510766  0.23900414316854662  0.810630378290762  1.0000
  S   S118      1.0  0.6938756571837285  0.29278498661971475  0.8176936278780543  1.0000
  S   S119      1.0  0.7105371262677993  0.1457505668309744  0.8039181577902151  1.0000
  S   S120      1.0  0.7024844407994348  0.20350305467536398  0.8387569380596391  1.0000
  Fe  Fe61      1.0  0.7935889489431913  0.2511182106536518  0.6450158313393436  1.0000
  S   S121      1.0  0.8282266472015761  0.25283606996054897  0.6157426458223064  1.0000
  S   S122      1.0  0.8151731822864631  0.2646383688029677  0.6771776116653236  1.0000
  Fe  Fe62      1.0  0.7273868734914045  0.23675707806855475  0.6206573826772419  1.0000
  S   S123      1.0  0.7556526915182035  0.23713884697772417  0.5891461451679689  1.0000
  S   S124      1.0  0.6692234846167538  0.22926686619426795  0.6231865266554371  1.0000
  Fe  Fe63      1.0  0.7857107659125178  0.20562188158711683  0.606786116324422  1.0000
  S   S125      1.0  0.799218936416745  0.16294924626165366  0.588648614015143  1.0000
  Fe  Fe64      1.0  0.7955850360815706  0.2842708813590178  0.6003566741656108  1.0000
  S   S126      1.0  0.8142229179876449  0.3310565986396678  0.5769285370309939  1.0000
  S   S127      1.0  0.7536329856454539  0.20051196607535302  0.6375700124642665  1.0000
  S   S128      1.0  0.7644764745442615  0.2870209080528332  0.630474505280616  1.0000
  C   C1        1.0  0.7404725745578117  0.19404070313150218  0.7277150985660361  1.0000
  C   C2        1.0  0.7570086637578969  0.22936906379462804  0.7317201168759071  1.0000
  C   C3        1.0  0.7815095422659974  0.25066094689585566  0.7165665332059074  1.0000
  C   C4        1.0  0.7891331035603584  0.23664422734767826  0.6973848901393085  1.0000
  C   C5        1.0  0.7738827622524473  0.2008622064610723  0.693900169590136  1.0000
  C   C6        1.0  0.7495200931357748  0.1795746596442375  0.7090638504305636  1.0000
  H   H1        1.0  0.7497488242200182  0.24077855964025754  0.7459671885635121  1.0000
  H   H2        1.0  0.793302753922751  0.2784071770392349  0.7192315812171651  1.0000
  H   H3        1.0  0.780396274037987  0.1897548770484791  0.6793286996609434  1.0000
  H   H4        1.0  0.7369961790386355  0.1521031009832378  0.706057054743037  1.0000
  C   C7        1.0  0.5789986381846965  0.7152098864240085  0.44868228277501415  1.0000
  C   C8        1.0  0.6110579830979481  0.7097961916398035  0.44191760251125606  1.0000
  C   C9        1.0  0.6115916798078647  0.6788423456731316  0.43170694781107777  1.0000
  C   C10       1.0  0.5801319732455172  0.6527631402731879  0.42907811861127254  1.0000
  C   C11       1.0  0.5480782168620786  0.6579424337990472  0.4360742591494797  1.0000
  C   C12       1.0  0.5475251677990719  0.6895810233639029  0.44541413539033303  1.0000
  H   H5        1.0  0.6354327246029343  0.7297078622035005  0.44441449936405003  1.0000
  H   H6        1.0  0.6363972311635011  0.6748394783447147  0.42630415069990724  1.0000
  H   H7        1.0  0.5237298756190988  0.6377307022325768  0.4341039546111855  1.0000
  H   H8        1.0  0.5229021031528898  0.6938797321922863  0.4505653762384876  1.0000
  C   C13       1.0  0.31324699792047017  0.6834723078343924  0.4256524854651962  1.0000
  C   C14       1.0  0.33866769129858726  0.715860943547492  0.42069491963929634  1.0000
  C   C15       1.0  0.36796223576567655  0.7269344187552783  0.43321931202816144  1.0000
  C   C16       1.0  0.37130180667016344  0.7061353996768185  0.4511476923525747  1.0000
  C   C17       1.0  0.3457042104437472  0.673900390707475  0.45623129200102713  1.0000
  C   C18       1.0  0.31697242418280397  0.6623100781235698  0.44333142236533246  1.0000
  H   H9        1.0  0.3358266046702618  0.7323688930458307  0.4070635888917237  1.0000
  H   H10       1.0  0.38752711869702333  0.7518931534296803  0.42925702186567954  1.0000
  H   H11       1.0  0.3481651390775453  0.6577427253143516  0.4701210221207965  1.0000
  H   H12       1.0  0.29741451194066265  0.6373466054253962  0.4473024487817259  1.0000
  C   C19       1.0  0.3166221536867937  0.518828153477571  0.44045072971946453  1.0000
  C   C20       1.0  0.3196409885912259  0.5501758343091272  0.4510552937803506  1.0000
  C   C21       1.0  0.351307554271867  0.5670520304554759  0.46026687861809334  1.0000
  C   C22       1.0  0.38036527388875635  0.5535421231316348  0.45786773755907295  1.0000
  C   C23       1.0  0.3770628123399081  0.5223136652939608  0.4472174376809267  1.0000
  C   C24       1.0  0.34499954453851417  0.5043870220137768  0.4391594931348154  1.0000
  H   H13       1.0  0.29760335443746344  0.5612556954383748  0.4523218098860717  1.0000
  H   H14       1.0  0.35349823142165787  0.59101947540636  0.46870277075148187  1.0000
  H   H15       1.0  0.3991581118953479  0.5118837562702905  0.44497049550201506  1.0000
  H   H16       1.0  0.34255332659362564  0.47978726306876535  0.4313633733336854  1.0000
  C   C25       1.0  0.9090286358419775  0.3262237930301858  0.5351025372105322  1.0000
  C   C26       1.0  0.8894892043014754  0.34954204914139236  0.5293059133420113  1.0000
  C   C27       1.0  0.8610892725283911  0.3520026399473436  0.5426252859705314  1.0000
  C   C28       1.0  0.8520469295741039  0.3308430617177484  0.5615772499149929  1.0000
  C   C29       1.0  0.872466952440157  0.30861338193349724  0.5676287363395246  1.0000
  C   C30       1.0  0.9009989349887162  0.3063907770998576  0.5544787298060081  1.0000
  H   H17       1.0  0.8960093294351029  0.36548041379041957  0.5145149636195263  1.0000
  H   H18       1.0  0.8455482360082245  0.369446905921132  0.537876519633589  1.0000
  H   H19       1.0  0.8663181905400955  0.29291550756034596  0.5823741148591652  1.0000
  H   H20       1.0  0.916226462396351  0.28852811858762006  0.5590783505093393  1.0000
  C   C31       1.0  0.059952381580149205  0.4261726033494715  0.4366904564182325  1.0000
  C   C32       1.0  0.04350609041207787  0.45239264291550607  0.44152319403157625  1.0000
  C   C33       1.0  0.06385753059951038  0.48737992790323814  0.4439996582360683  1.0000
  C   C34       1.0  0.1006265904263086  0.49619903146496813  0.4416912324032676  1.0000
  C   C35       1.0  0.11695425275246393  0.4696360190881538  0.4376235796444764  1.0000
  C   C36       1.0  0.09668363338752545  0.43482452928434107  0.43485827594711035  1.0000
  H   H21       1.0  0.015124649548977853  0.4460071617712347  0.44280796191602384  1.0000
  H   H22       1.0  0.051053856081029414  0.5078069237360093  0.44723685437462535  1.0000
  H   H23       1.0  0.14523727784854845  0.47577968566146633  0.43683558607515655  1.0000
  H   H24       1.0  0.10952277492594997  0.4144993586988119  0.4314390304638824  1.0000
  C   C37       1.0  0.6424651938136972  0.30909401831333855  0.5770589441809496  1.0000
  C   C38       1.0  0.6775322150142706  0.31001142659126674  0.5797493935038834  1.0000
  C   C39       1.0  0.6858519199269116  0.2860584891181271  0.5943244895172973  1.0000
  C   C40       1.0  0.6590420045123225  0.26088901949615784  0.6061277192055903  1.0000
  C   C41       1.0  0.6239484880277317  0.26019926960247486  0.6036562989550518  1.0000
  C   C42       1.0  0.6156724563902767  0.2844344355652143  0.5891989389242794  1.0000
  H   H25       1.0  0.6983180548364927  0.32944739872287065  0.5708622127109217  1.0000
  H   H26       1.0  0.7130385909201162  0.2870141543453372  0.5962717573247414  1.0000
  H   H27       1.0  0.6031648088950716  0.2407391685303012  0.612756061495097  1.0000
  H   H28       1.0  0.5884946434145163  0.283751053527443  0.5872404071319607  1.0000
  C   C43       1.0  0.6200947702032369  0.43311733933158203  0.4693895332919662  1.0000
  C   C44       1.0  0.619497317248242  0.44643962404196347  0.48966152047611394  1.0000
  C   C45       1.0  0.5931446941111802  0.46199391927351474  0.4958827031229084  1.0000
  C   C46       1.0  0.5673561275957536  0.4643835225711887  0.481811985174893  1.0000
  C   C47       1.0  0.5682269719344153  0.4517338873646553  0.46134760480085374  1.0000
  C   C48       1.0  0.5946843030568327  0.4361793055627345  0.45511398238077666  1.0000
  H   H29       1.0  0.6394521847254214  0.44514495983803026  0.5005118781236404  1.0000
  H   H30       1.0  0.592844048019031  0.4723685762265699  0.5115944655008109  1.0000
  H   H31       1.0  0.5480059776554115  0.45302189316965186  0.45052549113060686  1.0000
  H   H32       1.0  0.5949921699126989  0.42579333429296595  0.43940325257935114  1.0000
  C   C49       1.0  0.8205936724575069  0.4564633692420526  0.5066860173847426  1.0000
  C   C50       1.0  0.8258693768258615  0.42300646090024463  0.5041982454826928  1.0000
  C   C51       1.0  0.8502341776021693  0.41854430081838584  0.4885303028684102  1.0000
  C   C52       1.0  0.8681011247641248  0.4471466570974954  0.47467917256060765  1.0000
  C   C53       1.0  0.8629840539248816  0.4806363211400823  0.4773076030454577  1.0000
  C   C54       1.0  0.8396960568695505  0.4854417056908941  0.4935459670244668  1.0000
  H   H33       1.0  0.8108708385888207  0.400426779610536  0.5141772578144476  1.0000
  H   H34       1.0  0.8542021817016938  0.39273707808201813  0.48675915955800214  1.0000
  H   H35       1.0  0.8767646560952256  0.5028071847239951  0.4666146160805225  1.0000
  H   H36       1.0  0.8353270670873707  0.5112167992497764  0.4952581344889614  1.0000
  C   C55       1.0  0.7034850875132043  0.09888935019323679  0.5556007224129269  1.0000
  C   C56       1.0  0.7371196763716713  0.10579759241023774  0.5457583058291045  1.0000
  C   C57       1.0  0.7665523556262006  0.1246774626705858  0.556246458237562  1.0000
  C   C58       1.0  0.7623263122262076  0.13780358377958596  0.5762685565576852  1.0000
  C   C59       1.0  0.7286400704983197  0.1315083068598703  0.5859825571991925  1.0000
  C   C60       1.0  0.6992690944817967  0.11138968987344879  0.5758396459054161  1.0000
  H   H37       1.0  0.7406419028185733  0.09622272623639412  0.5301516561622992  1.0000
  H   H38       1.0  0.7925697072841165  0.12937287953322937  0.5487242432768162  1.0000
  H   H39       1.0  0.7253268029196388  0.14161061842559972  0.6014823491906996  1.0000
  H   H40       1.0  0.6732753563067077  0.10626372372127495  0.5834528661526683  1.0000
  C   C61       1.0  0.6226696413622247  0.9667654022051304  0.45595753009452233  1.0000
  C   C62       1.0  0.6171342107266895  0.9300505542549377  0.4552257132147629  1.0000
  C   C63       1.0  0.5835121572327827  0.9067947390524705  0.45967531079931667  1.0000
  C   C64       1.0  0.554998444894737  0.9201128564852539  0.4644138443879905  1.0000
  C   C65       1.0  0.5604885069038604  0.956881295561339  0.4652211513001873  1.0000
  C   C66       1.0  0.5942916109669909  0.9802010666028265  0.4609846120536677  1.0000
  H   H41       1.0  0.639084173758151  0.9195237105257515  0.451524997562498  1.0000
  H   H42       1.0  0.5799291919611127  0.8785408231116054  0.4598827197421258  1.0000
  H   H43       1.0  0.5384881919333897  0.9673598778525456  0.4688350369101453  1.0000
  H   H44       1.0  0.5982385945093281  0.008551169341251441  0.4611506497784213  1.0000
  C   C67       1.0  0.8198244350566192  0.1721679193147656  0.45970984674160326  1.0000
  C   C68       1.0  0.7990117408277088  0.18523879160428772  0.44587054720398966  1.0000
  C   C69       1.0  0.8127279414028207  0.21838649717181194  0.4349199074275759  1.0000
  C   C70       1.0  0.8470793533254081  0.2388227829038161  0.438084419813795  1.0000
  C   C71       1.0  0.8678479819910285  0.2257938293913019  0.45198081435922727  1.0000
  C   C72       1.0  0.8543649244770364  0.19233054977729394  0.4625756007450089  1.0000
  H   H45       1.0  0.7725520151815023  0.16953876583006994  0.443344362668892  1.0000
  H   H46       1.0  0.7966183058624647  0.22819133322481186  0.42406294538115935  1.0000
  H   H47       1.0  0.8945358171275702  0.24119445777251297  0.45425127262105297  1.0000
  H   H48       1.0  0.8706507086674424  0.18211369135562835  0.4731070128044651  1.0000
  C   C73       1.0  0.6783677966674933  0.20595025503104178  0.46061006780072394  1.0000
  C   C74       1.0  0.665304165510125  0.2347079761824536  0.46494213530722917  1.0000
  C   C75       1.0  0.6875240193641866  0.2655748940577093  0.472648098643759  1.0000
  C   C76       1.0  0.7226668043539285  0.2675872174865599  0.4760566485082952  1.0000
  C   C77       1.0  0.736187376887733  0.23970016001492697  0.47043939076530505  1.0000
  C   C78       1.0  0.7140557657239313  0.2089864307362896  0.4626403852658046  1.0000
  H   H49       1.0  0.6377729017234324  0.2325802268008898  0.46309203914667274  1.0000
  H   H50       1.0  0.6772420627075594  0.28745306602917503  0.4761450100430322  1.0000
  H   H51       1.0  0.7636312576813974  0.24154640378610726  0.4723642022792617  1.0000
  H   H52       1.0  0.7244734431310552  0.18735055185088803  0.4584454026576067  1.0000
  C   C79       1.0  0.4269476623551669  0.6224074174629718  0.9842221722065808  1.0000
  C   C80       1.0  0.4214750675758528  0.5860183353040033  0.9818476229940192  1.0000
  C   C81       1.0  0.4256182227445332  0.5640437527367583  0.9991058006148564  1.0000
  C   C82       1.0  0.4359346236957831  0.5786180951650757  0.018620688463500068  1.0000
  C   C83       1.0  0.44212208150122945  0.6150848081183089  0.02086166218180341  1.0000
  C   C84       1.0  0.4377266613152345  0.6369758386696435  0.0036508067069300765  1.0000
  H   H53       1.0  0.4140259117470287  0.5748705172559103  0.9666835836009267  1.0000
  H   H54       1.0  0.42111248167755905  0.5359240398966534  0.9972472938204285  1.0000
  H   H55       1.0  0.4502610969766909  0.626473513994745  0.03590768629413632  1.0000
  H   H56       1.0  0.4431060432674824  0.6652214473338516  0.005385320345262734  1.0000
  C   C85       1.0  0.2503102953971097  0.5981955757780697  0.9702197788385002  1.0000
  C   C86       1.0  0.23397257471478733  0.6047805347441113  0.9891802842672495  1.0000
  C   C87       1.0  0.24732178626152254  0.6371151417555158  0.999015464074167  1.0000
  C   C88       1.0  0.2772967619031119  0.6625098311367713  0.9900725808329371  1.0000
  C   C89       1.0  0.2936720551692545  0.655465005421807  0.9713306603381855  1.0000
  C   C90       1.0  0.27995945095555996  0.6237518472447688  0.9612853483415001  1.0000
  H   H57       1.0  0.21086566247933627  0.5852488357108352  0.9961015566841694  1.0000
  H   H58       1.0  0.23444858259516868  0.6423818543055633  0.01352586444884607  1.0000
  H   H59       1.0  0.31639863755479264  0.6748872279574174  0.9641467477905841  1.0000
  H   H60       1.0  0.29236902363972095  0.6191848106042194  0.946432645887176  1.0000
  C   C91       1.0  0.2520099772924463  0.40059880141059356  0.9644730911384286  1.0000
  C   C92       1.0  0.27274904432929814  0.396876962991249  0.9466423975256  1.0000
  C   C93       1.0  0.3095506294173258  0.4074795217214539  0.9472109675658018  1.0000
  C   C94       1.0  0.32546312030100427  0.4204853022317739  0.9658850995308116  1.0000
  C   C95       1.0  0.3045891556907541  0.4227461452163496  0.9839277941439634  1.0000
  C   C96       1.0  0.26800403491566416  0.4137612022740018  0.9830236124679987  1.0000
  H   H61       1.0  0.2603565877960944  0.3866716351624166  0.9322492979346109  1.0000
  H   H62       1.0  0.32557509390141554  0.4055298701589148  0.9332207074668172  1.0000
  H   H63       1.0  0.31648965816695296  0.4320886499905027  0.9984768763656071  1.0000
  H   H64       1.0  0.2521045051253851  0.41674809660320294  0.9967339552001065  1.0000
  C   C97       1.0  0.6040011190678252  0.2755296886950842  0.8680085612136648  1.0000
  C   C98       1.0  0.6338914415224328  0.30441286600020845  0.8687860475274478  1.0000
  C   C99       1.0  0.6606379320792977  0.3107534557356721  0.852653322001121  1.0000
  C   C100      1.0  0.6584182454504449  0.2871492833510101  0.8363048644728852  1.0000
  C   C101      1.0  0.6287539775077213  0.2579963601917018  0.8356585401205672  1.0000
  C   C102      1.0  0.6011460708706845  0.25278180569226605  0.8511701603803373  1.0000
  H   H65       1.0  0.6362736724236646  0.3222124233305355  0.8816090226819264  1.0000
  H   H66       1.0  0.6832947179608303  0.33358070003035334  0.8530779280262459  1.0000
  H   H67       1.0  0.626726460406744  0.23983400906084257  0.8229612436463816  1.0000
  H   H68       1.0  0.5777620886684404  0.2308468398547801  0.8502551670847321  1.0000
  C   C103      1.0  0.5057436612839198  0.3961627380418443  0.016221954334321165  1.0000
  C   C104      1.0  0.5170655283621037  0.428101514540713  0.003975175943823128  1.0000
  C   C105      1.0  0.5381010084850423  0.4302484432186945  0.985263514904869  1.0000
  C   C106      1.0  0.5478874254973045  0.400478951236374  0.9788389917010721  1.0000
  C   C107      1.0  0.5386624190791688  0.3692439010439862  0.9918122733225999  1.0000
  C   C108      1.0  0.5176379471376087  0.3671463106768879  0.010580186552647586  1.0000
  H   H69       1.0  0.5089604967925926  0.4509147889372686  0.00866869905720824  1.0000
  H   H70       1.0  0.5456525465901341  0.45460484061888234  0.9753808009219114  1.0000
  H   H71       1.0  0.5465573572312368  0.34628331790850364  0.9870253263771733  1.0000
  H   H72       1.0  0.5092318066685512  0.3425158442965609  0.02019255192262559  1.0000
  C   C109      1.0  0.851321151870075  0.2794965110155376  0.8727982434510425  1.0000
  C   C110      1.0  0.838808953256937  0.286672339180611  0.8530062763107188  1.0000
  C   C111      1.0  0.8209946456487477  0.25865006002656604  0.840736764159006  1.0000
  C   C112      1.0  0.8168267922638035  0.22345026246444402  0.8479130835947514  1.0000
  C   C113      1.0  0.8298592368232386  0.21637918422827157  0.8674853971631982  1.0000
  C   C114      1.0  0.8464472624420024  0.2442759208198212  0.8800700083881304  1.0000
  H   H73       1.0  0.8424325680804575  0.313861767336  0.84730484826276  1.0000
  H   H74       1.0  0.8111240712289693  0.2642741429340224  0.8255587573264599  1.0000
  H   H75       1.0  0.8266616426181378  0.18919611384015095  0.873109655451507  1.0000
  H   H76       1.0  0.8556205375036521  0.2383032018126566  0.8953453796994629  1.0000
  C   C115      1.0  0.998168557520225  0.3356779334443669  0.9716472102533531  1.0000
  C   C116      1.0  0.034907873840708134  0.3434338587093455  0.9716231172147319  1.0000
  C   C117      1.0  0.055722726390654176  0.378597726933913  0.9729767363115218  1.0000
  C   C118      1.0  0.03985406707433746  0.4061896879375214  0.9743860409194415  1.0000
  C   C119      1.0  0.003081373127760951  0.39834899850385763  0.9746423205468077  1.0000
  C   C120      1.0  0.9822845442447141  0.36318396699513683  0.9733909615536961  1.0000
  H   H77       1.0  0.047388814115562686  0.32229253243635847  0.9702890243024815  1.0000
  H   H78       1.0  0.08406347849702836  0.38442070137917267  0.972569726299333  1.0000
  H   H79       1.0  0.9906879905679907  0.4195717602987693  0.9759295409021924  1.0000
  H   H80       1.0  0.9539866456371827  0.357403174529066  0.9739691416670141  1.0000
  C   C121      1.0  0.7816481560372428  0.32908568148813466  0.9732706019546051  1.0000
  C   C122      1.0  0.7958405019183166  0.3461864434316321  0.9536772009960657  1.0000
  C   C123      1.0  0.7750272694092699  0.3604416918622822  0.9403792922704625  1.0000
  C   C124      1.0  0.7395216833073424  0.3556689644804396  0.9460771451384937  1.0000
  C   C125      1.0  0.7253576315477068  0.33862646929496365  0.9656874818370575  1.0000
  C   C126      1.0  0.7467245598296635  0.3262678281519307  0.979542594970145  1.0000
  H   H81       1.0  0.8229651619776621  0.3487650707863031  0.9488886299934796  1.0000
  H   H82       1.0  0.7862482365224808  0.37433934693854404  0.9254422820309659  1.0000
  H   H83       1.0  0.6980677756355183  0.33507467663519425  0.9703017770159669  1.0000
  H   H84       1.0  0.7360444353627503  0.3137487352526964  0.9948936745362591  1.0000
  C   C127      1.0  0.6459948503675087  0.04886719150034325  0.8869836954804868  1.0000
  C   C128      1.0  0.6115168897731188  0.05114388077341005  0.8858544938152165  1.0000
  C   C129      1.0  0.6030084061078178  0.07218262822817784  0.8695222781277654  1.0000
  C   C130      1.0  0.6292763315899056  0.09231626328881362  0.8549658689719225  1.0000
  C   C131      1.0  0.6638243285309243  0.09031380700686635  0.8562400517607357  1.0000
  C   C132      1.0  0.6720284183869479  0.06801203041915531  0.8719921804686768  1.0000
  H   H85       1.0  0.5913300251379302  0.03648673376349804  0.8974356963987904  1.0000
  H   H86       1.0  0.5762340155807362  0.0735983970419402  0.8685221243125201  1.0000
  H   H87       1.0  0.6842788765384502  0.1060124071755115  0.8451821661439342  1.0000
  H   H88       1.0  0.6987575700061615  0.06638714598682507  0.8729277959028898  1.0000
  C   C133      1.0  0.5344087154625907  0.9067550851936962  0.9782791592337922  1.0000
  C   C134      1.0  0.5286358207544811  0.8700567014774463  0.981163970673237  1.0000
  C   C135      1.0  0.4993430658406099  0.8466516328251837  0.9727714302129878  1.0000
  C   C136      1.0  0.475880278570945  0.8597427896540522  0.9611140305140591  1.0000
  C   C137      1.0  0.4826257958080401  0.8965072950312925  0.9572780338657619  1.0000
  C   C138      1.0  0.511713214738159  0.9200310944539711  0.965988625437171  1.0000
  H   H89       1.0  0.5465283823766742  0.8596130921502563  0.9902623281303302  1.0000
  H   H90       1.0  0.4950324466991263  0.8184610510931473  0.9753158576840033  1.0000
  H   H91       1.0  0.4645832451192781  0.9068142549230447  0.9482225870012646  1.0000
  H   H92       1.0  0.5156494945976423  0.9483399232507116  0.9639168939568649  1.0000
  C   C139      1.0  0.5546687250580288  0.134011419749966  0.9670674395001262  1.0000
  C   C140      1.0  0.5744479583676351  0.13915893333721185  0.9852252948815777  1.0000
  C   C141      1.0  0.5864185174770604  0.1732088830430676  0.9929896599659698  1.0000
  C   C142      1.0  0.5805562780859154  0.20244517732984513  0.9818578497954252  1.0000
  C   C143      1.0  0.5608563763949362  0.1973166328756795  0.9636617633681827  1.0000
  C   C144      1.0  0.54706154319305  0.1629900985586483  0.9566481376022989  1.0000
  H   H93       1.0  0.5799396388328861  0.11677764319800343  0.9935186813126747  1.0000
  H   H94       1.0  0.6007638065246789  0.17688476208579726  0.007412645744103775  1.0000
  H   H95       1.0  0.5558047567800832  0.2196981501819667  0.9551513150338212  1.0000
  H   H96       1.0  0.5310552273920607  0.1590244866602588  0.9429048436449854  1.0000
  C   C145      1.0  0.729901098720532  0.11242914833303325  0.9860930836954103  1.0000
  C   C146      1.0  0.7360980604497261  0.1003484532474018  0.9660637480195403  1.0000
  C   C147      1.0  0.7674646947017073  0.11668040164790006  0.9540943868282369  1.0000
  C   C148      1.0  0.7920444346096457  0.14602148503637583  0.9617110620090128  1.0000
  C   C149      1.0  0.7854226667937774  0.15875391126413396  0.9814946154732703  1.0000
  C   C150      1.0  0.7547762726233301  0.14143446355493308  0.9938765976821962  1.0000
  H   H97       1.0  0.717020711673949  0.07799044889208638  0.9599405779784568  1.0000
  H   H98       1.0  0.772481023920177  0.10673071954170385  0.9387987509594349  1.0000
  H   H99       1.0  0.8041985593358955  0.18143232385971195  0.9874781084815943  1.0000
  H   H100      1.0  0.7501187370913082  0.15069858209462259  0.009424503352118654  1.0000
  C   C151      1.0  0.4323632143109695  0.6731365908071776  0.09544213979862382  1.0000
  C   C152      1.0  0.46274482098371594  0.7016772806465735  0.09449311008876554  1.0000
  C   C153      1.0  0.46731437193194353  0.7291056567960914  0.07880765046188973  1.0000
  C   C154      1.0  0.44213861085372674  0.7273428515455808  0.06358830005582206  1.0000
  C   C155      1.0  0.41217478036734234  0.6982555503379361  0.06417245821161237  1.0000
  C   C156      1.0  0.406923259872057  0.6714310498245438  0.08036096683649183  1.0000
  H   H101      1.0  0.4823319419174703  0.703028177665304  0.10621638063362576  1.0000
  H   H102      1.0  0.490515280623451  0.7515417302428377  0.07839237082227425  1.0000
  H   H103      1.0  0.3927079803520622  0.69684582259991  0.052508267513205614  1.0000
  H   H104      1.0  0.38346178925031466  0.6492952861221079  0.08108659091593558  1.0000
  C   C157      1.0  0.2373007208696524  0.576367149677847  0.07758790138997869  1.0000
  C   C158      1.0  0.23856553633693292  0.5449835169780215  0.08839998559211484  1.0000
  C   C159      1.0  0.2220452401742035  0.5120938511714181  0.08035923656009188  1.0000
  C   C160      1.0  0.2045726273340294  0.5104442606814661  0.06133482733760933  1.0000
  C   C161      1.0  0.2034646873990575  0.5418180353122142  0.05038814479608643  1.0000
  C   C162      1.0  0.21965513588731372  0.5748054926968371  0.05859721269752395  1.0000
  H   H105      1.0  0.2522099286083145  0.5458891049757342  0.10301460515598967  1.0000
  H   H106      1.0  0.22302664618757095  0.48790146559728964  0.08886103690782184  1.0000
  H   H107      1.0  0.18988502657165968  0.540708747161369  0.035731366931637525  1.0000
  H   H108      1.0  0.21873460658419167  0.599032541849593  0.05012941998545191  1.0000
  C   C163      1.0  0.3133052728556617  0.4284271574164946  0.08968623744613521  1.0000
  C   C164      1.0  0.29154696618762765  0.41306254035443607  0.10758476444669833  1.0000
  C   C165      1.0  0.289594910845616  0.43317463548010426  0.12532110056721094  1.0000
  C   C166      1.0  0.30873213353000034  0.4689420521518456  0.12502645289123698  1.0000
  C   C167      1.0  0.3303682025811097  0.4843635196762291  0.10705227576872622  1.0000
  C   C168      1.0  0.3328744594343154  0.46408747958188856  0.08942876850640612  1.0000
  H   H109      1.0  0.27664221614709017  0.38543045381215457  0.10792024872719075  1.0000
  H   H110      1.0  0.2729804081102908  0.421088543222369  0.13921292675090294  1.0000
  H   H111      1.0  0.34571979520053037  0.51163872990023  0.10692210972131867  1.0000
  H   H112      1.0  0.34975373168620616  0.4760400784680644  0.07563174631648348  1.0000
  C   C169      1.0  0.3997193675390753  0.6694641354424863  0.22794492711922526  1.0000
  C   C170      1.0  0.40289386669371563  0.667023949103267  0.2058218286027639  1.0000
  C   C171      1.0  0.37297104723184776  0.6604254453996059  0.19371192239589485  1.0000
  C   C172      1.0  0.33987876465894545  0.6565251930547482  0.20370094642152348  1.0000
  C   C173      1.0  0.3369001292846089  0.660670667086796  0.22565762466347267  1.0000
  C   C174      1.0  0.3668087205352065  0.6670855225133691  0.2377740655080729  1.0000
  H   H113      1.0  0.42839944970796656  0.6694184382980586  0.19810745378454095  1.0000
  H   H114      1.0  0.37558527194480035  0.6583374846346525  0.1766530273744927  1.0000
  H   H115      1.0  0.3113880757425487  0.6582329904754554  0.23334881157199425  1.0000
  H   H116      1.0  0.3644258908743926  0.6704624177140334  0.2546516699060826  1.0000
  C   C175      1.0  0.23750459800192664  0.5425396614979899  0.3331844333902279  1.0000
  C   C176      1.0  0.26981934724175416  0.5670489373691583  0.3361973873248123  1.0000
  C   C177      1.0  0.30034473354732016  0.5645173454110095  0.32517336787999235  1.0000
  C   C178      1.0  0.2986924101445293  0.5368017875471691  0.31156272053526957  1.0000
  C   C179      1.0  0.26639814384930083  0.5121778640476591  0.30857004408253147  1.0000
  C   C180      1.0  0.23568908458790994  0.515350226756253  0.31915679938700175  1.0000
  H   H117      1.0  0.2711584845308446  0.5881745835859656  0.34685029726419175  1.0000
  H   H118      1.0  0.32521758242534127  0.5836365652312132  0.3275103829138477  1.0000
  H   H119      1.0  0.26507795869364215  0.49076457316570954  0.29800813710834695  1.0000
  H   H120      1.0  0.2107014835151032  0.49632720817345316  0.316807733736033  1.0000
  C   C181      1.0  0.41464288471422833  0.7214159278950274  0.35444108611208275  1.0000
  C   C182      1.0  0.4115955267908681  0.7340869909810908  0.3747234310047657  1.0000
  C   C183      1.0  0.43928262282771524  0.760562867523639  0.3822836901500916  1.0000
  C   C184      1.0  0.46938627699629804  0.7757667999747576  0.3691523480017662  1.0000
  C   C185      1.0  0.4714594964830901  0.7649342679594299  0.3482988285418206  1.0000
  C   C186      1.0  0.4442361412072124  0.7374384515753151  0.3410366130768973  1.0000
  H   H121      1.0  0.3882747346073698  0.7228642754151607  0.38486940837731165  1.0000
  H   H122      1.0  0.43721831275093914  0.7692441183608022  0.3982784566400941  1.0000
  H   H123      1.0  0.494464711104146  0.7770892549233162  0.3379512230705415  1.0000
  H   H124      1.0  0.4460213587550115  0.7290893892822624  0.32498477361565803  1.0000
  C   C187      1.0  0.49310268264374  0.567927331483102  0.3415028143451227  1.0000
  C   C188      1.0  0.5145430080014317  0.5641749900849902  0.3580524203511281  1.0000
  C   C189      1.0  0.5035049280622064  0.5353337105753128  0.37288405833219695  1.0000
  C   C190      1.0  0.4714709037843564  0.5096801843957253  0.3709028034261903  1.0000
  C   C191      1.0  0.45147226949070707  0.5118060252683435  0.35326457440365744  1.0000
  C   C192      1.0  0.46189122460913296  0.541391618642425  0.33879445938258695  1.0000
  H   H125      1.0  0.5391273803270857  0.5841211737254869  0.35984883991036287  1.0000
  H   H126      1.0  0.5196352027093818  0.5333108169716219  0.386063890627567  1.0000
  H   H127      1.0  0.4274272713124793  0.4913279634506388  0.35118800744931933  1.0000
  H   H128      1.0  0.4458041547321078  0.543746755745348  0.32558763608885777  1.0000
  N   N1        1.0  0.4759366812716479  0.872740245978156  0.038627470602848435  1.0000
  C   C193      1.0  0.4912822545421873  0.8965947582625615  0.055530132517377595  1.0000
  C   C194      1.0  0.44165608330541944  0.8487389711681365  0.046509583041351776  1.0000
  C   C195      1.0  0.5000281235292915  0.8514863172654616  0.03269411877718831  1.0000
  C   C196      1.0  0.4708583861265135  0.8941269002204543  0.019755610534383683  1.0000
  H   H129      1.0  0.47394642009376275  0.9132332986746146  0.06034598661564128  1.0000
  H   H130      1.0  0.5172959979569022  0.9149132794230956  0.04997912660560777  1.0000
  H   H131      1.0  0.495470274692982  0.8812870486877792  0.07000840715581091  1.0000
  H   H132      1.0  0.42276557128101294  0.8637476273478064  0.051214652280862305  1.0000
  H   H133      1.0  0.42962506687297625  0.8304219860508034  0.034023976587151505  1.0000
  H   H134      1.0  0.4445925054145333  0.8318331399993775  0.060590359781381053  1.0000
  H   H135      1.0  0.4893374958207866  0.8331521264412796  0.019928625521728582  1.0000
  H   H136      1.0  0.5040454801156723  0.8345894873496319  0.046488309095787717  1.0000
  H   H137      1.0  0.5262807051592563  0.8687729439123523  0.026795977985561548  1.0000
  H   H138      1.0  0.45173958688174315  0.9094270665366992  0.023383984508646316  1.0000
  H   H139      1.0  0.46088564482434413  0.8770975061650568  0.006277517596748661  1.0000
  H   H140      1.0  0.49597325304239015  0.9136483071502125  0.013982453314903998  1.0000
  N   N2        1.0  0.09826894252336427  0.4907684085980848  0.37137797699357566  1.0000
  C   C197      1.0  0.12229973747955203  0.46853795401133796  0.3751056718305021  1.0000
  C   C198      1.0  0.09666598695040962  0.49762965885967264  0.34818140659281743  1.0000
  C   C199      1.0  0.11140508536274085  0.5248605579445782  0.3816404650650759  1.0000
  C   C200      1.0  0.06278991158458291  0.4720751130372084  0.3806096755345367  1.0000
  H   H141      1.0  0.1493241804399379  0.48179581245889946  0.3682819188068297  1.0000
  H   H142      1.0  0.11305025794727719  0.44246501206293126  0.36774986555369504  1.0000
  H   H143      1.0  0.1243557089717644  0.46308884834205133  0.39245336245852147  1.0000
  H   H144      1.0  0.07896664158851219  0.5145615962656551  0.34477832795482716  1.0000
  H   H145      1.0  0.12317862799532442  0.5116194815776441  0.3407950043695654  1.0000
  H   H146      1.0  0.08681955933901642  0.47248122051391683  0.33991694606751677  1.0000
  H   H147      1.0  0.09353719870385402  0.5420427056780075  0.37964477681301145  1.0000
  H   H148      1.0  0.13786628227432152  0.5399731578638896  0.37483452487282576  1.0000
  H   H149      1.0  0.11376811189425062  0.520687725626457  0.39906242332069186  1.0000
  H   H150      1.0  0.0632249353715737  0.46696357439819564  0.3981163313555473  1.0000
  H   H151      1.0  0.05217450401793533  0.44588102477180647  0.37358394434302555  1.0000
  H   H152      1.0  0.043822953258451536  0.48791892582763313  0.37805326454963684  1.0000
  N   N3        1.0  0.9811302969385755  0.37666580350120843  0.9073736328476717  1.0000
  C   C201      1.0  0.01744334751379868  0.391138603960211  0.9141609060491089  1.0000
  C   C202      1.0  0.9575157174671578  0.3940662316434695  0.9186615624613418  1.0000
  C   C203      1.0  0.969281017678066  0.33803425105850377  0.9125491708471396  1.0000
  C   C204      1.0  0.9800930474484425  0.38330988113702985  0.8841120114692199  1.0000
  H   H153      1.0  0.019199162845779324  0.3857148449218312  0.9315469347899232  1.0000
  H   H154      1.0  0.02699581607324998  0.42043911915339166  0.9111491010698141  1.0000
  H   H155      1.0  0.03616600400484521  0.3790998196693629  0.9057294189203836  1.0000
  H   H156      1.0  0.9298154662970225  0.38349830655742795  0.9140422690399299  1.0000
  H   H157      1.0  0.9577572114404727  0.3897439329127601  0.9362680051980384  1.0000
  H   H158      1.0  0.9656043962324068  0.4232617956573276  0.9151085577355736  1.0000
  H   H159      1.0  0.9689049179837398  0.33206604985478283  0.9300182614616727  1.0000
  H   H160      1.0  0.9869305395644881  0.32404501958663423  0.9047616600972116  1.0000
  H   H161      1.0  0.942228685540879  0.3261203865028116  0.907259830833975  1.0000
  H   H162      1.0  0.9529236508144273  0.3725702961637774  0.8785880759763368  1.0000
  H   H163      1.0  0.9974728207940762  0.37039933107842626  0.8750765037249747  1.0000
  H   H164      1.0  0.9888290230457334  0.41221668277479906  0.8795971741897647  1.0000
  N   N4        1.0  0.6963635665460798  0.21387573909328905  0.985859774855338  1.0000
  C   C205      1.0  0.7351698201784921  0.22343476594948095  0.9838077167073779  1.0000
  C   C206      1.0  0.6852321125383687  0.2298325297381867  0.00489091047893949  1.0000
  C   C207      1.0  0.6822468545405083  0.17490251734520149  0.9881973820548686  1.0000
  C   C208      1.0  0.6828316408950168  0.22722543057274466  0.9665876417676273  1.0000
  H   H165      1.0  0.7445818194499443  0.21088060727000393  0.9700388563873743  1.0000
  H   H166      1.0  0.7463991960331706  0.21481785771746076  0.9983645922733034  1.0000
  H   H167      1.0  0.7466662250347929  0.25256465795355315  0.9814243308896303  1.0000
  H   H168      1.0  0.6943087147716641  0.25927024870302606  0.0034325674281525456  1.0000
  H   H169      1.0  0.6561111776036834  0.2222873238690689  0.007269674374602928  1.0000
  H   H170      1.0  0.695780149678943  0.22106643005158183  0.019664980552141234  1.0000
  H   H171      1.0  0.6912887742664398  0.16161497950413306  0.974648792768639  1.0000
  H   H172      1.0  0.6530800790805057  0.16634463178461825  0.9889060311280803  1.0000
  H   H173      1.0  0.6905771389537119  0.16422795026842965  0.003162752354297608  1.0000
  H   H174      1.0  0.6535918666601657  0.22007927166004046  0.9675823288541591  1.0000
  H   H175      1.0  0.6910390074304272  0.21586811210914947  0.9519760018630864  1.0000
  H   H176      1.0  0.692490621994833  0.25668454953128494  0.9646058580595199  1.0000
  N   N5        1.0  0.4688199571438621  0.6662056581311205  0.49817914146333087  1.0000
  C   C209      1.0  0.45915688157975926  0.6638985893610264  0.47570088206359296  1.0000
  C   C210      1.0  0.4497554259760809  0.6883614798170438  0.5093012279856105  1.0000
  C   C211      1.0  0.5071435981796776  0.6823676275000385  0.4990225642030766  1.0000
  C   C212      1.0  0.45907528660923574  0.630158283979749  0.5085676843671791  1.0000
  H   H177      1.0  0.47246122268954843  0.6467991899168005  0.46688735258906267  1.0000
  H   H178      1.0  0.4663452907930641  0.6905402527049812  0.46733351003000373  1.0000
  H   H179      1.0  0.43027577961887115  0.6524350266951368  0.4745089045704346  1.0000
  H   H180      1.0  0.42074395224974453  0.6773785914169456  0.5084398392594229  1.0000
  H   H181      1.0  0.45589050190942637  0.6903775480396346  0.5264154543792011  1.0000
  H   H182      1.0  0.45664475250465664  0.7157910318272835  0.5018770140388413  1.0000
  H   H183      1.0  0.5154018130367495  0.7095510037612254  0.4911588833576047  1.0000
  H   H184      1.0  0.5223243425526506  0.666345759799182  0.49071694445564323  1.0000
  H   H185      1.0  0.5154220073397002  0.6847067804597203  0.5157537730765253  1.0000
  H   H186      1.0  0.46582403110381354  0.6306604176562023  0.5256001267471492  1.0000
  H   H187      1.0  0.472750136778361  0.6126448428305455  0.5003957293032769  1.0000
  H   H188      1.0  0.43032418442723824  0.6171707349152996  0.5079362722014389  1.0000
  N   N6        1.0  0.9135745532669994  0.1612880506153577  0.9843440521060997  1.0000
  C   C213      1.0  0.8847914616608568  0.16775540628582425  0.9978266378250694  1.0000
  C   C214      1.0  0.9006482021585425  0.12704376504484285  0.9741887999405341  1.0000
  C   C215      1.0  0.9432413842040409  0.1603084702875065  0.9976936521697799  1.0000
  C   C216      1.0  0.9255644494996972  0.1901610269151161  0.9676365275267481  1.0000
  H   H189      1.0  0.8934950982685912  0.19343742289158675  0.005711714591617234  1.0000
  H   H190      1.0  0.8748254612460669  0.14635580062435985  0.010520697843069637  1.0000
  H   H191      1.0  0.8620854896717185  0.16877789533298232  0.988179459134422  1.0000
  H   H192      1.0  0.878087284202137  0.12702609335493334  0.964084082052651  1.0000
  H   H193      1.0  0.921501075104031  0.1214142546431408  0.9636790165305101  1.0000
  H   H194      1.0  0.8913081897402988  0.10459411797805308  0.9862957769010646  1.0000
  H   H195      1.0  0.9351110780039112  0.13904281963420784  0.010623528719782227  1.0000
  H   H196      1.0  0.9537044438244399  0.18601817842905086  0.005350347636221997  1.0000
  H   H197      1.0  0.9653784953002967  0.1553353501175358  0.9880244669206825  1.0000
  H   H198      1.0  0.9347120770402959  0.216563233413147  0.974671956661631  1.0000
  H   H199      1.0  0.9040182543151692  0.1911171071792191  0.9570043637411294  1.0000
  H   H200      1.0  0.947736703613877  0.18665268624802353  0.957367397783269  1.0000
  N   N7        1.0  0.6426456473940494  0.5556903157421761  0.4453309500451739  1.0000
  C   C217      1.0  0.6653577257831038  0.5915408524607199  0.43882895389399806  1.0000
  C   C218      1.0  0.6137711864253971  0.5587771124188708  0.46007588142094247  1.0000
  C   C219      1.0  0.6635591504089324  0.5349861980583419  0.45618311615919954  1.0000
  C   C220      1.0  0.6278190717718497  0.537436752854313  0.42622213358252065  1.0000
  H   H201      1.0  0.6874820509428144  0.5902832721975678  0.4277070189033452  1.0000
  H   H202      1.0  0.6767737331160569  0.6062026848421844  0.45286737438366864  1.0000
  H   H203      1.0  0.6502286536912155  0.6076870484220782  0.4305021098993817  1.0000
  H   H204      1.0  0.6238548536958928  0.5715396932657026  0.4749503861915957  1.0000
  H   H205      1.0  0.5979104975780231  0.5748916188756388  0.45259748032421754  1.0000
  H   H206      1.0  0.5954726226720216  0.5323633370705899  0.464812130822614  1.0000
  H   H207      1.0  0.6470472686835549  0.5078560432978623  0.46126595015687283  1.0000
  H   H208      1.0  0.6751378818389941  0.5478190683208797  0.4707300618812602  1.0000
  H   H209      1.0  0.6854713877952573  0.5318363881603637  0.4455129912764959  1.0000
  H   H210      1.0  0.6104721231290898  0.5102858342213195  0.4305500229561128  1.0000
  H   H211      1.0  0.6488509887424541  0.5345945158607259  0.414748769332753  1.0000
  H   H212      1.0  0.6118493903884448  0.552340123139077  0.41761230159633406  1.0000
  N   N8        1.0  0.6023055505987958  0.164830510514193  0.8979020334078812  1.0000
  C   C221      1.0  0.6020330685753431  0.19724203754598582  0.9090141593321341  1.0000
  C   C222      1.0  0.5840681280359677  0.13326544306915752  0.9116498456162739  1.0000
  C   C223      1.0  0.6390526622858653  0.16449372428065553  0.8932570827055301  1.0000
  C   C224      1.0  0.5840302296757482  0.16428223766755023  0.8777742621914074  1.0000
  H   H213      1.0  0.6145922077824022  0.19810496278383224  0.9245962953842572  1.0000
  H   H214      1.0  0.5746861960668712  0.19877687184369316  0.9123820732610615  1.0000
  H   H215      1.0  0.6159818799058234  0.22153897265174677  0.8991322690106047  1.0000
  H   H216      1.0  0.5962810119722817  0.1334007633611286  0.9273087941368221  1.0000
  H   H217      1.0  0.5558602853297863  0.13177868821013697  0.9147775090343806  1.0000
  H   H218      1.0  0.5848785443481017  0.10824426437552374  0.904238659617512  1.0000
  H   H219      1.0  0.6401578626625993  0.1403319355703473  0.8849671040009022  1.0000
  H   H220      1.0  0.6534209866429237  0.16462263661980234  0.9081366039191708  1.0000
  H   H221      1.0  0.6535320781752048  0.18768096479182209  0.8826419936226477  1.0000
  H   H222      1.0  0.5792193676489034  0.13814175892147512  0.870503304956117  1.0000
  H   H223      1.0  0.5997546704055245  0.18444387544985502  0.8656970573473256  1.0000
  H   H224      1.0  0.5579933573007173  0.1695095993672702  0.8803263485609535  1.0000
  N   N9        1.0  0.05182201293124811  0.37933960030967667  0.5034282245925338  1.0000
  C   C225      1.0  0.03746472317739191  0.35165762988606414  0.4882990315080646  1.0000
  C   C226      1.0  0.06323430592783419  0.41442158459811684  0.4918323908412525  1.0000
  C   C227      1.0  0.08221641374946143  0.3717759250389097  0.5135275320658858  1.0000
  C   C228      1.0  0.024410466827977206  0.37946931229727104  0.520048461867525  1.0000
  H   H225      1.0  0.014750692479923444  0.3566642054813868  0.4802418063995585  1.0000
  H   H226      1.0  0.02795084120897884  0.324845363345925  0.4965058693854112  1.0000
  H   H227      1.0  0.05732666834594524  0.35081960087958153  0.47543346693022426  1.0000
  H   H228      1.0  0.08397603176304935  0.4153164192023588  0.47919939284756957  1.0000
  H   H229      1.0  0.04096965834175714  0.4208028878166786  0.48385053303672926  1.0000
  H   H230      1.0  0.07401598238277152  0.436083489257181  0.5027000957180046  1.0000
  H   H231      1.0  0.07442804872410869  0.34545698391509044  0.5224122771033118  1.0000
  H   H232      1.0  0.09378001935130409  0.3921761432803443  0.5250207482354752  1.0000
  H   H233      1.0  0.10334447283289316  0.3714559285758457  0.5013779363109296  1.0000
  H   H234      1.0  0.034257549086411876  0.3998919240602751  0.5318217113045778  1.0000
  H   H235      1.0  0.01476093452535987  0.353233877999642  0.5289526370213533  1.0000
  H   H236      1.0  0.0010767737367096686  0.3851463810596044  0.5129773294162582  1.0000
  N   N10       1.0  0.328102657050998  0.5458845603812005  0.22139284494561715  1.0000
  C   C229      1.0  0.36229221897469577  0.5733922419770827  0.2205658483511024  1.0000
  C   C230      1.0  0.3303828354825051  0.5172518570725658  0.20725614662374714  1.0000
  C   C231      1.0  0.3005356574926187  0.5618044892148456  0.21417480660321075  1.0000
  C   C232      1.0  0.31916717732289274  0.5312100039316244  0.2435820548991507  1.0000
  H   H237      1.0  0.3616723586064143  0.5949336632486033  0.23144183580816083  1.0000
  H   H238      1.0  0.3694677325183487  0.5859999149810999  0.20422982822729854  1.0000
  H   H239      1.0  0.38393733906978134  0.5622993328081574  0.22548533434955867  1.0000
  H   H240      1.0  0.33720072109543536  0.5275520894504873  0.19039088819583969  1.0000
  H   H241      1.0  0.3507490898100731  0.5043968434421455  0.21224871478143384  1.0000
  H   H242      1.0  0.30486925531552717  0.49628057643919116  0.2072241950620458  1.0000
  H   H243      1.0  0.29863807824492516  0.5842308593280264  0.22404000014671097  1.0000
  H   H244      1.0  0.27422612725343753  0.5420542747849052  0.21492023873071547  1.0000
  H   H245      1.0  0.3061057992953328  0.5725610497293793  0.19735825268628046  1.0000
  H   H246      1.0  0.33970196869317715  0.5195206234778119  0.24975804566621843  1.0000
  H   H247      1.0  0.29369130009007144  0.5101346384222131  0.244902324226631  1.0000
  H   H248      1.0  0.3169364456234837  0.5521839227641073  0.25458204046871  1.0000
  N   N11       1.0  0.32691920821585274  0.5293197223641817  0.9435655629070896  1.0000
  C   C233      1.0  0.3364541373109803  0.5601335228359993  0.9571205642720154  1.0000
  C   C234      1.0  0.35828487574402457  0.5169112654564924  0.9389368120661246  1.0000
  C   C235      1.0  0.3135328819500963  0.5398338922566739  0.9234168667448385  1.0000
  C   C236      1.0  0.299293281468668  0.5003991052647091  0.9548808290074653  1.0000
  H   H249      1.0  0.31309515577272623  0.5693469593400735  0.9614584016161262  1.0000
  H   H250      1.0  0.35648324800587133  0.5830407454650629  0.9488692588448904  1.0000
  H   H251      1.0  0.3475963104108561  0.5534094582504807  0.9721520207899307  1.0000
  H   H252      1.0  0.3519587041963627  0.49326968634947105  0.9290191392362336  1.0000
  H   H253      1.0  0.37967909636193603  0.5380281684967949  0.9303353794979  1.0000
  H   H254      1.0  0.36903378715914525  0.5089386087913564  0.9538845696910787  1.0000
  H   H255      1.0  0.289871486089511  0.5494117201421469  0.9265015961881602  1.0000
  H   H256      1.0  0.30574545929864416  0.5171280640928045  0.9128624760409177  1.0000
  H   H257      1.0  0.3336303292394106  0.5617136753834668  0.9144538348600626  1.0000
  H   H258      1.0  0.2749299943476767  0.5084922084081589  0.9581845246609914  1.0000
  H   H259      1.0  0.30810827873511293  0.49233970444643915  0.970399038648675  1.0000
  H   H260      1.0  0.2917873916139006  0.4764542321451248  0.9452798654976559  1.0000
  N   N12       1.0  0.8015027300615036  0.3503400424658109  0.4289232799841567  1.0000
  C   C237      1.0  0.7994149388336761  0.36731565234725244  0.4493294725000853  1.0000
  C   C238      1.0  0.7792393691206055  0.3620853380116542  0.41352786420623655  1.0000
  C   C239      1.0  0.7890512045942855  0.3113368565688933  0.4325719997625787  1.0000
  C   C240      1.0  0.8383186046850366  0.3606692640899119  0.4203286123411627  1.0000
  H   H261      1.0  0.8146838814050149  0.35784249588395883  0.4616079087412473  1.0000
  H   H262      1.0  0.7718447390454954  0.3609138300157033  0.45588660422396293  1.0000
  H   H263      1.0  0.8099607639952411  0.39673892803680594  0.4475150728054747  1.0000
  H   H264      1.0  0.7801568560335421  0.34959285285695785  0.3979798025426446  1.0000
  H   H265      1.0  0.7512629141310543  0.3548315975885709  0.41961786285515024  1.0000
  H   H266      1.0  0.7880271665642486  0.3914071962567986  0.41047484862128364  1.0000
  H   H267      1.0  0.7920417865414325  0.2974402079397005  0.4177927186635764  1.0000
  H   H268      1.0  0.7609142161959839  0.30248665208968173  0.4382399175667164  1.0000
  H   H269      1.0  0.8042548734259314  0.3017606774989635  0.44489687220673463  1.0000
  H   H270      1.0  0.8410928783116719  0.3483509736338656  0.4049229516167682  1.0000
  H   H271      1.0  0.8554403622709787  0.35164706944929947  0.4314729168455665  1.0000
  H   H272      1.0  0.8490096165989072  0.39000383531806604  0.41789061721643844  1.0000
  N   N13       1.0  0.6778334607897197  0.21043681788585378  0.537733156513718  1.0000
  C   C241      1.0  0.7074191264191628  0.2423762303718826  0.5323781672741529  1.0000
  C   C242      1.0  0.6547250074626834  0.21813938801618593  0.5548151509969018  1.0000
  C   C243      1.0  0.6915589223539413  0.18095876961841895  0.5452174353894611  1.0000
  C   C244      1.0  0.6576594883546067  0.20015984033060796  0.5185542170982946  1.0000
  H   H273      1.0  0.7231617182460868  0.25109864059373566  0.546488699754889  1.0000
  H   H274      1.0  0.697996694870274  0.2650976286834865  0.5264989270081286  1.0000
  H   H275      1.0  0.7253235531922669  0.2374519622790765  0.5195089204321456  1.0000
  H   H276      1.0  0.6315729052861988  0.19493931315397206  0.5588764525937182  1.0000
  H   H277      1.0  0.6689808331161549  0.22455461923059183  0.5697247704276812  1.0000
  H   H278      1.0  0.6448697729265002  0.24117189389917848  0.5501477966152462  1.0000
  H   H279      1.0  0.6698509235645904  0.15629531471525793  0.549043646792961  1.0000
  H   H280      1.0  0.7065193659974968  0.18735696339842445  0.5598748358832104  1.0000
  H   H281      1.0  0.709436019784989  0.17448764819462603  0.5329294621710228  1.0000
  H   H282      1.0  0.6351617120796282  0.17604251658111747  0.5218980310144121  1.0000
  H   H283      1.0  0.6744050473907991  0.19395432253873457  0.5054572443491543  1.0000
  H   H284      1.0  0.647076626908357  0.22181639084173366  0.5122877710673314  1.0000
  N   N14       1.0  0.3185252825104282  0.5753915909136278  0.027884247477865547  1.0000
  C   C245      1.0  0.31580429033077867  0.5875337248906425  0.04967430114773626  1.0000
  C   C246      1.0  0.3366925453672553  0.6061010335909215  0.013426733287885373  1.0000
  C   C247      1.0  0.2829178244975172  0.5590952813513983  0.020563978209728613  1.0000
  C   C248      1.0  0.3387473094384295  0.548980267661413  0.02808154255766932  1.0000
  H   H285      1.0  0.30216704455829274  0.5650891083350116  0.06108001110327691  1.0000
  H   H286      1.0  0.3005588478510123  0.6073991660359961  0.050120065143802656  1.0000
  H   H287      1.0  0.3421690014701843  0.600085924774138  0.055736831408989766  1.0000
  H   H288      1.0  0.3638638458053696  0.6184691802083381  0.01835164039032034  1.0000
  H   H289      1.0  0.3389612214738089  0.5984722789820124  0.9967081851816131  1.0000
  H   H290      1.0  0.3223310838385223  0.6268140560605538  0.013240681022357209  1.0000
  H   H291      1.0  0.2836832732344116  0.5509236900105745  0.003823366571316212  1.0000
  H   H292      1.0  0.26656900433791353  0.5779671859451659  0.021179123739970575  1.0000
  H   H293      1.0  0.2687859364876916  0.5352370740546453  0.030816289093326288  1.0000
  H   H294      1.0  0.3254266231533801  0.525329120967807  0.03871999960987748  1.0000
  H   H295      1.0  0.36545672146334995  0.5602295993608742  0.03404595517337317  1.0000
  H   H296      1.0  0.3421638339085529  0.5397703805586037  0.011840634872253094  1.0000
  N   N15       1.0  0.7878832404805561  0.4220890395305441  0.5859427688909309  1.0000
  C   C249      1.0  0.8072002607846737  0.44572590041896365  0.6018609401250571  1.0000
  C   C250      1.0  0.7611218155535535  0.4374384661978769  0.5769011782590759  1.0000
  C   C251      1.0  0.7703491915675783  0.38686078244564953  0.5963339836241053  1.0000
  C   C252      1.0  0.812910866397164  0.41840260071528035  0.5686845464344807  1.0000
  H   H297      1.0  0.7892065029498538  0.44913805050725963  0.6151415306909388  1.0000
  H   H298      1.0  0.8207736285798765  0.4724999994336255  0.594461268726849  1.0000
  H   H299      1.0  0.8276628141708465  0.43484426004662824  0.60892402998384  1.0000
  H   H300      1.0  0.7468056918684975  0.4207326175269328  0.5643731709638192  1.0000
  H   H301      1.0  0.7413353303489769  0.4399534354924647  0.5893323959911816  1.0000
  H   H302      1.0  0.7733732520965149  0.46431934944181985  0.569241248663643  1.0000
  H   H303      1.0  0.7500111494959837  0.38825961998906866  0.6087040773422291  1.0000
  H   H304      1.0  0.7895747795517238  0.37522928857326776  0.6042447095067811  1.0000
  H   H305      1.0  0.7573014296282606  0.36774198306464423  0.5844918341702615  1.0000
  H   H306      1.0  0.8261192793480135  0.4443569717083428  0.5601754447193568  1.0000
  H   H307      1.0  0.7994495283017083  0.40027009738190494  0.5564992584883652  1.0000
  H   H308      1.0  0.8337771448308952  0.4073058944031443  0.5749353728776778  1.0000
  N   N16       1.0  0.7466428582472522  0.29131163665020604  0.8853709166581333  1.0000
  C   C253      1.0  0.7514270649434291  0.2560343255554088  0.8908245267034843  1.0000
  C   C254      1.0  0.7432465795106262  0.2950800493316812  0.862125930910396  1.0000
  C   C255      1.0  0.777387719603142  0.3192836662029741  0.891745487896705  1.0000
  C   C256      1.0  0.7145031469421416  0.29490439216057124  0.8966990680494242  1.0000
  H   H309      1.0  0.728976732297975  0.23429056770652912  0.8858854171001157  1.0000
  H   H310      1.0  0.7541023104411978  0.2521447709726827  0.9082598096481916  1.0000
  H   H311      1.0  0.7755913042482377  0.2526939164537899  0.8825998208176755  1.0000
  H   H312      1.0  0.7404255677638019  0.3216531676710327  0.8572277546862389  1.0000
  H   H313      1.0  0.7664981582218434  0.29160737427565764  0.8529345305539286  1.0000
  H   H314      1.0  0.7197990609084854  0.27493642549988  0.8568972326714485  1.0000
  H   H315      1.0  0.7828321502534206  0.3152704391926105  0.9087635352248795  1.0000
  H   H316      1.0  0.7733473662862392  0.346127025450821  0.8895410293559982  1.0000
  H   H317      1.0  0.8015544409473995  0.31946116356108945  0.8821412531346847  1.0000
  H   H318      1.0  0.7098329549236295  0.3210262862876835  0.8925392734431867  1.0000
  H   H319      1.0  0.7165341943021196  0.2932750155174066  0.9143219029686859  1.0000
  H   H320      1.0  0.6907266553176159  0.27408902141080926  0.8924103580573294  1.0000
  N   N17       1.0  0.8248218002883796  0.2303139350955218  0.52049802783482  1.0000
  C   C257      1.0  0.7996284297300522  0.20211605598849858  0.5096760415969492  1.0000
  C   C258      1.0  0.8142950278757201  0.2635541767949064  0.5186538374175174  1.0000
  C   C259      1.0  0.8604034842554031  0.23626653713070525  0.510385177133923  1.0000
  C   C260      1.0  0.8250828227423235  0.21930604001459972  0.5432512738622642  1.0000
  H   H321      1.0  0.8068601033076861  0.1766382489201991  0.5107421237310716  1.0000
  H   H322      1.0  0.7989390643633888  0.2093455409855998  0.4924256256867627  1.0000
  H   H323      1.0  0.7725280443210981  0.19683097624881604  0.516848368640929  1.0000
  H   H324      1.0  0.8336435014209571  0.28562827573390265  0.5258358101968064  1.0000
  H   H325      1.0  0.8125245959955434  0.2719364062349928  0.5016667926613021  1.0000
  H   H326      1.0  0.7883989278227795  0.2608260668642699  0.5269761156865481  1.0000
  H   H327      1.0  0.8684637383482772  0.21127079251328  0.5103035917402441  1.0000
  H   H328      1.0  0.8804362514197923  0.25589019133030244  0.5189230061250885  1.0000
  H   H329      1.0  0.8617144143995141  0.24675815117220012  0.4935772371822875  1.0000
  H   H330      1.0  0.798579376896682  0.21391817310709893  0.5513843424881228  1.0000
  H   H331      1.0  0.843404549646768  0.2400436944780827  0.5520781009251475  1.0000
  H   H332      1.0  0.8335101667794068  0.19460098323087327  0.5452147760355994  1.0000
  N   N18       1.0  0.5547296429001316  0.9170496996489883  0.39401675065591396  1.0000
  C   C261      1.0  0.5698058208520992  0.9533283965146498  0.4011712989618787  1.0000
  C   C262      1.0  0.54598464351231  0.9186814673371624  0.37139573429926154  1.0000
  C   C263      1.0  0.522421949003236  0.8994710619834813  0.4071762955813177  1.0000
  C   C264      1.0  0.580659474159152  0.8965574562006396  0.39634635167436494  1.0000
  H   H333      1.0  0.5765841538697609  0.9528031321832905  0.41821064605156333  1.0000
  H   H334      1.0  0.5509995861549779  0.969632202214886  0.39973703341146877  1.0000
  H   H335      1.0  0.5944049652651943  0.9673868432176705  0.39172360833892655  1.0000
  H   H336      1.0  0.5697121354996434  0.9317598077161945  0.36093465506722683  1.0000
  H   H337      1.0  0.5345740792235265  0.8915388645276485  0.36564308006899665  1.0000
  H   H338      1.0  0.5263253228382446  0.9337969611260438  0.36905515731797656  1.0000
  H   H339      1.0  0.5024773059907162  0.9145246647097837  0.4061871622002802  1.0000
  H   H340      1.0  0.5280915454012983  0.8971410683246975  0.42426988189687365  1.0000
  H   H341      1.0  0.5100435448774229  0.8721890204044799  0.40205116520732664  1.0000
  H   H342      1.0  0.6052597407133679  0.9089029834454279  0.38647988819892237  1.0000
  H   H343      1.0  0.5699665281113434  0.8688469716793011  0.3913535231768771  1.0000
  H   H344      1.0  0.5881548659601167  0.8951268802372507  0.413205677915939  1.0000
  N   N19       1.0  0.5882951983112966  0.9195891910025518  0.915020070009792  1.0000
  C   C265      1.0  0.5642975287319849  0.8835554101451721  0.9193721914829093  1.0000
  C   C266      1.0  0.6068828278927759  0.931755510772249  0.9344855635207673  1.0000
  C   C267      1.0  0.5677106957831363  0.9441117112711089  0.9086155003052772  1.0000
  C   C268      1.0  0.6143537983780155  0.9191132496231394  0.8976315684987861  1.0000
  H   H345      1.0  0.5495773493941193  0.8735537779978612  0.9050940032155798  1.0000
  H   H346      1.0  0.5444469347365586  0.8832018246887493  0.9324944480379265  1.0000
  H   H347      1.0  0.5788344417057856  0.8642769537829582  0.9243100030242514  1.0000
  H   H348      1.0  0.6215299868368713  0.9131621223302552  0.940369705821607  1.0000
  H   H349      1.0  0.6261856797724253  0.9582719828773154  0.9315967505836629  1.0000
  H   H350      1.0  0.5883002395931788  0.9341438710557969  0.9476327361881488  1.0000
  H   H351      1.0  0.5849942151679141  0.9716703966494996  0.9055407112530702  1.0000
  H   H352      1.0  0.5474611707838171  0.9448250337941915  0.921261936302154  1.0000
  H   H353      1.0  0.553786982156095  0.9360866269512226  0.8937777318763955  1.0000
  H   H354      1.0  0.6326252951667926  0.9461549795533754  0.8939952872240622  1.0000
  H   H355      1.0  0.601369160231255  0.9100285253497991  0.882653275384831  1.0000
  H   H356      1.0  0.6306854730395204  0.9012260175180121  0.9020000418837225  1.0000
  N   N20       1.0  0.677616305302424  0.4518025753135203  0.9622699313803548  1.0000
  C   C269      1.0  0.7035750644438893  0.43277428803176243  0.9682053883911621  1.0000
  C   C270      1.0  0.6949851014289931  0.49034622257530175  0.9602015718562982  1.0000
  C   C271      1.0  0.6487264120386227  0.44448759901053925  0.9789199468307098  1.0000
  C   C272      1.0  0.6631581545895827  0.4396568961278632  0.9416623198689765  1.0000
  H   H357      1.0  0.7254001770690222  0.4371732424013101  0.9557777097032851  1.0000
  H   H358      1.0  0.6913790315301966  0.40361464070528863  0.9699233793121878  1.0000
  H   H359      1.0  0.7152900168807395  0.4413334056695637  0.9836124773738241  1.0000
  H   H360      1.0  0.7062240403755127  0.5004634885020163  0.9754704675058088  1.0000
  H   H361      1.0  0.7168410207219648  0.49674780514221334  0.9477144619061793  1.0000
  H   H362      1.0  0.6760793036246138  0.5054239495162696  0.9556919793881403  1.0000
  H   H363      1.0  0.6584904063008785  0.45338574854233776  0.9947183529405162  1.0000
  H   H364      1.0  0.6349083057714324  0.41564756804370767  0.98088873248053  1.0000
  H   H365      1.0  0.6283671059656372  0.45797996187040985  0.9747520929285658  1.0000
  H   H366      1.0  0.6841449423461454  0.4441557652366819  0.9287112656682599  1.0000
  H   H367      1.0  0.6432659112684269  0.45319865241024865  0.9366593609549958  1.0000
  H   H368      1.0  0.6496971324008086  0.4108338008007875  0.9427743660773614  1.0000
  N   N21       1.0  0.6156325409132591  0.9733098754736494  0.5262523141540726  1.0000
  C   C273      1.0  0.5946495144321452  0.9978534949668185  0.5206142576248327  1.0000
  C   C274      1.0  0.6508146727631182  0.9858493520590232  0.5152677010649546  1.0000
  C   C275      1.0  0.5977643597407998  0.9373870824202356  0.5195366116956642  1.0000
  C   C276      1.0  0.6194438939938819  0.9723306389423182  0.5495796388926287  1.0000
  H   H369      1.0  0.5679009335959841  0.9892438737536542  0.5285936966366164  1.0000
  H   H370      1.0  0.5914232350951534  0.9994539928660271  0.5031296454255715  1.0000
  H   H371      1.0  0.6074985279609212  0.02525920720507191  0.5253896563396202  1.0000
  H   H372      1.0  0.6670572589344997  0.9673851219344662  0.5184673738955766  1.0000
  H   H373      1.0  0.6490811683618846  0.9884478071202926  0.4976449457483327  1.0000
  H   H374      1.0  0.6654712612463443  0.012256709216495132  0.5206606175370857  1.0000
  H   H375      1.0  0.5954229111495167  0.9372583237889252  0.5019453583901713  1.0000
  H   H376      1.0  0.5706884801144102  0.9273605776128468  0.5269871014470248  1.0000
  H   H377      1.0  0.6125571471504859  0.918024709258699  0.5238503263728748  1.0000
  H   H378      1.0  0.6327067074967201  0.9992463684486834  0.555061121139808  1.0000
  H   H379      1.0  0.6356007241415835  0.9544934859004857  0.5543902430613513  1.0000
  H   H380      1.0  0.5934351373209737  0.9628533745607525  0.5584308712821038  1.0000
  N   N22       1.0  0.33708649134093843  0.4880452376752671  0.36815851134143607  1.0000
  C   C277      1.0  0.31987217406906865  0.5169563183270528  0.36829712507701373  1.0000
  C   C278      1.0  0.3458717668921011  0.4814171754025595  0.345883170063603  1.0000
  C   C279      1.0  0.31296608107283247  0.4554867883982172  0.3785438451601691  1.0000
  C   C280      1.0  0.3696403073155975  0.49833402783824804  0.37994953633768386  1.0000
  H   H381      1.0  0.2948833110489062  0.5097507745475194  0.3598139897826997  1.0000
  H   H382      1.0  0.33706396050006354  0.5417681950815032  0.36025578095896704  1.0000
  H   H383      1.0  0.3131566322714841  0.522838601961056  0.38488029892832126  1.0000
  H   H384      1.0  0.3586496184340682  0.459536281770245  0.34513598103315984  1.0000
  H   H385      1.0  0.32201369009736025  0.4742077717419437  0.3363411105221698  1.0000
  H   H386      1.0  0.3643489942548398  0.5053973806956262  0.33764496464049915  1.0000
  H   H387      1.0  0.3250514625772943  0.43304598250069526  0.3787229605291502  1.0000
  H   H388      1.0  0.2879522719807472  0.44710254409895034  0.37018589882366915  1.0000
  H   H389      1.0  0.30599827337906516  0.4596277790540675  0.395429067127309  1.0000
  H   H390      1.0  0.3891149112682811  0.5219235212529297  0.37210809449205595  1.0000
  H   H391      1.0  0.38251335361899463  0.47647350890210094  0.38099688655186065  1.0000
  H   H392      1.0  0.3642681072958211  0.5048316242028504  0.3965488195221369  1.0000
  N   N23       1.0  0.6659328464163038  0.2280875508977195  0.6892581570667926  1.0000
  C   C281      1.0  0.6735961075567898  0.264934479478971  0.6802582618187617  1.0000
  C   C282      1.0  0.6673745799850183  0.22823749809976027  0.712753796057574  1.0000
  C   C283      1.0  0.6923612916659229  0.2115654535933279  0.6805126970427714  1.0000
  C   C284      1.0  0.6305740879574122  0.2075397158625491  0.6834391572294719  1.0000
  H   H393      1.0  0.7002393975236731  0.2810328753562857  0.6842744487649872  1.0000
  H   H394      1.0  0.654131196857729  0.2782858287066825  0.6864340154912251  1.0000
  H   H395      1.0  0.6729387024768378  0.2656847493243924  0.662524573441223  1.0000
  H   H396      1.0  0.6938687765177138  0.2431794155025078  0.7176548102894548  1.0000
  H   H397      1.0  0.647888551479467  0.24060357913726874  0.7200044586623519  1.0000
  H   H398      1.0  0.6618145763282032  0.20080078229268686  0.7200645391565722  1.0000
  H   H399      1.0  0.6907128309185794  0.2091029618814535  0.6629932592829032  1.0000
  H   H400      1.0  0.6887470859481244  0.18443740552794322  0.6878336906332715  1.0000
  H   H401      1.0  0.7194805677532204  0.2276741705679536  0.6833796531565076  1.0000
  H   H402      1.0  0.6242715828121624  0.17950335206724002  0.689806192432241  1.0000
  H   H403      1.0  0.6287186383913191  0.20704616856966154  0.6657640532789549  1.0000
  H   H404      1.0  0.6098570689577806  0.21910075142916505  0.6898502297615976  1.0000
  N   N24       1.0  0.555511328385073  0.3497089345614078  0.516777830807327  1.0000
  C   C285      1.0  0.5625957950760895  0.31565364651294375  0.5227491610272531  1.0000
  C   C286      1.0  0.5625710092922286  0.3574860850071804  0.4935512757109036  1.0000
  C   C287      1.0  0.5785619485928659  0.37838380959961193  0.5284387274127943  1.0000
  C   C288      1.0  0.5183549866685474  0.34740785773072747  0.5223927646081368  1.0000
  H   H405      1.0  0.5580951042253857  0.30923261182505124  0.5402494425450136  1.0000
  H   H406      1.0  0.590461691289546  0.3166671153130986  0.5187159391975964  1.0000
  H   H407      1.0  0.5456357450738738  0.2932961510806612  0.5143465593564884  1.0000
  H   H408      1.0  0.556788650349272  0.38266174646180195  0.48845394320000063  1.0000
  H   H409      1.0  0.59064518511127  0.3603321477602636  0.4887746895951527  1.0000
  H   H410      1.0  0.5462117647071971  0.3360905469784473  0.4841928534442397  1.0000
  H   H411      1.0  0.5729769225750522  0.40422079378497383  0.5250403309384272  1.0000
  H   H412      1.0  0.6067867345619214  0.38178698774889575  0.5239566201047874  1.0000
  H   H413      1.0  0.5751461201141995  0.3726281136161168  0.5460205511422788  1.0000
  H   H414      1.0  0.500162179366633  0.3260398653690944  0.513877910532123  1.0000
  H   H415      1.0  0.5122420554613085  0.3727821544452349  0.5180290702206612  1.0000
  H   H416      1.0  0.5121967975588944  0.3417429921794117  0.5398400563978641  1.0000
  N   N25       1.0  0.4333464623174804  0.3624215901794699  0.9637198181621983  1.0000
  C   C289      1.0  0.4492384105380757  0.3976012213449973  0.9720452132076257  1.0000
  C   C290      1.0  0.45676547769893  0.33949576355272726  0.9673440934730968  1.0000
  C   C291      1.0  0.4286954654683389  0.3665830987679355  0.9406188844056469  1.0000
  C   C292      1.0  0.39879807725648336  0.346243950092592  0.9749523151713114  1.0000
  H   H417      1.0  0.43332549107507906  0.4162507830346068  0.9687415316651119  1.0000
  H   H418      1.0  0.4760020059149701  0.4099546441773487  0.9646349691275361  1.0000
  H   H419      1.0  0.4513255362913275  0.3956643095746426  0.9896309249687846  1.0000
  H   H420      1.0  0.4458177995686683  0.312676599414062  0.9612040759054399  1.0000
  H   H421      1.0  0.48326747513958584  0.35117824758431904  0.9592938256815424  1.0000
  H   H422      1.0  0.4607523502700056  0.3359571922121837  0.9846726792507912  1.0000
  H   H423      1.0  0.41688627313456295  0.3405294106020046  0.9337207168628296  1.0000
  H   H424      1.0  0.454338477442225  0.37903174313948257  0.9317664718836144  1.0000
  H   H425      1.0  0.41108962048713005  0.38379976196502186  0.9374718178040471  1.0000
  H   H426      1.0  0.4015437348980929  0.3424871314470093  0.9924212584650249  1.0000
  H   H427      1.0  0.38573232615131414  0.31982315013761836  0.9689042265222465  1.0000
  H   H428      1.0  0.38076642911172576  0.3633286426529527  0.9729065816254052  1.0000
  N   N26       1.0  0.8276511654461546  0.18668678129883298  0.7674119775609152  1.0000
  C   C293      1.0  0.8356577222776335  0.18623917378085336  0.7442427055932836  1.0000
  C   C294      1.0  0.7921101403681015  0.16299334233783094  0.7729381385300791  1.0000
  C   C295      1.0  0.8290831021202862  0.22324498923000102  0.7730479431533095  1.0000
  C   C296      1.0  0.8536172434750275  0.17425426234520094  0.7795261319051305  1.0000
  H   H429      1.0  0.8162591859595064  0.1952589166805572  0.7347455332166569  1.0000
  H   H430      1.0  0.8348266777739017  0.15907111196930462  0.739388005988639  1.0000
  H   H431      1.0  0.8621592928354934  0.20409115894983643  0.7394027772932077  1.0000
  H   H432      1.0  0.7857453950101749  0.16167469563645817  0.7904106054046497  1.0000
  H   H433      1.0  0.7716072338213181  0.1723258358781803  0.7648593999325736  1.0000
  H   H434      1.0  0.7895167742355053  0.1354116662799249  0.768208121577144  1.0000
  H   H435      1.0  0.8226211149805769  0.22441655363652305  0.7903926867674838  1.0000
  H   H436      1.0  0.8100564395263582  0.23361500826575646  0.7640420841306259  1.0000
  H   H437      1.0  0.8556721800257937  0.24177671928470912  0.7693753387580288  1.0000
  H   H438      1.0  0.8481535081254767  0.1745739959303463  0.7970904116204732  1.0000
  H   H439      1.0  0.8808240987570566  0.19138478782908552  0.7757631003064002  1.0000
  H   H440      1.0  0.8529457466726565  0.14656125317229193  0.7759040336601377  1.0000
  N   N27       1.0  0.44326865327437254  0.543036862364685  0.10580689391863057  1.0000
  C   C297      1.0  0.46103870255652696  0.5684755437914946  0.12135419843070046  1.0000
  C   C298      1.0  0.469841887839948  0.5358092328205426  0.09083192397529259  1.0000
  C   C299      1.0  0.41923400107648173  0.5584190901107247  0.09378399129456942  1.0000
  C   C300      1.0  0.42286005466608884  0.5095900687216411  0.11721058291502803  1.0000
  H   H441      1.0  0.44170793831175703  0.574500356549008  0.13292888749737203  1.0000
  H   H442      1.0  0.475959780978202  0.5942890814980187  0.11321777356193977  1.0000
  H   H443      1.0  0.47977297300178334  0.5581199044283164  0.13060159105973213  1.0000
  H   H444      1.0  0.45730539272209625  0.5165233564169148  0.0789867163768625  1.0000
  H   H445      1.0  0.48498288141023216  0.5604056263735071  0.08153814889536841  1.0000
  H   H446      1.0  0.48882662548681355  0.5246558537051594  0.09930561001559329  1.0000
  H   H447      1.0  0.4043760436978683  0.5395580678984259  0.08240473009675955  1.0000
  H   H448      1.0  0.4338036177330483  0.5831516404598941  0.08439432813866715  1.0000
  H   H449      1.0  0.39992718725953635  0.5655773407371447  0.10472206440945438  1.0000
  H   H450      1.0  0.40923029819584145  0.4897941189293851  0.10587142246367269  1.0000
  H   H451      1.0  0.4022342581261707  0.5140992228894047  0.1284478144602507  1.0000
  H   H452      1.0  0.4400653924395506  0.49727481686130287  0.12658977905611066  1.0000
  N   N28       1.0  0.21396512787193098  0.37669712035169367  0.046266113160202016  1.0000
  C   C301      1.0  0.20781826319709282  0.3600718245751501  0.025499841750914465  1.0000
  C   C302      1.0  0.23910538832817307  0.4123579304328937  0.04305136322285752  1.0000
  C   C303      1.0  0.2286709448639207  0.3545914418572175  0.06078329931562032  1.0000
  C   C304      1.0  0.1803160908908545  0.37982761395682557  0.05577328468780607  1.0000
  H   H453      1.0  0.1888579963601422  0.3331988139845165  0.027308615664298985  1.0000
  H   H454      1.0  0.23265971294646506  0.35729244723960824  0.017833644402120763  1.0000
  H   H455      1.0  0.1968213787202212  0.376192448116506  0.014110639602759267  1.0000
  H   H456      1.0  0.26494373801245824  0.41098470805222603  0.03612743048716771  1.0000
  H   H457      1.0  0.22891895003167922  0.4297928871082712  0.03219385104767203  1.0000
  H   H458      1.0  0.24412591288785518  0.4257834964087241  0.058408795474698794  1.0000
  H   H459      1.0  0.25385844710450495  0.35130311796899805  0.05392767558616529  1.0000
  H   H460      1.0  0.21025710933663022  0.3276858026095367  0.06401262877896818  1.0000
  H   H461      1.0  0.234565546513224  0.36704185559140184  0.07636458899732079  1.0000
  H   H462      1.0  0.1842554802377478  0.39417485885587517  0.07085706381093337  1.0000
  H   H463      1.0  0.16118885916305636  0.3534102624238887  0.059365021364281345  1.0000
  H   H464      1.0  0.16775308665508618  0.3950479379403537  0.044791541771642907  1.0000
  N   N29       1.0  0.31062203016126994  0.7196185489184238  0.06663541332266411  1.0000
  C   C305      1.0  0.2984847564864686  0.7425775838351594  0.05125772461667891  1.0000
  C   C306      1.0  0.28505502359743456  0.7092644717252788  0.08512460719686364  1.0000
  C   C307      1.0  0.3453993287471003  0.7390172738711008  0.07397016837824538  1.0000
  C   C308      1.0  0.31349829290908476  0.6874542649742315  0.056134451135095624  1.0000
  H   H465      1.0  0.2952107222755421  0.7667999273075065  0.05865518500441707  1.0000
  H   H466      1.0  0.27277604427123003  0.7282326652819027  0.04493082190106889  1.0000
  H   H467      1.0  0.3173906948621644  0.7511626391977353  0.037193452429334965  1.0000
  H   H468      1.0  0.2934539480735673  0.691934469048549  0.09705704780070303  1.0000
  H   H469      1.0  0.2818080135443307  0.7327702325760721  0.09339160226868579  1.0000
  H   H470      1.0  0.2586927816011507  0.6939012903526646  0.08016188926592252  1.0000
  H   H471      1.0  0.36535261548182374  0.7471684810237759  0.060382644422549675  1.0000
  H   H472      1.0  0.3553572339587938  0.7222646467242365  0.08552041918479485  1.0000
  H   H473      1.0  0.3442210693868721  0.7633777648707337  0.08206225818223126  1.0000
  H   H474      1.0  0.3230616634299052  0.6697110239536583  0.06717260097625191  1.0000
  H   H475      1.0  0.3318555963227457  0.6943240218466031  0.04182687911449179  1.0000
  H   H476      1.0  0.28757030568910563  0.671923754147963  0.05063694716699307  1.0000
  N   N30       1.0  0.5453325850019876  0.6912944550420663  0.3691759069679745  1.0000
  C   C309      1.0  0.5187566762150633  0.7112834836769121  0.3683950177443529  1.0000
  C   C310      1.0  0.5286535601193538  0.6547067456354956  0.37785771950329794  1.0000
  C   C311      1.0  0.5736074074732872  0.7090308223561682  0.3830281059957797  1.0000
  C   C312      1.0  0.5603439844486516  0.6901201363896408  0.34738065939533613  1.0000
  H   H477      1.0  0.5305870896280335  0.7390737929879555  0.361968633964467  1.0000
  H   H478      1.0  0.5068487422074279  0.7129114993295868  0.384532087980774  1.0000
  H   H479      1.0  0.49711808516156486  0.6987951868874118  0.35794085751348953  1.0000
  H   H480      1.0  0.5481901748157688  0.639119052175163  0.3789332749411996  1.0000
  H   H481      1.0  0.5168257566159212  0.6544485094653455  0.39420957110055543  1.0000
  H   H482      1.0  0.5077669477198719  0.640193008148214  0.3675072793297813  1.0000
  H   H483      1.0  0.5937027364194347  0.6941521449630799  0.3843988524183143  1.0000
  H   H484      1.0  0.5630603068650337  0.7110358993213305  0.3994782989704128  1.0000
  H   H485      1.0  0.5872680553453262  0.7364957673218543  0.37676497294073175  1.0000
  H   H486      1.0  0.5795079216375968  0.6740475327338497  0.3472008409237031  1.0000
  H   H487      1.0  0.5740241301094926  0.7171604354540279  0.34046389977142394  1.0000
  H   H488      1.0  0.5395161948414373  0.6778175498587136  0.3363623218533123  1.0000
  N   N31       1.0  0.39538525180796974  0.6279348071607762  0.403800053505748  1.0000
  C   C313      1.0  0.424794607508005  0.6456262395037112  0.38846578059976933  1.0000
  C   C314      1.0  0.4042697671527897  0.6402145567873355  0.42536721700374114  1.0000
  C   C315      1.0  0.38941777340335837  0.5891152740421168  0.4036788002439141  1.0000
  C   C316      1.0  0.36302968217323694  0.6367444136162119  0.3976874880435073  1.0000
  H   H489      1.0  0.44901453385193996  0.6379791237922118  0.3921105732581816  1.0000
  H   H490      1.0  0.43090866060650507  0.6749891781405791  0.38880311886478536  1.0000
  H   H491      1.0  0.41836788373683476  0.6385937885815313  0.37182133318818306  1.0000
  H   H492      1.0  0.40993863160445393  0.6695789534297091  0.4258170108385069  1.0000
  H   H493      1.0  0.3821831466590787  0.6285599240695302  0.43722095149313395  1.0000
  H   H494      1.0  0.4276165342849024  0.6326295580485652  0.43096229396640134  1.0000
  H   H495      1.0  0.36608704788570434  0.5749555528545597  0.4141215757022539  1.0000
  H   H496      1.0  0.412284713783297  0.5809718211862703  0.40960882762886747  1.0000
  H   H497      1.0  0.3847453695684262  0.5795356085316477  0.3873357649401638  1.0000
  H   H498      1.0  0.3403444526863876  0.6237998272249626  0.40899397243223207  1.0000
  H   H499      1.0  0.35562779654635523  0.6282504615739887  0.3814056982092127  1.0000
  H   H500      1.0  0.36633356029618  0.6657208829840244  0.397730863943819  1.0000
  N   N32       1.0  0.27955319390810063  0.6832286994897732  0.3431759406922595  1.0000
  C   C317      1.0  0.2637025775884766  0.7063281863515077  0.3301645139223872  1.0000
  C   C318      1.0  0.29833789542226097  0.6645902460516124  0.3289741614426273  1.0000
  C   C319      1.0  0.2516107139766309  0.656909689134478  0.3560895342048886  1.0000
  C   C320      1.0  0.3045782443907341  0.7050937749839835  0.357509621112378  1.0000
  H   H501      1.0  0.24938739539204666  0.7208359998762657  0.3404191883834214  1.0000
  H   H502      1.0  0.2446361879700315  0.6906506475241255  0.31919049016040696  1.0000
  H   H503      1.0  0.2841636203032053  0.726472443759547  0.32022696278213275  1.0000
  H   H504      1.0  0.31080373792735494  0.6471339154929665  0.3383219706736827  1.0000
  H   H505      1.0  0.28032441698974514  0.6476553707430883  0.3179743141578291  1.0000
  H   H506      1.0  0.3198479840078496  0.6836397310165239  0.3190977467239783  1.0000
  H   H507      1.0  0.2629030791884059  0.6396258133577938  0.36637607486501333  1.0000
  H   H508      1.0  0.23245147911766267  0.6393800784158283  0.3459115468618943  1.0000
  H   H509      1.0  0.23685530648516903  0.670032060019069  0.3670155602783015  1.0000
  H   H510      1.0  0.3168469359352924  0.688424953814888  0.36767028181142525  1.0000
  H   H511      1.0  0.29133428564755237  0.7194177033780208  0.3685730478211522  1.0000
  H   H512      1.0  0.32639311575415836  0.7249974884076279  0.3483920365926293  1.0000
