data_image0
_chemical_formula_structural       FeS2FeS2FeSFeS3FeS2FeS2FeSFeS3FeS2FeS2FeSFeS3FeS2FeS2FeSFeS3FeS2FeS2FeSFeS3FeS2FeS2FeSFeS3FeS2FeS2FeSFeS3FeS2FeS2FeSFeS3FeS2FeS2FeSFeS3FeS2FeS2FeSFeS3FeS2FeS2FeSFeS3FeS2FeS2FeSFeS3FeS2FeS2FeSFeS3FeS2FeS2FeSFeS3FeS2FeS2FeSFeS3FeS2FeS2FeSFeS3FeS2FeS2FeSFeS3FeS2FeS2FeSFeS3FeS2FeS2FeSFeS3FeS2FeS2FeSFeS3FeS2FeS2FeSFeS3FeS2FeS2FeSFeS3FeS2FeS2FeSFeS3FeS2FeS2FeSFeS3C6H4C6H4C6H4C6H4C6H4C6H4C6H4C6H4C6H4C6H4C6H4C6H4C6H4C6H4C6H4C6H4C6H4C6H4C6H4C6H4C6H4C6H4C6H4C6H4C6H4C6H4C6H4C6H4C6H4C6H4C6H4C6H4C6H4C6H4C6H4C6H4C6H4C6H4C6H4C6H4C6H4C6H4C6H4C6H4C6H4C6H4C6H4C6H4NC4H12NC4H12NC4H12NC4H12NC4H12NC4H12NC4H12NC4H12NC4H12NC4H12NC4H12NC4H12NC4H12NC4H12NC4H12NC4H12NC4H12NC4H12NC4H12NC4H12NC4H12NC4H12NC4H12NC4H12NC4H12NC4H12NC4H12NC4H12NC4H12NC4H12NC4H12NC4H12NC4H12NC4H12NC4H12NC4H12NC4H12NC4H12NC4H12NC4H12NC4H12NC4H12NC4H12NC4H12NC4H12NC4H12NC4H12NC4H12
_chemical_formula_sum              "Fe96 S192 C480 H768 N48"
_cell_length_a       53.30542414296439
_cell_length_b       53.28397846851469
_cell_length_c       43.48242319013996
_cell_angle_alpha    89.97171610362342
_cell_angle_beta     89.67482736733537
_cell_angle_gamma    119.36013430242473

_space_group_name_H-M_alt    "P 1"
_space_group_IT_number       1

loop_
  _space_group_symop_operation_xyz
  'x, y, z'

loop_
  _atom_site_type_symbol
  _atom_site_label
  _atom_site_symmetry_multiplicity
  _atom_site_fract_x
  _atom_site_fract_y
  _atom_site_fract_z
  _atom_site_occupancy
  Fe  Fe1       1.0  0.7574633691183137  0.9612283454786091  0.018997745157287804  1.0000
  S   S1        1.0  0.7133733970923031  0.9492785502093429  0.002291259628179443  1.0000
  S   S2        1.0  0.7720378190143705  0.9287578081650085  0.031437262412151945  1.0000
  Fe  Fe2       1.0  0.774631838459862  0.025319314158938896  0.02449367484076988  1.0000
  S   S3        1.0  0.7304167715035449  0.016715304788032362  0.010273227144336206  1.0000
  S   S4        1.0  0.8062027489103499  0.07331247529093018  0.02941557783717307  1.0000
  Fe  Fe3       1.0  0.7132499882870024  0.9774470468618862  0.04096951190049258  1.0000
  S   S5        1.0  0.6719923395616757  0.95650317806862  0.06994766523027898  1.0000
  Fe  Fe4       1.0  0.7346165988342946  0.9896972733983417  0.9733732677086657  1.0000
  S   S6        1.0  0.7271235275321892  0.992583578886521  0.9220692845391234  1.0000
  S   S7        1.0  0.7569618914187284  0.9885173704458459  0.05851221741997665  1.0000
  S   S8        1.0  0.7792087248888491  0.9991630256084643  0.9867302579347207  1.0000
  Fe  Fe5       1.0  0.21523172225199336  0.9489970012246914  0.00435614932130024  1.0000
  S   S9        1.0  0.25907876040298944  0.9582778777818088  0.02100368152561405  1.0000
  S   S10       1.0  0.18376152030423634  0.9029985687322163  0.9896972619251968  1.0000
  Fe  Fe6       1.0  0.23045231545344522  0.012477557291770438  0.008654556820299364  1.0000
  S   S11       1.0  0.2742244493900816  0.02555099237976229  0.027004849195577225  1.0000
  S   S12       1.0  0.21663744034469526  0.0447311535099463  0.9924871223776954  1.0000
  Fe  Fe7       1.0  0.27706622527528063  0.9974593547462839  0.9901721171008139  1.0000
  S   S13       1.0  0.3211760579780511  0.0211043377764557  0.966750594711146  1.0000
  Fe  Fe8       1.0  0.253074318308458  0.9855560631575678  0.05635861773821665  1.0000
  S   S14       1.0  0.2661235059090258  0.9892249794606472  0.10681218293617054  1.0000
  S   S15       1.0  0.23401848834258265  0.9858605820317715  0.9703853623982172  1.0000
  S   S16       1.0  0.20830862608790876  0.9745907767492447  0.04128371300767617  1.0000
  Fe  Fe9       1.0  0.20767158121337298  0.22444299885793004  0.013888516270519125  1.0000
  S   S17       1.0  0.2383622664190598  0.2691146998493468  0.9972240055017989  1.0000
  S   S18       1.0  0.15938550702207724  0.2033107205670782  0.023587497141945857  1.0000
  Fe  Fe10      1.0  0.25523685284348663  0.20840523266970448  0.01974977260943359  1.0000
  S   S19       1.0  0.2898302987185357  0.2522123384431742  0.0038675057117143474  1.0000
  S   S20       1.0  0.2666396597592869  0.174700714093528  0.03659767863417717  1.0000
  Fe  Fe11      1.0  0.2681425085893649  0.2701437233962069  0.034469853289782006  1.0000
  S   S21       1.0  0.29499209566267937  0.3131071134532773  0.0589395854106471  1.0000
  Fe  Fe12      1.0  0.25812256336569245  0.24836064105981076  0.9679252720537547  1.0000
  S   S22       1.0  0.26929088283550073  0.26347231453040804  0.9181048064790975  1.0000
  S   S23       1.0  0.23614083604007724  0.22680879890497202  0.053310754173073946  1.0000
  S   S24       1.0  0.22483445182175943  0.20317230510277393  0.9816205375232739  1.0000
  Fe  Fe13      1.0  0.030790516633634794  0.23725133026758702  0.0026675101567759096  1.0000
  S   S25       1.0  0.017823176806161148  0.271605081308615  0.008346804063796842  1.0000
  S   S26       1.0  0.07620305944303843  0.2524412850487872  0.9843149513147497  1.0000
  Fe  Fe14      1.0  0.9705099449755823  0.18873161334725722  0.02131436799471544  1.0000
  S   S27       1.0  0.9539466242910754  0.2195747446720858  0.02814819688610183  1.0000
  S   S28       1.0  0.9431734151894946  0.1407435325005755  0.031151620196987116  1.0000
  Fe  Fe15      1.0  0.9771035314072708  0.24033525791067625  0.983900417566289  1.0000
  S   S29       1.0  0.9505563040310065  0.24412280238132636  0.944976650887326  1.0000
  Fe  Fe16      1.0  0.9960321968171728  0.2476917538307751  0.05208665649600472  1.0000
  S   S30       1.0  0.9928059100337372  0.2604452995870829  0.10151123925510874  1.0000
  S   S31       1.0  0.9912843371156523  0.2074489101535322  0.9757844421504263  1.0000
  S   S32       1.0  0.011534344799717105  0.21544651050438263  0.04758823620779475  1.0000
  Fe  Fe17      1.0  0.9587449631266528  0.7303620701798689  0.026239424624676915  1.0000
  S   S33       1.0  0.9691459656513991  0.6964443179121526  0.009058866467883009  1.0000
  S   S34       1.0  0.9118877453206521  0.7144242552795627  0.03993737710101363  1.0000
  Fe  Fe18      1.0  0.021471031044062866  0.7788421921196735  0.018197856391886535  1.0000
  S   S35       1.0  0.03532113765780238  0.7485660730121373  0.9989954433430848  1.0000
  S   S36       1.0  0.05206141190831317  0.8258150599383658  0.03035976707005661  1.0000
  Fe  Fe19      1.0  0.9940666368243583  0.72873587168471  0.9721640642826419  1.0000
  S   S37       1.0  0.9927383390670095  0.7199405569454448  0.9206926507526451  1.0000
  Fe  Fe20      1.0  0.009317122773777371  0.7190684350488323  0.037852829310730425  1.0000
  S   S38       1.0  0.03310381296456259  0.6997840327594562  0.06376754475904622  1.0000
  S   S39       1.0  0.9821464557599437  0.7618343503383972  0.9881408587948182  1.0000
  S   S40       1.0  0.9967965518248516  0.750055857331955  0.05814013280060035  1.0000
  Fe  Fe21      1.0  0.7850055431510172  0.7507221843751981  0.0059829052800626226  1.0000
  S   S41       1.0  0.7531036165818714  0.70666269656142  0.023315643076295408  1.0000
  S   S42       1.0  0.8334579271871434  0.7685139083680237  0.9999568963585307  1.0000
  Fe  Fe22      1.0  0.7385376042329072  0.7689836272957329  0.9991738029697436  1.0000
  S   S43       1.0  0.7035760769352931  0.7259680386512716  0.016255472523767134  1.0000
  S   S44       1.0  0.7235075363309282  0.8001030099822896  0.9826533781434926  1.0000
  Fe  Fe23      1.0  0.7350919391035293  0.729400515869665  0.052219261963408425  1.0000
  S   S45       1.0  0.7292030693400485  0.7233144297457934  0.10421910183313977  1.0000
  Fe  Fe24      1.0  0.7243888587093718  0.707116414908473  0.9856610993984111  1.0000
  S   S46       1.0  0.6962204627741554  0.6664748994499952  0.958229881343318  1.0000
  S   S47       1.0  0.7689098481233155  0.7737654236621282  0.03705762971254626  1.0000
  S   S48       1.0  0.7574523730840518  0.749777360522846  0.9662975238951638  1.0000
  Fe  Fe25      1.0  0.9121170834995617  0.5924532641275911  0.801161779527309  1.0000
  S   S49       1.0  0.8837529812820722  0.5460358114679477  0.7878691471029303  1.0000
  S   S50       1.0  0.9114183362139971  0.6018551596441037  0.8522327922865678  1.0000
  Fe  Fe26      1.0  0.935348210877621  0.6096988587326132  0.7350072751001034  1.0000
  S   S51       1.0  0.9103582142408594  0.5642112662594803  0.7175905497967052  1.0000
  S   S52       1.0  0.9612930967351548  0.6516612885602254  0.7083070381171334  1.0000
  Fe  Fe27      1.0  0.8740192778916163  0.5633811391719817  0.7452904531158812  1.0000
  S   S53       1.0  0.8312632893779904  0.548193573455551  0.7218674816811415  1.0000
  Fe  Fe28      1.0  0.9222539896352824  0.5502778349660654  0.7619117446325852  1.0000
  S   S54       1.0  0.9388941659062732  0.5192912559509216  0.7755231024856623  1.0000
  S   S55       1.0  0.8984364169318796  0.6091666600499049  0.760927037938444  1.0000
  S   S56       1.0  0.9510612098165311  0.5964559434336276  0.7767851818259414  1.0000
  Fe  Fe29      1.0  0.9391049592717795  0.3254570499853209  0.7994523801447201  1.0000
  S   S57       1.0  0.905357208731834  0.3387322542422368  0.8069182651137088  1.0000
  S   S58       1.0  0.9724773803599245  0.3335981931591208  0.8363835074584919  1.0000
  Fe  Fe30      1.0  0.9188576944393537  0.30319607645481245  0.7347516949472265  1.0000
  S   S59       1.0  0.8832832286889335  0.31404772658182817  0.7381227779426321  1.0000
  S   S60       1.0  0.9166960762022646  0.2792564416511611  0.6904321931774584  1.0000
  Fe  Fe31      1.0  0.9153442471320983  0.35640988577883  0.7586790257907504  1.0000
  S   S61       1.0  0.907521529913088  0.39106611165395483  0.7362622930396266  1.0000
  Fe  Fe32      1.0  0.8754038620649647  0.29598504027530087  0.7855713448825142  1.0000
  S   S62       1.0  0.829950997288047  0.27078591804764496  0.8045023544544198  1.0000
  S   S63       1.0  0.9519036131794347  0.34668371947135823  0.7523216973586949  1.0000
  S   S64       1.0  0.9082943266034335  0.2814055258018033  0.7812735487142073  1.0000
  Fe  Fe33      1.0  0.6734057984783901  0.6097352973432412  0.78568286297665  1.0000
  S   S65       1.0  0.6684119944712881  0.5688991859428226  0.8057060592261437  1.0000
  S   S66       1.0  0.683015738717482  0.6501594746970926  0.812933159148164  1.0000
  Fe  Fe34      1.0  0.6744456078882436  0.5898690118681695  0.7199032660313321  1.0000
  S   S67       1.0  0.6698513213503962  0.5472127387677463  0.7356599588377208  1.0000
  S   S68       1.0  0.6800522719048243  0.5997240754085289  0.6683102713534402  1.0000
  Fe  Fe35      1.0  0.6359305279380981  0.5453424324763105  0.7683502349761424  1.0000
  S   S69       1.0  0.5978627857327582  0.502630153288862  0.7856099252087769  1.0000
  Fe  Fe36      1.0  0.7021975389671997  0.5733597143639245  0.7716358526128394  1.0000
  S   S70       1.0  0.7392555528133449  0.5699039595085691  0.7928415161483018  1.0000
  S   S71       1.0  0.6383876704437865  0.5864770604177996  0.7504469781074372  1.0000
  S   S72       1.0  0.7092934914217187  0.6157972061842327  0.7536899144870611  1.0000
  Fe  Fe37      1.0  0.6845317303032493  0.07984700059677659  0.8023194656168201  1.0000
  S   S73       1.0  0.6737946761999393  0.11428216162630049  0.7874096394106186  1.0000
  S   S74       1.0  0.6955221439652094  0.07937852897716204  0.8530093906024698  1.0000
  Fe  Fe38      1.0  0.6808985294919915  0.05793495511700791  0.736134552539982  1.0000
  S   S75       1.0  0.6705983498036673  0.09078120606785772  0.7169768291176424  1.0000
  S   S76       1.0  0.68396765544725  0.023197143322059535  0.7084329554555401  1.0000
  Fe  Fe39      1.0  0.7049532361726895  0.12187606213578686  0.7486387884429277  1.0000
  S   S77       1.0  0.7408814913496446  0.162730719703521  0.7276781563435729  1.0000
  Fe  Fe40      1.0  0.6398893669807915  0.07996863734468272  0.7572127271333756  1.0000
  S   S78       1.0  0.5929090327530824  0.06590743195888672  0.7445427178875577  1.0000
  S   S79       1.0  0.7174547782257547  0.08964228464667445  0.7651292603626281  1.0000
  S   S80       1.0  0.648621454628303  0.04512145123823629  0.7749761539511305  1.0000
  Fe  Fe41      1.0  0.38739082596901314  0.051953932570118364  0.7977056659676093  1.0000
  S   S81       1.0  0.42587605455084904  0.09209956250482765  0.8140704093912391  1.0000
  S   S82       1.0  0.3504895219331338  0.015952830802200512  0.8249006688702721  1.0000
  Fe  Fe42      1.0  0.40218532104467863  0.06874689911370606  0.7301119838701841  1.0000
  S   S83       1.0  0.44183603423279555  0.11098430532231193  0.741139755113826  1.0000
  S   S84       1.0  0.38997847354824833  0.051802140737511396  0.6810863529316636  1.0000
  Fe  Fe43      1.0  0.45154044951473504  0.08570001659048206  0.7762732040086326  1.0000
  S   S85       1.0  0.4983682777895666  0.10001810825991836  0.7897681991726931  1.0000
  Fe  Fe44      1.0  0.4144415648699246  0.11508286581034521  0.7781958815594686  1.0000
  S   S86       1.0  0.41182280548429995  0.15331544443666603  0.7971778736588755  1.0000
  S   S87       1.0  0.4136559181597716  0.04306152362633348  0.762870264130504  1.0000
  S   S88       1.0  0.37409723210412815  0.07526968453966007  0.7641234963422793  1.0000
  Fe  Fe45      1.0  0.4037554562423327  0.3174324052166939  0.8043053195200216  1.0000
  S   S89       1.0  0.450517903872862  0.3366005330987924  0.7904448445792652  1.0000
  S   S90       1.0  0.3920330610702094  0.3073050472728343  0.8550845872170827  1.0000
  Fe  Fe46      1.0  0.3831384917749082  0.3091766226470589  0.7376054745842344  1.0000
  S   S91       1.0  0.427926185186425  0.32758257393478485  0.7186150698733548  1.0000
  S   S92       1.0  0.34003771647808456  0.2857235575544138  0.7127241499784097  1.0000
  Fe  Fe47      1.0  0.43485691828200357  0.3016905871156963  0.7549219847988313  1.0000
  S   S93       1.0  0.45975316744847483  0.27898218607735553  0.7412967465419388  1.0000
  Fe  Fe48      1.0  0.44127202940138843  0.3617869717662535  0.7552243179083457  1.0000
  S   S94       1.0  0.47335326265276717  0.4073323568796234  0.7381928913717168  1.0000
  S   S95       1.0  0.3892031209287209  0.28054454587796984  0.7713911602467007  1.0000
  S   S96       1.0  0.39526192175881036  0.34529273980611364  0.7716954879112203  1.0000
  Fe  Fe49      1.0  0.7320200278653152  0.00475663679192852  0.538890571775686  1.0000
  S   S97       1.0  0.7646617993426034  0.9946621219237827  0.5592393580256226  1.0000
  S   S98       1.0  0.7105025872830057  0.026587013710643998  0.5646384723738198  1.0000
  Fe  Fe50      1.0  0.7405199236555179  0.9873842573862472  0.47375773374023344  1.0000
  S   S99       1.0  0.7750988496738397  0.9776824994085288  0.4897413771733714  1.0000
  S   S100      1.0  0.7290683825509199  0.9764979496475892  0.4231295608454433  1.0000
  Fe  Fe51      1.0  0.745219306689726  0.9551339058297232  0.5291609423284378  1.0000
  S   S101      1.0  0.730626881038917  0.908802863687307  0.5438985026629488  1.0000
  Fe  Fe52      1.0  0.7918902084518105  0.018233311610945845  0.5178934363408436  1.0000
  S   S102      1.0  0.8395013959720229  0.048857313658890185  0.5272873094869195  1.0000
  S   S103      1.0  0.7098792459608849  0.963265245115294  0.5122494088286786  1.0000
  S   S104      1.0  0.7600922045509056  0.030047199237385372  0.4985872946829138  1.0000
  Fe  Fe53      1.0  0.2601673052243411  0.0008286326082648869  0.5598363018268246  1.0000
  S   S105      1.0  0.2260580321406093  0.011637137903065333  0.5448394725200165  1.0000
  S   S106      1.0  0.27192983952782723  0.012206344641842464  0.6103479269133806  1.0000
  Fe  Fe54      1.0  0.26542012825069494  0.9812468545003911  0.4943022643232048  1.0000
  S   S107      1.0  0.23351324968935624  0.9930235213503844  0.47539218969990493  1.0000
  S   S108      1.0  0.27851534081227614  0.9536191028170063  0.46544649243810027  1.0000
  Fe  Fe55      1.0  0.25533632478606516  0.03287472612704332  0.504615701865042  1.0000
  S   S109      1.0  0.27156104577514145  0.07933773513953511  0.4894471859550796  1.0000
  Fe  Fe56      1.0  0.20720968402269319  0.97051614525628  0.5175380664930206  1.0000
  S   S110      1.0  0.15945426445634853  0.9399814276027689  0.5090629739252338  1.0000
  S   S111      1.0  0.2900598992572464  0.023148052071935717  0.5201015544859142  1.0000
  S   S112      1.0  0.23846581130105657  0.9577080168819242  0.5359894720297063  1.0000
  Fe  Fe57      1.0  0.27713921942239694  0.26865661268179875  0.5414373533195386  1.0000
  S   S113      1.0  0.230860955382376  0.2346743843379143  0.5495396254214193  1.0000
  S   S114      1.0  0.3148768860709219  0.29851841713581617  0.5717695599718413  1.0000
  Fe  Fe58      1.0  0.2725204174871112  0.26231907663952064  0.47143925274388  1.0000
  S   S115      1.0  0.22643667287053415  0.22695451041763537  0.473544207379842  1.0000
  S   S116      1.0  0.3008940853758447  0.28010442702487953  0.4285521020147152  1.0000
  Fe  Fe59      1.0  0.22003845541926806  0.25403314729707316  0.5090695407040129  1.0000
  S   S117      1.0  0.1833603480388336  0.26337143117165474  0.49963733829089024  1.0000
  Fe  Fe60      1.0  0.23951928885928198  0.20912830471885768  0.5135264993803885  1.0000
  S   S118      1.0  0.2182216538674004  0.16063146560738786  0.5214739994373117  1.0000
  S   S119      1.0  0.26549421054556616  0.29060139046339234  0.504220859678769  1.0000
  S   S120      1.0  0.28627284097218947  0.24171917906247634  0.5081995575298777  1.0000
  Fe  Fe61      1.0  0.9993930429444455  0.26748918476750816  0.5440624137759408  1.0000
  S   S121      1.0  0.9841582221234106  0.22056178550733774  0.5523980174233072  1.0000
  S   S122      1.0  0.006842616115573241  0.29884027247260375  0.5833262674932351  1.0000
  Fe  Fe62      1.0  0.01397609717525296  0.263835695350035  0.4756793921296116  1.0000
  S   S123      1.0  0.0008252128170421117  0.21684793579390094  0.4805528234921166  1.0000
  S   S124      1.0  0.0342183335170121  0.28282611507522043  0.42896418219380433  1.0000
  Fe  Fe63      1.0  0.9624596667638412  0.21315619094392765  0.506379970163568  1.0000
  S   S125      1.0  0.9168429797744552  0.18159711096562836  0.4906600445445325  1.0000
  Fe  Fe64      1.0  0.024026640407695168  0.22876835512014765  0.52569818691671  1.0000
  S   S126      1.0  0.053642162533172624  0.21341596417720146  0.5459134952349631  1.0000
  S   S127      1.0  0.9748075015039049  0.25999615617151023  0.49983828526404966  1.0000
  S   S128      1.0  0.03997281930281457  0.2758092592720942  0.5190690202592341  1.0000
  Fe  Fe65      1.0  0.004653651903272471  0.7369891734840659  0.4702874787268995  1.0000
  S   S129      1.0  0.015452332536216766  0.7816881163476794  0.48525641326893665  1.0000
  S   S130      1.0  0.004891973367171292  0.7289908468305144  0.4187187837822145  1.0000
  Fe  Fe66      1.0  0.9907029127145843  0.713681767084682  0.5365270313961757  1.0000
  S   S131      1.0  0.000706103295356586  0.7565473425292061  0.5560717823293972  1.0000
  S   S132      1.0  0.9763414645150272  0.6719962751057648  0.5633643113460157  1.0000
  Fe  Fe67      1.0  0.9759182288874321  0.7593618482125921  0.5155265419171325  1.0000
  S   S133      1.0  0.945926760548117  0.7783314208604124  0.5201792363315451  1.0000
  Fe  Fe68      1.0  0.03923130677405141  0.7752926223244881  0.5241316470393126  1.0000
  S   S134      1.0  0.08462792740500591  0.8059006317136701  0.5413636487088254  1.0000
  S   S135      1.0  0.9634268434209028  0.7152483551320815  0.4978989882802538  1.0000
  S   S136      1.0  0.030949016957399676  0.7318435793284329  0.5072479181157024  1.0000
  Fe  Fe69      1.0  0.7424847558766929  0.731387020895899  0.5536936296503491  1.0000
  S   S137      1.0  0.7871401044210775  0.7641326201512276  0.5383235973964815  1.0000
  S   S138      1.0  0.7307967021899021  0.7231948132450069  0.6045223290018679  1.0000
  Fe  Fe70      1.0  0.7188909229349499  0.7210734991346344  0.48782651952976236  1.0000
  S   S139      1.0  0.7618875009568165  0.7526675419352347  0.467459703703807  1.0000
  S   S140      1.0  0.6746888023897294  0.6976134366579096  0.4652327425336684  1.0000
  Fe  Fe71      1.0  0.7805604427749656  0.7331704984772807  0.5001921473777268  1.0000
  S   S141      1.0  0.8123583721411303  0.7178578578578674  0.48693910060762013  1.0000
  Fe  Fe72      1.0  0.7651970316203809  0.78132553441539  0.5072821752392077  1.0000
  S   S142      1.0  0.7833142918892799  0.8297159499926051  0.5005834187379549  1.0000
  S   S143      1.0  0.7369033756130994  0.6991249787599515  0.5175743292825005  1.0000
  S   S144      1.0  0.7212377206921424  0.7511093094467904  0.5256063882341726  1.0000
  Fe  Fe73      1.0  0.6128656911427635  0.9282426065933362  0.24249968146750459  1.0000
  S   S145      1.0  0.5688889024727178  0.8958696772807911  0.2263357146436638  1.0000
  S   S146      1.0  0.6544284876885709  0.9561721057979078  0.2155759054592679  1.0000
  Fe  Fe74      1.0  0.5946779333280101  0.9184072611154065  0.31003027000399047  1.0000
  S   S147      1.0  0.5489395988377027  0.884766020278405  0.2993943693375167  1.0000
  S   S148      1.0  0.607568968001324  0.9342438404996367  0.3591746713233112  1.0000
  Fe  Fe75      1.0  0.569061520407448  0.868077581612095  0.2652040435890517  1.0000
  S   S149      1.0  0.5472462388990348  0.820258816216073  0.2547503249236507  1.0000
  Fe  Fe76      1.0  0.5507388408225914  0.9140933154103476  0.2613513790475343  1.0000
  S   S150      1.0  0.5137770689466202  0.9214645884731454  0.24517377414365724  1.0000
  S   S151      1.0  0.6145857871553524  0.8990675094745239  0.2791136020858109  1.0000
  S   S152      1.0  0.595121992093535  0.949248761018194  0.27436013584637214  1.0000
  Fe  Fe77      1.0  0.3233971860207713  0.9183112190686405  0.2306743764299883  1.0000
  S   S153      1.0  0.31799857476639753  0.875181073539324  0.24521648526418782  1.0000
  S   S154      1.0  0.3199540150362502  0.9225305659842208  0.17873527687361077  1.0000
  Fe  Fe78      1.0  0.3275721891118025  0.9379866701945552  0.2980805162753973  1.0000
  S   S155      1.0  0.3215408123894405  0.8961617082579367  0.31630232688152565  1.0000
  S   S156      1.0  0.3334006383772626  0.9739723646076791  0.33052935172530423  1.0000
  Fe  Fe79      1.0  0.35345413321773006  0.900251346829349  0.2792973513252892  1.0000
  S   S157      1.0  0.38876063315370096  0.8909122245533915  0.2967990914179034  1.0000
  Fe  Fe80      1.0  0.28717408240857983  0.8754571084372053  0.2804616551998249  1.0000
  S   S158      1.0  0.24002332831560408  0.843341359248101  0.2892089545578635  1.0000
  S   S159      1.0  0.36099722565516956  0.9434135755439178  0.26237497307226154  1.0000
  S   S160      1.0  0.2912135229920632  0.9173961697181484  0.2645898665270302  1.0000
  Fe  Fe81      1.0  0.32338287953662204  0.37837027004408375  0.22889052351968928  1.0000
  S   S161      1.0  0.3409614033599897  0.4236093685830723  0.21103170210634334  1.0000
  S   S162      1.0  0.30859180694355604  0.3356255319077993  0.20395699891941788  1.0000
  Fe  Fe82      1.0  0.3220314067549104  0.39618484639205104  0.2960214979278006  1.0000
  S   S163      1.0  0.3386306242919689  0.442709003535257  0.2830256945883853  1.0000
  S   S164      1.0  0.30882683023315677  0.3831078875722493  0.3460788456614636  1.0000
  Fe  Fe83      1.0  0.3082707442184946  0.4252938721924919  0.24304665283883034  1.0000
  S   S165      1.0  0.27986277553680144  0.44316897127512045  0.22642126585398484  1.0000
  Fe  Fe84      1.0  0.3702412992491714  0.4379533084995414  0.2524580219779259  1.0000
  S   S166      1.0  0.41935573083416344  0.46795230270530713  0.25313905475922804  1.0000
  S   S167      1.0  0.28914253100795856  0.3794676990741776  0.25842043354310107  1.0000
  S   S168      1.0  0.35521268320077515  0.39209454854770237  0.2679565803424545  1.0000
  Fe  Fe85      1.0  0.11950908610349648  0.4022716963436633  0.2704220107923246  1.0000
  S   S169      1.0  0.07829468513076449  0.36265150082937175  0.2579287838597354  1.0000
  S   S170      1.0  0.15713606498695915  0.3984645096011083  0.2885650194811088  1.0000
  Fe  Fe86      1.0  0.09407501688573716  0.44303895160251844  0.2623129348814038  1.0000
  S   S171      1.0  0.05114541827956402  0.4063921172491572  0.24801761071788572  1.0000
  S   S172      1.0  0.10879382223713324  0.4898735419885973  0.2755307268034283  1.0000
  Fe  Fe87      1.0  0.05663390310049384  0.3815078718684893  0.2872297192063458  1.0000
  S   S173      1.0  0.022387812689182243  0.36099219421349715  0.3247638780058296  1.0000
  Fe  Fe88      1.0  0.076391874395093  0.390450455360255  0.22000118087058487  1.0000
  S   S174      1.0  0.07357752988649353  0.37945570217226815  0.1690697325914761  1.0000
  S   S175      1.0  0.098052801296679  0.4187765153031246  0.3025328037039972  1.0000
  S   S176      1.0  0.11914326012834799  0.4293005488770325  0.23133061954420503  1.0000
  Fe  Fe89      1.0  0.6015158880414456  0.6644669803908605  0.22653952573158903  1.0000
  S   S177      1.0  0.5649575598044142  0.6723986913699939  0.2391633541892286  1.0000
  S   S178      1.0  0.6081239478338287  0.6611256820476499  0.17507017163360133  1.0000
  Fe  Fe90      1.0  0.6136747471182873  0.659020475222506  0.29474213381030556  1.0000
  S   S179      1.0  0.5769656072083208  0.6649083829792333  0.3113858570908798  1.0000
  S   S180      1.0  0.6478660297440202  0.6579002075558419  0.3251132369844917  1.0000
  Fe  Fe91      1.0  0.5514400037655441  0.6352641856676924  0.27232891829343336  1.0000
  S   S181      1.0  0.5026448914785663  0.603507242205806  0.2728129660612619  1.0000
  Fe  Fe92      1.0  0.5933469303534195  0.7009161395609432  0.27664618594741386  1.0000
  S   S182      1.0  0.6063248055346052  0.7461508669854774  0.2930702581366199  1.0000
  S   S183      1.0  0.5871029253339398  0.6263631280484271  0.2584539582268823  1.0000
  S   S184      1.0  0.6309865145254017  0.6959460528916305  0.26120535295895797  1.0000
  Fe  Fe93      1.0  0.12483418287936075  0.6845638868770128  0.25771327547339723  1.0000
  S   S185      1.0  0.09562090429156656  0.7017194213442401  0.27217855012986364  1.0000
  S   S186      1.0  0.1731635444119446  0.7116554842654617  0.2513842155380083  1.0000
  Fe  Fe94      1.0  0.07626809404827352  0.6216389651539282  0.2555762085772809  1.0000
  S   S187      1.0  0.04346296943289801  0.6344456930175205  0.2704085955330212  1.0000
  S   S188      1.0  0.05859108468935586  0.5741721565524073  0.24248539406976438  1.0000
  Fe  Fe95      1.0  0.06538683453812272  0.6711471680669974  0.2366522619102606  1.0000
  S   S189      1.0  0.0361322267137347  0.682208266294615  0.2085382762864399  1.0000
  Fe  Fe96      1.0  0.07606744425876727  0.6639072143630821  0.30448444020682136  1.0000
  S   S190      1.0  0.06913899724324046  0.6675609451566213  0.3557347565349995  1.0000
  S   S191      1.0  0.096213989699529  0.6567973359780864  0.21963513552748143  1.0000
  S   S192      1.0  0.1073912481495011  0.6483522976226184  0.2922930383332985  1.0000
  C   C1        1.0  0.09457727604063566  0.5129399974245146  0.2655336062857756  1.0000
  C   C2        1.0  0.0699732792922813  0.503682325622798  0.24744294662557284  1.0000
  C   C3        1.0  0.05927780614804522  0.5226547460544048  0.24071663352770278  1.0000
  C   C4        1.0  0.07301300630818702  0.5511313276149759  0.25183367492425823  1.0000
  C   C5        1.0  0.09751460860806578  0.5602941185605508  0.2700575985537184  1.0000
  C   C6        1.0  0.10814063306484725  0.541300787280702  0.27688824115034777  1.0000
  H   H1        1.0  0.05932506961595518  0.4820427125179513  0.23833531417163048  1.0000
  H   H2        1.0  0.04037638597382101  0.5153005276862361  0.22652027055428087  1.0000
  H   H3        1.0  0.10836199517201665  0.5820819633803517  0.2787899336035691  1.0000
  H   H4        1.0  0.12715425631316513  0.5487834225537435  0.29092560391263894  1.0000
  C   C7        1.0  0.24524625213001597  0.4295134465006341  0.24286759382144466  1.0000
  C   C8        1.0  0.23779992497329439  0.4133988774140689  0.2700545707459468  1.0000
  C   C9        1.0  0.210530853303595  0.4037369091086333  0.28344756553734435  1.0000
  C   C10       1.0  0.19035622677950043  0.4097731996069213  0.26962900043785404  1.0000
  C   C11       1.0  0.19752006890951063  0.4254402529398357  0.24208106966324827  1.0000
  C   C12       1.0  0.22500744033344713  0.4354787087750619  0.22890040636721437  1.0000
  H   H5        1.0  0.25327659737781116  0.40885065390020003  0.2811069317831182  1.0000
  H   H6        1.0  0.20516418221837965  0.3916933954260686  0.3048032278558482  1.0000
  H   H7        1.0  0.18209436373572668  0.4300290336730095  0.23104600959979246  1.0000
  H   H8        1.0  0.2307167970560463  0.447935692123727  0.20782095440999396  1.0000
  C   C13       1.0  0.4421291186303698  0.5059200372285353  0.2573774426578803  1.0000
  C   C14       1.0  0.4312947106869037  0.5250345345220612  0.25980884980422503  1.0000
  C   C15       1.0  0.45015246819128324  0.5546733193636703  0.26468663161745676  1.0000
  C   C16       1.0  0.48010434046799233  0.565755384757796  0.26698322133057495  1.0000
  C   C17       1.0  0.4909779393645866  0.5466818846495971  0.2642826788653126  1.0000
  C   C18       1.0  0.4721027267649702  0.5170164683596447  0.25949759078859874  1.0000
  H   H9        1.0  0.4083789277646552  0.5170216468931058  0.25792959541084015  1.0000
  H   H10       1.0  0.44146043535332397  0.5691986400007131  0.266577314753739  1.0000
  H   H11       1.0  0.5138823584816331  0.5546917357716893  0.2662706497210015  1.0000
  H   H12       1.0  0.4807930328075601  0.5024843730142698  0.2577174273976511  1.0000
  C   C19       1.0  0.22217438830915273  0.8072976933972533  0.27675468455973484  1.0000
  C   C20       1.0  0.1919639478174874  0.7924612018180531  0.2762915544267127  1.0000
  C   C21       1.0  0.17675234935190648  0.7633859926057315  0.2675974856418478  1.0000
  C   C22       1.0  0.19163445995990622  0.7487632640835516  0.259912964915881  1.0000
  C   C23       1.0  0.22187145819262033  0.7637753717937247  0.2597250012283419  1.0000
  C   C24       1.0  0.2371521384765394  0.7930351608473524  0.26798150466391246  1.0000
  H   H13       1.0  0.18027692840621695  0.8035078784603735  0.28275751903219504  1.0000
  H   H14       1.0  0.15353215380779944  0.7522328314895496  0.2669597794926979  1.0000
  H   H15       1.0  0.23351331047301796  0.752583110999124  0.2536454272790394  1.0000
  H   H16       1.0  0.26044420317219724  0.8042891814744271  0.26830971073045334  1.0000
  C   C25       1.0  0.47950043978074197  0.913508548538275  0.260659128230343  1.0000
  C   C26       1.0  0.4689570800895578  0.8990440538150994  0.2886840218171497  1.0000
  C   C27       1.0  0.44121884763944025  0.8923510885086214  0.2992709594172553  1.0000
  C   C28       1.0  0.42363828010132293  0.9000906126877689  0.2821671521606828  1.0000
  C   C29       1.0  0.4342363022804999  0.9146735152162114  0.2542487132555549  1.0000
  C   C30       1.0  0.46190081906785574  0.9212202716754331  0.2435817961960888  1.0000
  H   H17       1.0  0.48217278923471635  0.8930880602448981  0.3022709121786489  1.0000
  H   H18       1.0  0.4333340055861546  0.8810893526292137  0.32091568011290056  1.0000
  H   H19       1.0  0.4210891788795461  0.920792602204484  0.24074767987685203  1.0000
  H   H20       1.0  0.4697284757145224  0.9323680532153081  0.22185544452500816  1.0000
  C   C31       1.0  0.5641964198989392  0.8000036301590152  0.26487366997021533  1.0000
  C   C32       1.0  0.5520920997441204  0.7711854912841153  0.25537217616694297  1.0000
  C   C33       1.0  0.564903271261962  0.7544330494912813  0.2634667047470637  1.0000
  C   C34       1.0  0.589799769432524  0.7663739180938228  0.28136923360170485  1.0000
  C   C35       1.0  0.6018716765460969  0.795175840185467  0.2908609069050614  1.0000
  C   C36       1.0  0.5892185072111632  0.8119705763014213  0.28255821869220804  1.0000
  H   H21       1.0  0.5327351195320063  0.7617618306543048  0.24170148705133526  1.0000
  H   H22       1.0  0.5553980122699317  0.7322626565744134  0.25609802202280624  1.0000
  H   H23       1.0  0.6211007450330693  0.8045685224230517  0.3047124104200812  1.0000
  H   H24       1.0  0.5986740227783478  0.8340805512875662  0.2900667132263994  1.0000
  C   C37       1.0  0.6550748081908101  0.6695008256732925  0.36392314108398427  1.0000
  C   C38       1.0  0.6823119041520225  0.677438436983574  0.37622446499272194  1.0000
  C   C39       1.0  0.6888518984674045  0.6865301309848445  0.40702819660341133  1.0000
  C   C40       1.0  0.6679242453262485  0.6871288006303653  0.42607779813580715  1.0000
  C   C41       1.0  0.640591627273633  0.6789412941908742  0.41386899832556423  1.0000
  C   C42       1.0  0.6343059747895649  0.6705756910335177  0.3828416059625417  1.0000
  H   H25       1.0  0.6984615075600686  0.6764987812656307  0.36183136854704445  1.0000
  H   H26       1.0  0.7099081527067851  0.6925656605805187  0.41613869361059735  1.0000
  H   H27       1.0  0.6241962091114589  0.6791855853692894  0.42843873748051464  1.0000
  H   H28       1.0  0.6131845920989663  0.6642801772269914  0.37376738878629556  1.0000
  C   C43       1.0  0.05153318166868048  0.6851808094047817  0.3725948437893779  1.0000
  C   C44       1.0  0.03839365011617654  0.6973444623221899  0.35484678724245033  1.0000
  C   C45       1.0  0.02435251123671826  0.7108144777909301  0.3692979902813366  1.0000
  C   C46       1.0  0.023508984284914963  0.7124977913830106  0.40156304736111603  1.0000
  C   C47       1.0  0.03707400311614495  0.7007415803077894  0.4192557021064805  1.0000
  C   C48       1.0  0.05093300042666927  0.6871086324229043  0.4048249019021662  1.0000
  H   H29       1.0  0.03865979228351457  0.6960129598871755  0.33003021128903987  1.0000
  H   H30       1.0  0.013927948459895756  0.7198163590764574  0.3553849142370546  1.0000
  H   H31       1.0  0.036493918651242664  0.70173946695203  0.4440781475117273  1.0000
  H   H32       1.0  0.060925618420537904  0.6776812914441479  0.41878318879009924  1.0000
  C   C49       1.0  0.9083707200902752  0.7605105662541006  0.5127072132722306  1.0000
  C   C50       1.0  0.8933160734420371  0.7316339453537227  0.5037251873284225  1.0000
  C   C51       1.0  0.8638524353556813  0.7187892613908489  0.4962919082691023  1.0000
  C   C52       1.0  0.8489593346504605  0.7344360027644258  0.4984229119478917  1.0000
  C   C53       1.0  0.8638510161318322  0.7630801892750577  0.5082006886454217  1.0000
  C   C54       1.0  0.8934253770161438  0.7760601381609346  0.515104415473653  1.0000
  H   H33       1.0  0.9043627212589409  0.7192362522540046  0.5024976070736641  1.0000
  H   H34       1.0  0.8524476733184588  0.6965525604961812  0.4889923682251958  1.0000
  H   H35       1.0  0.8527334079645134  0.7754176180166612  0.5098115310814983  1.0000
  H   H36       1.0  0.9048500937675178  0.7983780698340089  0.5221285350929887  1.0000
  C   C55       1.0  0.026099214560582625  0.339872429176462  0.35419311216544414  1.0000
  C   C56       1.0  0.006930325339661773  0.3303795948627506  0.3794357149126465  1.0000
  C   C57       1.0  0.009328759269401033  0.3133868270552405  0.4029805660773185  1.0000
  C   C58       1.0  0.03074297008953688  0.3054399140653209  0.40123258967153114  1.0000
  C   C59       1.0  0.049766912741805835  0.31488298693307865  0.375942757589397  1.0000
  C   C60       1.0  0.047629442409863734  0.3321443672829024  0.35269319165422364  1.0000
  H   H37       1.0  0.9902120334534009  0.33626183787778546  0.38083816200082965  1.0000
  H   H38       1.0  0.9946383464497014  0.3064347154518338  0.42237483060183034  1.0000
  H   H39       1.0  0.06641867117909055  0.3088934364765685  0.37436125906331413  1.0000
  H   H40       1.0  0.06254314146147517  0.33925826038010914  0.3334757156926622  1.0000
  C   C61       1.0  0.30677982750259536  0.3541259387381164  0.36828214995118  1.0000
  C   C62       1.0  0.3241220900463705  0.34172873603391507  0.36209586103460206  1.0000
  C   C63       1.0  0.3219347272260831  0.3189747705562161  0.38061601903301023  1.0000
  C   C64       1.0  0.30269167372551953  0.30861053285636  0.4057372501347291  1.0000
  C   C65       1.0  0.28565051456153323  0.3212575254746521  0.4121434101419991  1.0000
  C   C66       1.0  0.2877776973679432  0.3439282825533834  0.3935676593242911  1.0000
  H   H41       1.0  0.3396037204567774  0.3500273758548452  0.3434429135789049  1.0000
  H   H42       1.0  0.3354193561148471  0.3095190283906979  0.3756505480161403  1.0000
  H   H43       1.0  0.2707910883983403  0.31359750683772564  0.4314246935210877  1.0000
  H   H44       1.0  0.2744899546121879  0.3535609299131476  0.39882536648297867  1.0000
  C   C67       1.0  0.14773096603964278  0.2496584308486667  0.5138672207530658  1.0000
  C   C68       1.0  0.13703666097763528  0.23082904680674793  0.5390241573407669  1.0000
  C   C69       1.0  0.10815713970517199  0.21981489140394014  0.5486041684450789  1.0000
  C   C70       1.0  0.08988052933217108  0.22783486445110646  0.533412405346012  1.0000
  C   C71       1.0  0.10076813104019372  0.247047998943301  0.508666518627474  1.0000
  C   C72       1.0  0.1294873379994646  0.257806862692926  0.49894429396834666  1.0000
  H   H45       1.0  0.15107189181915195  0.2249844515012849  0.5511562779475383  1.0000
  H   H46       1.0  0.09997093704027817  0.20513144920940798  0.5679420967406889  1.0000
  H   H47       1.0  0.08701223669188746  0.2534545624440782  0.4967678045528913  1.0000
  H   H48       1.0  0.13759594544339906  0.2724868623472078  0.4795709016348575  1.0000
  C   C73       1.0  0.31632285907835417  0.9676495129662267  0.3671896948407905  1.0000
  C   C74       1.0  0.3036766411060039  0.940489250477148  0.3812104831601798  1.0000
  C   C75       1.0  0.29236581089123986  0.936718601815107  0.4112845455017533  1.0000
  C   C76       1.0  0.2927160915431033  0.9597746847599156  0.4274032585782186  1.0000
  C   C77       1.0  0.30456239890176356  0.9867462507029116  0.41307950053615533  1.0000
  C   C78       1.0  0.3166506752369769  0.9907157353178814  0.3832874332712126  1.0000
  H   H49       1.0  0.3030483103675815  0.9224724568103603  0.36912977026002625  1.0000
  H   H50       1.0  0.2832625263383459  0.9157673208382631  0.42214377228166733  1.0000
  H   H51       1.0  0.3050380785486397  0.004708509175773141  0.4251916787047397  1.0000
  H   H52       1.0  0.3263828738076772  0.011824283213721198  0.37268919662233096  1.0000
  C   C79       1.0  0.25642114490077283  0.10154657460404172  0.4989738180525527  1.0000
  C   C80       1.0  0.27121746862805796  0.13075608850847775  0.4902689263864257  1.0000
  C   C81       1.0  0.2600621087806298  0.14923046625560682  0.49734664887481767  1.0000
  C   C82       1.0  0.23382346437561463  0.13859524183691485  0.5130726376526669  1.0000
  C   C83       1.0  0.21912497111777904  0.10942872485236181  0.52197672523656  1.0000
  C   C84       1.0  0.2303901100640638  0.09100286673263529  0.5150937582594856  1.0000
  H   H53       1.0  0.2913284972069403  0.13910078458990438  0.4777152213826938  1.0000
  H   H54       1.0  0.2715545560956159  0.17156870484096043  0.4902408793157377  1.0000
  H   H55       1.0  0.19881200187123624  0.10096369656629453  0.5341441381190354  1.0000
  H   H56       1.0  0.21873101684756827  0.06857646006153942  0.5218881782779136  1.0000
  C   C85       1.0  0.13915125080215143  0.9027438441260305  0.5184301458798259  1.0000
  C   C86       1.0  0.15053668344074875  0.8886976323801767  0.5359404197968158  1.0000
  C   C87       1.0  0.13361932218345726  0.8590509201889909  0.5426146762267935  1.0000
  C   C88       1.0  0.10520722867268385  0.8430936019971257  0.5318241726673313  1.0000
  C   C89       1.0  0.09393626500646583  0.8570961625832693  0.5140923385572947  1.0000
  C   C90       1.0  0.11080867639806559  0.8867502680418957  0.5075252317894645  1.0000
  H   H57       1.0  0.17224890784195926  0.9007294460344593  0.5446133443116006  1.0000
  H   H58       1.0  0.14255528353351743  0.8484811240475549  0.556401890747711  1.0000
  H   H59       1.0  0.07209240124949211  0.8451813482304141  0.5057519599845894  1.0000
  H   H60       1.0  0.10172660404889326  0.8974111424545973  0.49409040388847164  1.0000
  C   C91       1.0  0.6411183624479014  0.9448551136102631  0.3769769722513124  1.0000
  C   C92       1.0  0.6460656648313235  0.9568233821705384  0.40662356225380003  1.0000
  C   C93       1.0  0.6728170796681393  0.9665564432699965  0.42115325524680886  1.0000
  C   C94       1.0  0.6950305890943764  0.9647069138460731  0.40595743644243015  1.0000
  C   C95       1.0  0.6900310394025663  0.9525566390772771  0.3763689215092752  1.0000
  C   C96       1.0  0.6630821872240098  0.9423093277031177  0.3621093718076997  1.0000
  H   H61       1.0  0.6291445426550194  0.958782509430043  0.4183529107798062  1.0000
  H   H62       1.0  0.6763357876201237  0.9758070836942755  0.4439372372043557  1.0000
  H   H63       1.0  0.7069951243016642  0.9507133048663928  0.36460505472463345  1.0000
  H   H64       1.0  0.6592533261592319  0.9324805189623098  0.33963006897170955  1.0000
  C   C97       1.0  0.8605606556380426  0.08572146445570888  0.5166990784627219  1.0000
  C   C98       1.0  0.8497175621511871  0.09968959414434386  0.49825003593716805  1.0000
  C   C99       1.0  0.8671972931870836  0.12905291163885632  0.4906520287190455  1.0000
  C   C100      1.0  0.8956168824695973  0.14481167351849444  0.5014715629328238  1.0000
  C   C101      1.0  0.9063731870419054  0.13090024903204167  0.5200942196586253  1.0000
  C   C102      1.0  0.888929009136618  0.10151924687173551  0.5276003771981436  1.0000
  H   H65       1.0  0.8279679329607914  0.08782162536805954  0.489643754895421  1.0000
  H   H66       1.0  0.8586546111388088  0.13959281698345855  0.4762242848482518  1.0000
  H   H67       1.0  0.9281786747775129  0.14269224843492956  0.5285626453636887  1.0000
  H   H68       1.0  0.8975181449271513  0.09092332531120347  0.5418928682613933  1.0000
  C   C103      1.0  0.7449799033560741  0.8869718313027171  0.5303881801682444  1.0000
  C   C104      1.0  0.7706146671673311  0.8983756315168888  0.513426351032193  1.0000
  C   C105      1.0  0.7816379030344501  0.880374959357445  0.5038682452216939  1.0000
  C   C106      1.0  0.7670255426086078  0.8507551215727088  0.5107617539025814  1.0000
  C   C107      1.0  0.7409981040488737  0.8392124158568398  0.52709687136875  1.0000
  C   C108      1.0  0.7302043081295435  0.8572978888596848  0.5370669727668292  1.0000
  H   H69       1.0  0.7822943389239752  0.9211759761226402  0.5082117353344024  1.0000
  H   H70       1.0  0.8018652280140327  0.889569060708574  0.4913935690435113  1.0000
  H   H71       1.0  0.7293597773309534  0.8164563761617718  0.5324066160880765  1.0000
  H   H72       1.0  0.7103208407362819  0.8482612120071686  0.550144681133276  1.0000
  C   C109      1.0  0.33398067833327943  0.2888061360533737  0.6730920923297917  1.0000
  C   C110      1.0  0.3548413033811046  0.31033513878659047  0.6543343633331796  1.0000
  C   C111      1.0  0.34864297584117254  0.3128188253230225  0.6233504431498997  1.0000
  C   C112      1.0  0.3217194839549831  0.29362085587827136  0.6106476717137508  1.0000
  C   C113      1.0  0.30103909517613514  0.2717405230505503  0.6292352095108709  1.0000
  C   C114      1.0  0.30710107696449074  0.26950188259359215  0.6603500506271908  1.0000
  H   H73       1.0  0.37552916987602564  0.325430070335345  0.6638668430708748  1.0000
  H   H74       1.0  0.3647362112821522  0.3299349230566184  0.609268673304324  1.0000
  H   H75       1.0  0.28021320919508325  0.2569012667582735  0.6198199587165858  1.0000
  H   H76       1.0  0.29078754520248457  0.2528178408081974  0.6746589295905826  1.0000
  C   C115      1.0  0.3576326154708293  0.042544543559757876  0.6611047734375495  1.0000
  C   C116      1.0  0.33518517757881544  0.04528267940325106  0.6745062559943613  1.0000
  C   C117      1.0  0.30904409618025297  0.03559080796305346  0.6587211168300285  1.0000
  C   C118      1.0  0.305314891123145  0.023863443001000746  0.6290236154547502  1.0000
  C   C119      1.0  0.32804129382581265  0.02191196532495776  0.6152189111969267  1.0000
  C   C120      1.0  0.3539668649823141  0.030998360806633846  0.6313182224058399  1.0000
  H   H77       1.0  0.33790655150393933  0.054786624489375255  0.6970597599562376  1.0000
  H   H78       1.0  0.2916604443969082  0.03743666452419256  0.6694705667530236  1.0000
  H   H79       1.0  0.325494187037575  0.012967747026073617  0.5923690401971482  1.0000
  H   H80       1.0  0.37124427812500005  0.02887901287406347  0.6206910277414297  1.0000
  C   C121      1.0  0.42473039983395866  0.1875396122157925  0.7799986273922996  1.0000
  C   C122      1.0  0.4432364802521989  0.19650283455416703  0.7544628012363325  1.0000
  C   C123      1.0  0.45401599853285096  0.22463826259781702  0.7426957275089143  1.0000
  C   C124      1.0  0.44590904789693475  0.24367060182404032  0.7560270873613354  1.0000
  C   C125      1.0  0.42727557745161965  0.23452755640773648  0.7813832399818637  1.0000
  C   C126      1.0  0.4169558858417958  0.20670125575013465  0.793437084371264  1.0000
  H   H81       1.0  0.4492655066656257  0.18185844330393539  0.7438572208323477  1.0000
  H   H82       1.0  0.4683850717052038  0.2315683447387672  0.7230197959668535  1.0000
  H   H83       1.0  0.42118944701558103  0.2490845283683142  0.7920908586436005  1.0000
  H   H84       1.0  0.4028240097487085  0.1999932906459945  0.8133161664361247  1.0000
  C   C127      1.0  0.6927956084956141  0.025493155994074375  0.6687041501412536  1.0000
  C   C128      1.0  0.6995973841928276  0.005275633053289329  0.6559702266173245  1.0000
  C   C129      1.0  0.7055484906280576  0.005576663008568402  0.6242767143240497  1.0000
  C   C130      1.0  0.7041659094337378  0.0257915333741028  0.6048588822856802  1.0000
  C   C131      1.0  0.697467145979745  0.04607574623479642  0.6176057125598947  1.0000
  C   C132      1.0  0.6920698882083858  0.04612798438421468  0.6493888996374415  1.0000
  H   H85       1.0  0.700147613378512  0.9891766825791971  0.6706992375202779  1.0000
  H   H86       1.0  0.7106094582141694  0.9897961642979239  0.6148023529483185  1.0000
  H   H87       1.0  0.696307139467838  0.061786384390388846  0.6027779243910711  1.0000
  H   H88       1.0  0.6868507106068225  0.06180867643605596  0.658815842815388  1.0000
  C   C133      1.0  0.5670850057823619  0.07590585900647162  0.7575561590113202  1.0000
  C   C134      1.0  0.572975604000849  0.09613654296775591  0.7808652003458181  1.0000
  C   C135      1.0  0.5517092673440045  0.10313635820260655  0.7903451258674888  1.0000
  C   C136      1.0  0.524240430832644  0.09009053717408075  0.7767449245050838  1.0000
  C   C137      1.0  0.5183560865489473  0.06987586359371199  0.7534246787644956  1.0000
  C   C138      1.0  0.5396133762849772  0.06286660925817385  0.743958960084512  1.0000
  H   H89       1.0  0.5938858700674441  0.10634784844439267  0.7916476353661053  1.0000
  H   H90       1.0  0.5566046635237655  0.11873842777150204  0.8084411794256867  1.0000
  H   H91       1.0  0.49744429414309527  0.05964871619735813  0.74264626412818  1.0000
  H   H92       1.0  0.5347131975587439  0.04723864330610864  0.7258859861634842  1.0000
  C   C139      1.0  0.6961443070184378  0.6347513294104178  0.6518747448924871  1.0000
  C   C140      1.0  0.7055638616105492  0.6385700482905401  0.621065341365255  1.0000
  C   C141      1.0  0.7169440267305913  0.6656771036862824  0.6065477383965686  1.0000
  C   C142      1.0  0.7185483212986921  0.689182582593622  0.6225590330649579  1.0000
  C   C143      1.0  0.7094689785682495  0.6854741367481503  0.6534625823062126  1.0000
  C   C144      1.0  0.6984631681712614  0.6584476828974952  0.6681260191649763  1.0000
  H   H93       1.0  0.7041021315691135  0.6204211261878063  0.6084224783910042  1.0000
  H   H94       1.0  0.7244770878075063  0.6683631891628615  0.5830147350542498  1.0000
  H   H95       1.0  0.710707770039597  0.7035142537197752  0.6661222256462433  1.0000
  H   H96       1.0  0.6912403467405659  0.6557980519686845  0.6918179980287653  1.0000
  C   C145      1.0  0.5631746810282292  0.47676367352413573  0.7719136436192704  1.0000
  C   C146      1.0  0.5461456523318545  0.45214507188978126  0.7900028530213036  1.0000
  C   C147      1.0  0.518517962493825  0.43095950239347125  0.7803901496373872  1.0000
  C   C148      1.0  0.5074709218502498  0.4340568742178132  0.7523967872708808  1.0000
  C   C149      1.0  0.5244578102497333  0.458682575672254  0.7343042257602188  1.0000
  C   C150      1.0  0.5521430068653609  0.4798566065839629  0.743905093895582  1.0000
  H   H97       1.0  0.5543416050217759  0.4496020623303255  0.8118062034928601  1.0000
  H   H98       1.0  0.505692937504008  0.4124335213143556  0.7948419193703197  1.0000
  H   H99       1.0  0.5161882960009188  0.46140526578352536  0.712637256386216  1.0000
  H   H100      1.0  0.5648686821659824  0.49865772796767077  0.7297578952124042  1.0000
  C   C151      1.0  0.9429326695104983  0.28434450218067603  0.6621483973135913  1.0000
  C   C152      1.0  0.9346599390921784  0.2650769916970959  0.6373059064511606  1.0000
  C   C153      1.0  0.9540941401276734  0.26896321984504457  0.6132774764758644  1.0000
  C   C154      1.0  0.9819880187065767  0.29243859146680157  0.6136539672543843  1.0000
  C   C155      1.0  0.9903680551656273  0.3116986527147066  0.638553256173771  1.0000
  C   C156      1.0  0.9710173333594937  0.30760357190647275  0.6628136298870587  1.0000
  H   H101      1.0  0.9129719479056346  0.24705849555817935  0.6365410226450364  1.0000
  H   H102      1.0  0.9473357832748774  0.25400009919975125  0.5942656076153685  1.0000
  H   H103      1.0  0.011941034400454908  0.3299033686466802  0.6390587486325289  1.0000
  H   H104      1.0  0.9777954062843829  0.32247599677298555  0.6818822870392405  1.0000
  C   C157      1.0  0.805129424374809  0.2410394970158816  0.7828705576601737  1.0000
  C   C158      1.0  0.7768616082614  0.22402571249007927  0.793882712336956  1.0000
  C   C159      1.0  0.7568539622143374  0.19986129515427192  0.7772067226569361  1.0000
  C   C160      1.0  0.7650350956123614  0.19278025011161085  0.74934804632236  1.0000
  C   C161      1.0  0.793126166727755  0.2101492317658311  0.7381148185230855  1.0000
  C   C162      1.0  0.8131985967606893  0.2340513952248782  0.7549219951806782  1.0000
  H   H105      1.0  0.7704367991199913  0.229511111349583  0.8153696599190868  1.0000
  H   H106      1.0  0.7350340713777532  0.18691728671850785  0.7856312766518367  1.0000
  H   H107      1.0  0.7994984006116224  0.2048917151783493  0.7164443259539546  1.0000
  H   H108      1.0  0.834916744876601  0.247006038817366  0.7462178175970722  1.0000
  C   C163      1.0  0.9635834585622439  0.656335406270596  0.6678426633921355  1.0000
  C   C164      1.0  0.9722370995483061  0.6838682773976295  0.6556272584207095  1.0000
  C   C165      1.0  0.9751932934882186  0.6887919174058762  0.6236231949433253  1.0000
  C   C166      1.0  0.9703548783310154  0.6663824758948483  0.6035621554307053  1.0000
  C   C167      1.0  0.9612840006670204  0.638768555294866  0.6157623805447439  1.0000
  C   C168      1.0  0.9576820808172902  0.6336788695115448  0.647726154651604  1.0000
  H   H109      1.0  0.9765715516149411  0.7014582622445966  0.6710403632963194  1.0000
  H   H110      1.0  0.9814640282596986  0.7099298324836192  0.6144748116342782  1.0000
  H   H111      1.0  0.9574082759069786  0.6212732767692875  0.6003956589824682  1.0000
  H   H112      1.0  0.9511348978520613  0.6124223909767489  0.6568102263747222  1.0000
  C   C169      1.0  0.9285000415161034  0.4830402905339545  0.7651357217426806  1.0000
  C   C170      1.0  0.9401027974131505  0.46830708070824856  0.7815351882466021  1.0000
  C   C171      1.0  0.9334401227862099  0.4399881853265983  0.7735743796450525  1.0000
  C   C172      1.0  0.9153744314970945  0.4261198376316377  0.748708405037529  1.0000
  C   C173      1.0  0.9035371248758881  0.4407137730535513  0.7324786182845854  1.0000
  C   C174      1.0  0.9098617011167067  0.4688754972151205  0.7407341021131103  1.0000
  H   H113      1.0  0.9546275976779247  0.4789892063966027  0.8003671987466572  1.0000
  H   H114      1.0  0.9428571841460801  0.42921436229995263  0.7862457770697605  1.0000
  H   H115      1.0  0.8896027150809994  0.4303420487834513  0.7131380242414576  1.0000
  H   H116      1.0  0.9008273846052115  0.47986728868457634  0.7277950208957167  1.0000
  C   C175      1.0  0.8058743240710077  0.5546576006587373  0.7413951784658612  1.0000
  C   C176      1.0  0.7809093116273221  0.5504038978862996  0.7261790033255606  1.0000
  C   C177      1.0  0.7605257051602353  0.5556642423946663  0.7413416911119127  1.0000
  C   C178      1.0  0.7648216652667019  0.5646862637342993  0.7719914898589598  1.0000
  C   C179      1.0  0.7898525198467009  0.5690289824065551  0.7870943011848217  1.0000
  C   C180      1.0  0.8104542026205602  0.5643278564841548  0.7717804865475099  1.0000
  H   H117      1.0  0.7772180195950265  0.5428767742247604  0.7026667746324025  1.0000
  H   H118      1.0  0.7412229710310655  0.5521300183984325  0.7295854787722461  1.0000
  H   H119      1.0  0.7932533472737912  0.5758457535625912  0.8108384207708226  1.0000
  H   H120      1.0  0.8295903858487177  0.5676265867702057  0.7837064832290179  1.0000
  C   C181      1.0  0.6952445378784577  0.7066952164346388  0.12340429345413448  1.0000
  C   C182      1.0  0.6943560442527347  0.7074564161239211  0.15573028245878945  1.0000
  C   C183      1.0  0.667893855609794  0.6940357038242639  0.1718595644563501  1.0000
  C   C184      1.0  0.6419849523474229  0.6794020312995043  0.15580419151969785  1.0000
  C   C185      1.0  0.6428706894184697  0.6786596242215388  0.12347515191360935  1.0000
  C   C186      1.0  0.6693159973701412  0.6923497654146211  0.1073304178687394  1.0000
  H   H121      1.0  0.714245702664431  0.7184304790318309  0.16841259209359222  1.0000
  H   H122      1.0  0.6675752061310104  0.6947105600414494  0.1967136255120391  1.0000
  H   H123      1.0  0.6229973716461706  0.6673864461436518  0.11081761069569798  1.0000
  H   H124      1.0  0.6696453901921547  0.6914887422514329  0.08249308231455978  1.0000
  C   C187      1.0  0.6940246541946514  0.6622099832831485  0.9177406354009662  1.0000
  C   C188      1.0  0.7105409587432803  0.6850092382311538  0.8976224568803369  1.0000
  C   C189      1.0  0.7068510099091313  0.6809953963672191  0.8655908577915008  1.0000
  C   C190      1.0  0.6874659600988068  0.6539270622746206  0.8533121973561917  1.0000
  C   C191      1.0  0.6716614116911978  0.6309083338757796  0.8733969841854841  1.0000
  C   C192      1.0  0.6747290928099197  0.6351325092531385  0.9054446717522423  1.0000
  H   H125      1.0  0.7261741658397761  0.705699573354766  0.9066711518080619  1.0000
  H   H126      1.0  0.7192969862220413  0.6988695479780801  0.8501693583710118  1.0000
  H   H127      1.0  0.6564583404760156  0.6100387611142278  0.8642354275184952  1.0000
  H   H128      1.0  0.6618841877714692  0.6173263315932889  0.9208001137165156  1.0000
  C   C193      1.0  0.03418030912321776  0.6958727813508178  0.10417215297606751  1.0000
  C   C194      1.0  0.015886159141188363  0.699948040154416  0.12418854028574616  1.0000
  C   C195      1.0  0.01704825886249907  0.695989178079906  0.1560936604935084  1.0000
  C   C196      1.0  0.03672747937267161  0.6883263371267124  0.16837247082330423  1.0000
  C   C197      1.0  0.055489424047271155  0.6848946681288712  0.1484242112206106  1.0000
  C   C198      1.0  0.05400580676968125  0.6883904278359378  0.11646108387830867  1.0000
  H   H129      1.0  0.00047522367092467377  0.7056294565963234  0.11506100580664576  1.0000
  H   H130      1.0  0.0024532542670997774  0.6987166847614708  0.171349660601173  1.0000
  H   H131      1.0  0.07091313533641436  0.6792460909676433  0.15755779769428252  1.0000
  H   H132      1.0  0.06830093461316021  0.6852659319020785  0.10113326709724381  1.0000
  C   C199      1.0  0.9709326334634831  0.6864715080723145  0.9023482602126655  1.0000
  C   C200      1.0  0.9727033819676375  0.68474468208792  0.8702009216455561  1.0000
  C   C201      1.0  0.9547381562129075  0.6589956858123861  0.8544740816449076  1.0000
  C   C202      1.0  0.9346033658709166  0.6347692422795161  0.870791918921318  1.0000
  C   C203      1.0  0.9328725842242176  0.636444070362765  0.9029487597959586  1.0000
  C   C204      1.0  0.9510054564437594  0.6621087796787398  0.9186987187346553  1.0000
  H   H133      1.0  0.9879965009390075  0.7035067248257043  0.8573436403005648  1.0000
  H   H134      1.0  0.9563259186505141  0.6580015111386872  0.8297260358944967  1.0000
  H   H135      1.0  0.9174372688483616  0.617747551463244  0.9157747504204601  1.0000
  H   H136      1.0  0.9495086562797518  0.6630218717823186  0.9434460755356344  1.0000
  C   C205      1.0  0.8903603378916012  0.7292214175245498  0.02707686356165021  1.0000
  C   C206      1.0  0.9024431255840144  0.7567409509611969  0.014040689217442726  1.0000
  C   C207      1.0  0.8846241982829708  0.7681861240323586  0.005369399094399485  1.0000
  C   C208      1.0  0.8545742491034777  0.7521895947391798  0.009298298254956316  1.0000
  C   C209      1.0  0.8424322630593218  0.7242928020826402  0.021393980416109404  1.0000
  C   C210      1.0  0.860281113656087  0.7130355740716594  0.03055894052670549  1.0000
  H   H137      1.0  0.9255668290616195  0.769533020183338  0.011438964587721312  1.0000
  H   H138      1.0  0.8942428820639332  0.7897986049980484  0.9960322753282487  1.0000
  H   H139      1.0  0.8193237271957399  0.7114259609485787  0.023854612544354836  1.0000
  H   H140      1.0  0.8507330172754418  0.6916232083073216  0.040402150195322895  1.0000
  C   C211      1.0  0.01595705193287863  0.2935484520187612  0.11993257562635085  1.0000
  C   C212      1.0  0.012375349856290106  0.2962775454919001  0.15163516267606728  1.0000
  C   C213      1.0  0.02985153671149299  0.32235176914273694  0.16710862995502657  1.0000
  C   C214      1.0  0.05089932727644192  0.3460957408305187  0.1508856035104714  1.0000
  C   C215      1.0  0.05465674896983394  0.3432939469112598  0.1192625548177637  1.0000
  C   C216      1.0  0.037374678227930856  0.3171398689301524  0.10385745738250049  1.0000
  H   H141      1.0  0.995845001790232  0.27817289018474695  0.16426893706024553  1.0000
  H   H142      1.0  0.02674632537693327  0.32418238161920643  0.19143730806708634  1.0000
  H   H143      1.0  0.07089890772391638  0.3615321618317561  0.10650590811691735  1.0000
  H   H144      1.0  0.040322965989349015  0.3153747812928867  0.07947091362094381  1.0000
  C   C217      1.0  0.9658079533443882  0.3089181092730041  0.8669801780122826  1.0000
  C   C218      1.0  0.9856414267775992  0.31675871489241414  0.89122283147693  1.0000
  C   C219      1.0  0.9812999697339228  0.29735958365064435  0.9154816990773621  1.0000
  C   C220      1.0  0.9571730732336919  0.2698150021759396  0.9155413504764429  1.0000
  C   C221      1.0  0.9372313720584085  0.2621510151839886  0.891495796400511  1.0000
  C   C222      1.0  0.9414780541720306  0.28153889528605425  0.8673723722104274  1.0000
  H   H145      1.0  0.0042997486100482965  0.33805184892789736  0.8913363606105537  1.0000
  H   H146      1.0  0.9963151735385262  0.3038286039926074  0.9343016089965408  1.0000
  H   H147      1.0  0.9183600154043632  0.24100634653609873  0.8914718796549286  1.0000
  H   H148      1.0  0.9259812258258077  0.2752252504041049  0.8490018195733117  1.0000
  C   C223      1.0  0.29735833513493687  0.31879148853964395  0.09939996169986069  1.0000
  C   C224      1.0  0.28700195594247435  0.29594324113666964  0.12043886955049916  1.0000
  C   C225      1.0  0.2904910487755139  0.3014950521036624  0.15231668046147828  1.0000
  C   C226      1.0  0.3039915344014743  0.32987840045692607  0.1635736744702035  1.0000
  C   C227      1.0  0.3139550339574888  0.3527118210717514  0.14255352836183835  1.0000
  C   C228      1.0  0.31083103505780946  0.34716987875022604  0.11066217099167161  1.0000
  H   H149      1.0  0.2767367268122456  0.2740187511965302  0.11214465125129094  1.0000
  H   H150      1.0  0.2827993628033494  0.2836617794913965  0.16831095433522766  1.0000
  H   H151      1.0  0.3244446968768178  0.37464962888841163  0.1508237865777074  1.0000
  H   H152      1.0  0.31894943965067973  0.36501422140458667  0.09463671586049698  1.0000
  C   C229      1.0  0.30393299295147724  0.2764932154877543  0.9015681785789693  1.0000
  C   C230      1.0  0.3248045413483022  0.2716294761110421  0.9153616330066858  1.0000
  C   C231      1.0  0.3517683106151958  0.28143771638422915  0.9009386451132859  1.0000
  C   C232      1.0  0.35810154095065666  0.2960855074555694  0.8726012666563635  1.0000
  C   C233      1.0  0.33754681858789237  0.3016752342517404  0.8592566752265389  1.0000
  C   C234      1.0  0.3105012889458242  0.2917382070689521  0.8735909843606  1.0000
  H   H153      1.0  0.31999570531214294  0.259823887036047  0.9368170386497096  1.0000
  H   H154      1.0  0.36767931662196207  0.2772477685242115  0.9115405845862135  1.0000
  H   H155      1.0  0.3426229998496189  0.3137933597308719  0.8379944133390062  1.0000
  H   H156      1.0  0.2946091824092823  0.29596693390778384  0.8630217792907233  1.0000
  C   C235      1.0  0.09917320493524646  0.2388970660537785  0.9962767560419394  1.0000
  C   C236      1.0  0.0893740443930525  0.21459978926628065  0.015209450948084235  1.0000
  C   C237      1.0  0.1081087706924778  0.20408392131349468  0.023429588536661106  1.0000
  C   C238      1.0  0.1368850698846575  0.21785665425420458  0.013103247145235475  1.0000
  C   C239      1.0  0.14674980485107325  0.2422986900723594  0.994383047745001  1.0000
  C   C240      1.0  0.12793650914203683  0.2526469993678425  0.98591509641036  1.0000
  H   H157      1.0  0.06729257908327499  0.20372932989740541  0.02326207045940984  1.0000
  H   H158      1.0  0.10021986460092515  0.1851512164287084  0.03787081993855637  1.0000
  H   H159      1.0  0.16879424014231106  0.25309260467039585  0.9862184021283176  1.0000
  H   H160      1.0  0.13576256789516405  0.2714442026423239  0.9712749672786604  1.0000
  C   C241      1.0  0.27895536965772205  0.9687092648690542  0.1267964589613358  1.0000
  C   C242      1.0  0.284614124005506  0.9734287540695737  0.15845000209394375  1.0000
  C   C243      1.0  0.29664860499462464  0.9590941714284267  0.17485710241539007  1.0000
  C   C244      1.0  0.3037451002700455  0.9403253563030067  0.15956714468742156  1.0000
  C   C245      1.0  0.29795529373660473  0.9354736643464167  0.1279432423664951  1.0000
  C   C246      1.0  0.285212045870229  0.9492084002528233  0.11172848524153267  1.0000
  H   H161      1.0  0.2798958645660184  0.9884971728512905  0.17033392129492136  1.0000
  H   H162      1.0  0.30103087102946424  0.963102760602008  0.19916557991335293  1.0000
  H   H163      1.0  0.30326998584845033  0.9208962626956436  0.11592566230244357  1.0000
  H   H164      1.0  0.2805177279848081  0.9449005561872432  0.08753670860914274  1.0000
  C   C247      1.0  0.32826332436596783  0.020056870256020858  0.9268879701605958  1.0000
  C   C248      1.0  0.3079748550829017  0.999450394216961  0.9071794435121924  1.0000
  C   C249      1.0  0.31499297844303153  0.9986791497737053  0.8759710725003058  1.0000
  C   C250      1.0  0.34207439956930624  0.018845225885618537  0.8639429715182997  1.0000
  C   C251      1.0  0.3620236309293172  0.03999860133956231  0.8834740158744697  1.0000
  C   C252      1.0  0.35524680236640666  0.04037701829257831  0.9148245287917971  1.0000
  H   H165      1.0  0.2871708173762305  0.9835802787366712  0.9161197719385438  1.0000
  H   H166      1.0  0.2994314256233621  0.9821458185723252  0.8611398242246197  1.0000
  H   H167      1.0  0.382994040262822  0.055527776602258  0.8746163800617537  1.0000
  H   H168      1.0  0.37115297240725215  0.05636703674051787  0.929843015200341  1.0000
  C   C253      1.0  0.23118546231835924  0.0809282102923235  0.004802603642135139  1.0000
  C   C254      1.0  0.22353079406175258  0.09927912250247548  0.9891217876847573  1.0000
  C   C255      1.0  0.23460145243723507  0.12819879827526426  0.9981656598739085  1.0000
  C   C256      1.0  0.2531035330505619  0.1389114310310861  0.023324391868883278  1.0000
  C   C257      1.0  0.2609735396800214  0.12063709520544405  0.03876562325706997  1.0000
  C   C258      1.0  0.2501851954470621  0.09182647705091437  0.029511911358239468  1.0000
  H   H169      1.0  0.20900534736347326  0.09107495189920892  0.9698182037154623  1.0000
  H   H170      1.0  0.2289096557499444  0.1422215257251256  0.9856946828139461  1.0000
  H   H171      1.0  0.2753320829452287  0.12876641860862423  0.05822001104029312  1.0000
  H   H172      1.0  0.2562070733922313  0.07795454664692206  0.041837744096142264  1.0000
  C   C259      1.0  0.14697415233379918  0.8822824666321605  0.0007133078483112509  1.0000
  C   C260      1.0  0.13037233243795396  0.8545270787376591  0.9883825963208434  1.0000
  C   C261      1.0  0.10116896100410887  0.837203407120217  0.9966520570755173  1.0000
  C   C262      1.0  0.08826399975083055  0.8473800363408397  0.017621208792773846  1.0000
  C   C263      1.0  0.10484768463556231  0.8751365373070329  0.029946793400214927  1.0000
  C   C264      1.0  0.1340315348439031  0.8925162020352468  0.021565291296852432  1.0000
  H   H173      1.0  0.14013400068548953  0.8464844575304138  0.9720943272290895  1.0000
  H   H174      1.0  0.08865688580164446  0.8160707721101202  0.9866351359146175  1.0000
  H   H175      1.0  0.09507670884401209  0.8832758583857561  0.04610400069528531  1.0000
  H   H176      1.0  0.14648601039219966  0.9138374071084874  0.031174767145242293  1.0000
  C   C265      1.0  0.6678505085314224  0.9565886850021642  0.1105454588392948  1.0000
  C   C266      1.0  0.6910928872003499  0.9725766544280554  0.1300529581702954  1.0000
  C   C267      1.0  0.686634619380393  0.9720493236737187  0.1621340142176376  1.0000
  C   C268      1.0  0.6590014609306722  0.9553946866274042  0.17509467237171172  1.0000
  C   C269      1.0  0.6358690612449431  0.9390508861474762  0.15561701768513128  1.0000
  C   C270      1.0  0.6402915603609924  0.9397473261890031  0.12354213268074192  1.0000
  H   H177      1.0  0.7123949093194196  0.9857006542454022  0.12039953969743683  1.0000
  H   H178      1.0  0.7046813928152075  0.9848060423675263  0.17695752963746522  1.0000
  H   H179      1.0  0.6144889980684245  0.9262145927826254  0.16519622862244757  1.0000
  H   H180      1.0  0.6221586525607973  0.9273359680252715  0.10866386607982526  1.0000
  C   C271      1.0  0.7176420593026791  0.01649076520781982  0.9034850371079967  1.0000
  C   C272      1.0  0.7137295940773445  0.03698240557862536  0.9197309225842589  1.0000
  C   C273      1.0  0.7069322667714292  0.05598681193668878  0.9039098787464978  1.0000
  C   C274      1.0  0.7035922143528283  0.05452538493504757  0.8717583241835788  1.0000
  C   C275      1.0  0.7076670496929065  0.03415501653987669  0.8554810975433064  1.0000
  C   C276      1.0  0.7147261147374071  0.015325912747963516  0.8712823305832232  1.0000
  H   H181      1.0  0.715645004590245  0.03800750726149449  0.944513301686436  1.0000
  H   H182      1.0  0.7037378805599124  0.07159377523769052  0.916756094246042  1.0000
  H   H183      1.0  0.7052395808220547  0.03277602806792903  0.8307516254260402  1.0000
  H   H184      1.0  0.7176687890155176  0.999537225638128  0.8584785179166776  1.0000
  C   C277      1.0  0.8442716291936335  0.09095605257736439  0.027804511433973375  1.0000
  C   C278      1.0  0.859392665434486  0.12066570907328546  0.021507030311329788  1.0000
  C   C279      1.0  0.889682847212679  0.1358325274129022  0.02063536582498953  1.0000
  C   C280      1.0  0.9052045705020382  0.12165521967745681  0.02733606621331739  1.0000
  C   C281      1.0  0.8900900540784916  0.09185126164529497  0.03318021131213533  1.0000
  C   C282      1.0  0.8597382286281484  0.0764559365442343  0.033025496299395884  1.0000
  H   H185      1.0  0.8475952482069732  0.1320340138103333  0.017265863262622697  1.0000
  H   H186      1.0  0.9010100611563642  0.15867184033250267  0.015662675509012125  1.0000
  H   H187      1.0  0.9019126447616317  0.08066332702651095  0.038269664615496524  1.0000
  H   H188      1.0  0.8483545022846655  0.05357815624176029  0.0378635658678923  1.0000
  C   C283      1.0  0.7581842620136748  0.8931130863557393  0.017337224354224245  1.0000
  C   C284      1.0  0.7364530258472065  0.8814876187461909  0.9952415003908701  1.0000
  C   C285      1.0  0.7260010260671514  0.852971445883038  0.9849639036024614  1.0000
  C   C286      1.0  0.7371048792807756  0.8357748211910482  0.9966302764813896  1.0000
  C   C287      1.0  0.758630920939197  0.8473335141716676  0.01893150861634063  1.0000
  C   C288      1.0  0.7690862433400639  0.8758310242980363  0.029185853289491748  1.0000
  H   H189      1.0  0.7279397447395074  0.8945437153955484  0.9857847003507846  1.0000
  H   H190      1.0  0.7094083865935262  0.8442931693433076  0.9676495550757344  1.0000
  H   H191      1.0  0.767412723318023  0.83441455442722  0.028090729329341313  1.0000
  H   H192      1.0  0.7859120603050253  0.8846141904257533  0.046251825939091384  1.0000
  N   N1        1.0  0.35116343117953003  0.022970710186289045  0.06488471273241325  1.0000
  C   C289      1.0  0.35257919165282786  0.019425464540113513  0.09846829316306849  1.0000
  C   C290      1.0  0.37879676665657147  0.02938338183335376  0.05030989705265476  1.0000
  C   C291      1.0  0.3451683724301253  0.04682000530162944  0.058807609491438484  1.0000
  C   C292      1.0  0.32785284855792146  0.9961299352017327  0.05182283538970345  1.0000
  H   H193      1.0  0.3322703429340029  0.015443620501129907  0.11012478882116672  1.0000
  H   H194      1.0  0.3704419306550991  0.03897822469105394  0.1090648771659839  1.0000
  H   H195      1.0  0.3557758973404789  0.0007795914338337706  0.1040555087009376  1.0000
  H   H196      1.0  0.37817814695453084  0.03201030399380711  0.024912950116395605  1.0000
  H   H197      1.0  0.3969569864814998  0.04958941635147629  0.059486634031866936  1.0000
  H   H198      1.0  0.38381192619716664  0.011681709028982912  0.05440443650824234  1.0000
  H   H199      1.0  0.3625415368561118  0.06761635849164294  0.06780956255021686  1.0000
  H   H200      1.0  0.3246193005416703  0.042723372194749754  0.0700344502730268  1.0000
  H   H201      1.0  0.34307556573071524  0.04948014430937864  0.033669267833070116  1.0000
  H   H202      1.0  0.3264575075981564  0.9977565543318968  0.026404774118836682  1.0000
  H   H203      1.0  0.3066907537590425  0.9912708835810197  0.06171442505037672  1.0000
  H   H204      1.0  0.3309843419126581  0.9773442668681441  0.05668129247732212  1.0000
  N   N2        1.0  0.13641066681707278  0.35419708085015444  0.1830827109779312  1.0000
  C   C293      1.0  0.14644291313051785  0.3535690561755537  0.21456904218296302  1.0000
  C   C294      1.0  0.1521663057317927  0.3460181777959609  0.16077957143859042  1.0000
  C   C295      1.0  0.1418126652867446  0.3835615077743629  0.17593199898261905  1.0000
  C   C296      1.0  0.10521718426561626  0.3337064429405999  0.1809917051774268  1.0000
  H   H205      1.0  0.13544433910239767  0.3602622724897016  0.23194912119371675  1.0000
  H   H206      1.0  0.1700134970482794  0.36840490665334985  0.2168154843412092  1.0000
  H   H207      1.0  0.1422174755343039  0.33163271145651946  0.2210556338440308  1.0000
  H   H208      1.0  0.14511244174069285  0.3463576461044885  0.1367779546042161  1.0000
  H   H209      1.0  0.17580432188726702  0.36106126012977563  0.1617323939712951  1.0000
  H   H210      1.0  0.14854007942336467  0.323929432722677  0.16541362603684384  1.0000
  H   H211      1.0  0.13381729237951528  0.3846937442130574  0.1526203814736754  1.0000
  H   H212      1.0  0.16515916652918547  0.39962241197170467  0.17690563817331237  1.0000
  H   H213      1.0  0.13040731606740433  0.3904468946491431  0.19247768904491033  1.0000
  H   H214      1.0  0.0969835422101308  0.33356892978586206  0.1574599788848403  1.0000
  H   H215      1.0  0.09260411787483296  0.33954569051836325  0.19712402152240177  1.0000
  H   H216      1.0  0.10016130633949064  0.3113154413761762  0.18648291786631976  1.0000
  N   N3        1.0  0.05607441763086687  0.2872538935157169  0.9100027282481353  1.0000
  C   C297      1.0  0.08117989669274386  0.28349375705069557  0.9028067355874811  1.0000
  C   C298      1.0  0.04953516430742504  0.30012174396052943  0.8832269914137039  1.0000
  C   C299      1.0  0.06264861154343693  0.30637498343765784  0.9369240019689681  1.0000
  C   C300      1.0  0.030919748277596575  0.25892736349067696  0.9171584744232776  1.0000
  H   H217      1.0  0.08670210302951561  0.27386626015074267  0.9226328699487049  1.0000
  H   H218      1.0  0.10061739129505325  0.30443329416938947  0.897379334806548  1.0000
  H   H219      1.0  0.07686890868222439  0.2688967173228263  0.8828581098045808  1.0000
  H   H220      1.0  0.06789162666173545  0.32170053055371967  0.8773684341712193  1.0000
  H   H221      1.0  0.04450313954060948  0.2862484400581057  0.8625113811356521  1.0000
  H   H222      1.0  0.030503331774908948  0.30290251275514274  0.8877843377971322  1.0000
  H   H223      1.0  0.0814451567303178  0.32802084591521186  0.9324329424448611  1.0000
  H   H224      1.0  0.06782316153056901  0.29728256875244724  0.9574696601139961  1.0000
  H   H225      1.0  0.04403105852162286  0.3093547987654133  0.9433152746384387  1.0000
  H   H226      1.0  0.011739388817202831  0.2609243372766821  0.9238104751866093  1.0000
  H   H227      1.0  0.03566471928223899  0.24834103527780424  0.9365788660842409  1.0000
  H   H228      1.0  0.024684173754894796  0.24407381448442683  0.8971893931234591  1.0000
  N   N4        1.0  0.6745020533920766  0.7583200907599774  0.3494145112593938  1.0000
  C   C301      1.0  0.7047377367847693  0.7770683390529225  0.3397734354873885  1.0000
  C   C302      1.0  0.6737045084659493  0.7470717542202316  0.38067058530203646  1.0000
  C   C303      1.0  0.6604991588406973  0.734060219308979  0.32772694273115954  1.0000
  C   C304      1.0  0.6590241214076011  0.7749683271990633  0.3493050892920859  1.0000
  H   H229      1.0  0.7060341366384941  0.7857276307031312  0.3161394289406356  1.0000
  H   H230      1.0  0.7168644309742261  0.7649645665063959  0.3395464964672441  1.0000
  H   H231      1.0  0.7160681836806386  0.7956562186601777  0.35559681054272185  1.0000
  H   H232      1.0  0.6511721218082274  0.7327060678871218  0.38854694383289656  1.0000
  H   H233      1.0  0.6850618497685622  0.7342636186182587  0.3813785960236382  1.0000
  H   H234      1.0  0.6842012225997226  0.7646880880052  0.39775701116203543  1.0000
  H   H235      1.0  0.6377139766669393  0.7190854116462724  0.33439812133450264  1.0000
  H   H236      1.0  0.6717823848212282  0.7211730675454198  0.32659943540878267  1.0000
  H   H237      1.0  0.6602145533469364  0.7418944689196021  0.30407511893026573  1.0000
  H   H238      1.0  0.635864070738832  0.761075858721323  0.3554615736252855  1.0000
  H   H239      1.0  0.6594709910075961  0.7839668271562628  0.32602718926012475  1.0000
  H   H240      1.0  0.668540711535544  0.7931721337093574  0.3657845068378922  1.0000
  N   N5        1.0  0.7468275190840289  0.621710747569267  0.863275013622239  1.0000
  C   C305      1.0  0.7711352863458864  0.6157409878967006  0.8636131243220315  1.0000
  C   C306      1.0  0.7194545774984287  0.5944400623350726  0.8670997636344976  1.0000
  C   C307      1.0  0.7466740872470649  0.6353143705124448  0.8336730975002573  1.0000
  C   C308      1.0  0.7499863864688688  0.6413638983443217  0.8887586179770244  1.0000
  H   H241      1.0  0.7920962301895269  0.6357827946132867  0.8604424193934486  1.0000
  H   H242      1.0  0.769274123307193  0.6008435401328287  0.8447098909968235  1.0000
  H   H243      1.0  0.7718293140013538  0.6053815694034669  0.8855680015278689  1.0000
  H   H244      1.0  0.716614516478875  0.578841385441502  0.8485967831236109  1.0000
  H   H245      1.0  0.7184686708111124  0.5838342521098405  0.8894469940144153  1.0000
  H   H246      1.0  0.7005986970953149  0.5980518205023675  0.8661265735140035  1.0000
  H   H247      1.0  0.7282753873748768  0.639546690358616  0.832329484420895  1.0000
  H   H248      1.0  0.7445394876119323  0.6212494071608768  0.8138666547917368  1.0000
  H   H249      1.0  0.7667336020352619  0.6561571093829552  0.8300811546496837  1.0000
  H   H250      1.0  0.770226094697459  0.662310662251486  0.8865599126706182  1.0000
  H   H251      1.0  0.7499770458675422  0.6318078978005484  0.9115266974709779  1.0000
  H   H252      1.0  0.7319089042296987  0.6461095085447071  0.8890616882371306  1.0000
  N   N6        1.0  0.03373652801015403  0.44731487558954075  0.3350777902180989  1.0000
  C   C309      1.0  0.04062069386003064  0.4777824555719483  0.33591825466205977  1.0000
  C   C310      1.0  0.008323866123520984  0.42959428581370945  0.35468510943224035  1.0000
  C   C311      1.0  0.058585627157718534  0.44495987717476143  0.3464338268803607  1.0000
  C   C312      1.0  0.027467130190039768  0.4367746390625593  0.3031179726120739  1.0000
  H   H253      1.0  0.04538975747664464  0.48652622439937  0.35969408627124366  1.0000
  H   H254      1.0  0.02250226432814051  0.4804519496881838  0.3270773411402894  1.0000
  H   H255      1.0  0.05983800925857907  0.49158451705178063  0.32135549629587573  1.0000
  H   H256      1.0  0.002834930458166296  0.40649164374354585  0.35439248140029816  1.0000
  H   H257      1.0  0.012230080040496416  0.43686325530379877  0.3790363985397379  1.0000
  H   H258      1.0  0.989060093060867  0.43061521468586905  0.3466336907970978  1.0000
  H   H259      1.0  0.07814002899281225  0.4580499342487528  0.33210884615565783  1.0000
  H   H260      1.0  0.05414558910210676  0.42221421406866033  0.34586091093731675  1.0000
  H   H261      1.0  0.0638808405424589  0.45256961485457214  0.3705670822241989  1.0000
  H   H262      1.0  0.021851512719486044  0.4137193709444934  0.3017301289524479  1.0000
  H   H263      1.0  0.04636099721141429  0.4493935858909685  0.28777682283954253  1.0000
  H   H264      1.0  0.009080761304417928  0.4385341920323737  0.2935387388632456  1.0000
  N   N7        1.0  0.685459974717019  0.8867990975232976  0.45865529162665714  1.0000
  C   C313      1.0  0.670157103480402  0.9009675548053739  0.44524708569411725  1.0000
  C   C314      1.0  0.6793848000145475  0.8610641810048955  0.44041784234732756  1.0000
  C   C315      1.0  0.6755950333902115  0.8781302404988527  0.4907050362396106  1.0000
  C   C316      1.0  0.7167692192882572  0.9070877192730817  0.45823540950084723  1.0000
  H   H265      1.0  0.6464030538502822  0.8867024954173879  0.44582441580556714  1.0000
  H   H266      1.0  0.676613581233344  0.9071873735895921  0.42084736187051136  1.0000
  H   H267      1.0  0.6751028389498069  0.921036039372729  0.45790892048296034  1.0000
  H   H268      1.0  0.6906102141354491  0.8498918496492562  0.4501171573712928  1.0000
  H   H269      1.0  0.6559134041742201  0.8453674122794396  0.44006673523453393  1.0000
  H   H270      1.0  0.6867752261067573  0.866980233336885  0.4161607916706485  1.0000
  H   H271      1.0  0.6520406463095141  0.863000648634299  0.49200970204012934  1.0000
  H   H272      1.0  0.6802091692944132  0.8971265997210147  0.5052182387951109  1.0000
  H   H273      1.0  0.6867520622164467  0.8674086011641577  0.5015803586953027  1.0000
  H   H274      1.0  0.7291589611575743  0.8971136067282723  0.46780724268480517  1.0000
  H   H275      1.0  0.7221233490136517  0.9264007360815438  0.4723302852627919  1.0000
  H   H276      1.0  0.7248949971782721  0.9149496219592073  0.4345463289204867  1.0000
  N   N8        1.0  0.4737535086895266  0.8305984946284332  0.23094895758225473  1.0000
  C   C317      1.0  0.484500620931712  0.8394747196537363  0.2625237263961441  1.0000
  C   C318      1.0  0.45092329204209697  0.8380129618679979  0.22466647405498605  1.0000
  C   C319      1.0  0.46216461704212525  0.7992075155059285  0.22793538831820273  1.0000
  C   C320      1.0  0.4976578574551555  0.8458216064203768  0.2087676097077032  1.0000
  H   H277      1.0  0.5014766806331624  0.833812229425524  0.2681959304088685  1.0000
  H   H278      1.0  0.46700491544087336  0.8289437685669983  0.27994061547870325  1.0000
  H   H279      1.0  0.4940390791044194  0.8631353851243365  0.2653728277824567  1.0000
  H   H280      1.0  0.4420684694782304  0.8313920326016325  0.20112977408996227  1.0000
  H   H281      1.0  0.4327944700269553  0.8275012674788257  0.2414158213061441  1.0000
  H   H282      1.0  0.45938269142796534  0.8616975621918265  0.2263737461969805  1.0000
  H   H283      1.0  0.4441899268264629  0.7870264146950564  0.24447163948650708  1.0000
  H   H284      1.0  0.47915170565556814  0.7932285451754674  0.23264164183727645  1.0000
  H   H285      1.0  0.4539833354230316  0.7916843135512974  0.20433725859012614  1.0000
  H   H286      1.0  0.4904456056462594  0.8396332901016145  0.18465799039469655  1.0000
  H   H287      1.0  0.5153848352928568  0.8408652034110842  0.21303147979730103  1.0000
  H   H288      1.0  0.5069180528628493  0.8696150808708968  0.21043949806522608  1.0000
  N   N9        1.0  0.8695185255773522  0.6254378412748491  0.6717883090945047  1.0000
  C   C321      1.0  0.8459783478401028  0.6162602198100745  0.6946529948985772  1.0000
  C   C322      1.0  0.8943508459759396  0.6529213628774403  0.6815887290706762  1.0000
  C   C323      1.0  0.8594102430227522  0.6293195773758935  0.641494138999921  1.0000
  C   C324      1.0  0.8783703208413555  0.6032048125640661  0.6693935803962512  1.0000
  H   H289      1.0  0.8387026113405295  0.6324683022790698  0.6972484874216798  1.0000
  H   H290      1.0  0.8527563627128997  0.612764700249082  0.7177190536068476  1.0000
  H   H291      1.0  0.8269109525819263  0.5955287854350498  0.6879552029473959  1.0000
  H   H292      1.0  0.9121891152886713  0.6607509210911445  0.6644370800460556  1.0000
  H   H293      1.0  0.8883628330783173  0.6700605187963393  0.684454432189742  1.0000
  H   H294      1.0  0.903167733992524  0.650499442557412  0.7038993440925817  1.0000
  H   H295      1.0  0.8766846408008969  0.6362265493605371  0.6236844356867549  1.0000
  H   H296      1.0  0.8525321211386069  0.6459506482149869  0.6424351954750167  1.0000
  H   H297      1.0  0.8406916465460186  0.6089040792566439  0.6334614642134755  1.0000
  H   H298      1.0  0.8958322774262417  0.6091705593583634  0.6520409293986611  1.0000
  H   H299      1.0  0.8599821452209018  0.5818996059325232  0.662906435641366  1.0000
  H   H300      1.0  0.886545733088296  0.6001128235939442  0.6917304753768995  1.0000
  N   N10       1.0  0.522083748826999  0.5943194991870671  0.17601864597450886  1.0000
  C   C325      1.0  0.4919076866832565  0.5709097555582285  0.17861580510290886  1.0000
  C   C326      1.0  0.5398055172402119  0.589655594198031  0.198856068433477  1.0000
  C   C327      1.0  0.5234055794992556  0.6222521531764231  0.18194944240985578  1.0000
  C   C328      1.0  0.5333783491248186  0.5945960630957506  0.1448158005798082  1.0000
  H   H301      1.0  0.49010691668017614  0.5494072759441798  0.17497896949081299  1.0000
  H   H302      1.0  0.47790955461918766  0.5735263436183613  0.16151480415996572  1.0000
  H   H303      1.0  0.48284032211131434  0.570574939370895  0.20186524097282807  1.0000
  H   H304      1.0  0.5628907541022711  0.6063565976919459  0.19673813072860866  1.0000
  H   H305      1.0  0.5327523213210554  0.5906885324004697  0.222717226236499  1.0000
  H   H306      1.0  0.5385167944412371  0.5683184364262821  0.19596472909795162  1.0000
  H   H307      1.0  0.5459056443258061  0.6404026773332026  0.1800139933411054  1.0000
  H   H308      1.0  0.5154131918476362  0.6229426652539396  0.2055218188238012  1.0000
  H   H309      1.0  0.5101604304255501  0.6265049744498915  0.16531185451691766  1.0000
  H   H310      1.0  0.5561872351788055  0.6121646370565222  0.14238922114544236  1.0000
  H   H311      1.0  0.5206577692837587  0.5982137688478262  0.12690833254882145  1.0000
  H   H312      1.0  0.5329430747411563  0.5739337103673385  0.1396533025988799  1.0000
  N   N11       1.0  0.14172425204967928  0.1591861298134854  0.49617371745103767  1.0000
  C   C329      1.0  0.1581467191288026  0.149060444230181  0.47728368693993356  1.0000
  C   C330      1.0  0.11246350762123748  0.13497057237197146  0.5020446431694657  1.0000
  C   C331      1.0  0.1397459952799199  0.18245510463738723  0.47971270472971095  1.0000
  C   C332      1.0  0.15653974621519753  0.1702243060446012  0.525777511035625  1.0000
  H   H313      1.0  0.1804160424953571  0.16673033094948464  0.4726297901294146  1.0000
  H   H314      1.0  0.14770377238476717  0.14051533577730113  0.4547400692221693  1.0000
  H   H315      1.0  0.16035852277362694  0.13173452605243854  0.4892345990414205  1.0000
  H   H316      1.0  0.09950255125062836  0.1419058608626014  0.5162703187066683  1.0000
  H   H317      1.0  0.10065142110858454  0.12606737701027507  0.48018951434081975  1.0000
  H   H318      1.0  0.11323539777835291  0.1171144635752281  0.5145588089364204  1.0000
  H   H319      1.0  0.12669307761769533  0.1899411535069265  0.4928848541665203  1.0000
  H   H320      1.0  0.12962033806630627  0.1752953952486477  0.4567741693808605  1.0000
  H   H321      1.0  0.16136971185437393  0.20164970174094232  0.4760514254397813  1.0000
  H   H322      1.0  0.14447629614373478  0.17742230284895275  0.5409981947841308  1.0000
  H   H323      1.0  0.1784249407821371  0.18889830346131586  0.5221654949388486  1.0000
  H   H324      1.0  0.1593656030846472  0.15357540264721847  0.5383898157622923  1.0000
  N   N12       1.0  0.3432714367862103  0.34163214934812247  0.9782216807034391  1.0000
  C   C333      1.0  0.31199946377150994  0.3264863146216341  0.972282783984495  1.0000
  C   C334      1.0  0.3507424218192323  0.36699157267308885  0.9977869941693438  1.0000
  C   C335      1.0  0.35910840292102636  0.3509360998626572  0.9486552554958064  1.0000
  C   C336      1.0  0.35110275055113144  0.32198594153278254  0.9942300432059324  1.0000
  H   H325      1.0  0.3053242176619109  0.34017422954805343  0.9592352049671178  1.0000
  H   H326      1.0  0.2993492020187688  0.31997478618362557  0.9940842448471219  1.0000
  H   H327      1.0  0.30539964196693087  0.3065956313813681  0.9587308132523219  1.0000
  H   H328      1.0  0.37419890282029206  0.3790443465974863  0.0027304879273599703  1.0000
  H   H329      1.0  0.3447451173267253  0.3820956186976301  0.9866509949254977  1.0000
  H   H330      1.0  0.3391623195281836  0.36045408336597556  0.02034774650061658  1.0000
  H   H331      1.0  0.3828145943495919  0.3620998159511611  0.9521357914672111  1.0000
  H   H332      1.0  0.35384818812536406  0.3659098152883338  0.9360017937713532  1.0000
  H   H333      1.0  0.3535648332612051  0.33222930599698614  0.9332749821075208  1.0000
  H   H334      1.0  0.37449548458912996  0.3327728071219033  0.9994406919897385  1.0000
  H   H335      1.0  0.3459146461837189  0.302667515127634  0.9800389003518842  1.0000
  H   H336      1.0  0.33922262796357733  0.3142787160671168  0.016491398670491986  1.0000
  N   N13       1.0  0.4021627355154793  0.9531556889977035  0.36429083106195514  1.0000
  C   C337      1.0  0.37777498703348455  0.9557421664744734  0.37710526879736833  1.0000
  C   C338      1.0  0.40398310262986026  0.9582506579271537  0.3307657464888019  1.0000
  C   C339      1.0  0.3975715058786617  0.923872597262008  0.3703140897905136  1.0000
  C   C340      1.0  0.42923697824466933  0.9746973967215395  0.3787536856474357  1.0000
  H   H337      1.0  0.37549850561249204  0.9519729124548897  0.4023803924662521  1.0000
  H   H338      1.0  0.35707403283580075  0.9399120859873978  0.36643202402453967  1.0000
  H   H339      1.0  0.3802849520087694  0.9774669009694729  0.3726532561676003  1.0000
  H   H340      1.0  0.42230157142479696  0.9567856410805264  0.32015729533314646  1.0000
  H   H341      1.0  0.3841976252001821  0.9417659180118759  0.3193488702056952  1.0000
  H   H342      1.0  0.4063668572603865  0.9796941608601122  0.3250430069772563  1.0000
  H   H343      1.0  0.4151457427680071  0.9208903344600243  0.36005705692305284  1.0000
  H   H344      1.0  0.3771255836789128  0.9071296138720367  0.35984770109789205  1.0000
  H   H345      1.0  0.3964696808971057  0.919253172852638  0.39537660184505846  1.0000
  H   H346      1.0  0.42855911505700317  0.9715710761184113  0.40411900756548186  1.0000
  H   H347      1.0  0.43331393883386227  0.9969926208636054  0.37436491356015883  1.0000
  H   H348      1.0  0.4480223136741304  0.9732330915212156  0.36954142521044847  1.0000
  N   N14       1.0  0.8225320902296928  0.7569026360134626  0.10225984793685244  1.0000
  C   C341      1.0  0.8039932239537327  0.7332390371488327  0.08142042473598016  1.0000
  C   C342      1.0  0.8152097296376958  0.7802366680967345  0.09980925025056776  1.0000
  C   C343      1.0  0.8530206593769427  0.7680707203541679  0.0933897659238741  1.0000
  C   C344      1.0  0.8176847866881287  0.7459405721813172  0.1341974996489296  1.0000
  H   H349      1.0  0.8094153387628371  0.7155637946474596  0.08180920873899941  1.0000
  H   H350      1.0  0.8063754809042419  0.7410935136036113  0.05734163201553427  1.0000
  H   H351      1.0  0.7808582378902464  0.7237110995520774  0.08783795740925243  1.0000
  H   H352      1.0  0.8280821596726065  0.7981320853210044  0.1159356155986227  1.0000
  H   H353      1.0  0.8194528857147549  0.7895230166991748  0.0761426450894258  1.0000
  H   H354      1.0  0.7919739899854538  0.7721971166449138  0.10506609330330344  1.0000
  H   H355      1.0  0.8677754128487075  0.7858207326461584  0.10875802607554949  1.0000
  H   H356      1.0  0.8572034995134432  0.7766949692894484  0.06940873478547085  1.0000
  H   H357      1.0  0.8591497070479288  0.7508708237152336  0.09420471204539142  1.0000
  H   H358      1.0  0.8313042464342355  0.7631865463176203  0.15068027244239157  1.0000
  H   H359      1.0  0.8227341868697311  0.7280988727079112  0.13673643086771553  1.0000
  H   H360      1.0  0.7947468589241833  0.7374012460329353  0.14128139492770533  1.0000
  N   N15       1.0  0.4076044302814815  0.47072558143476145  0.34760148103504257  1.0000
  C   C345      1.0  0.3967529192711602  0.48787217073358524  0.3314530461207639  1.0000
  C   C346      1.0  0.43849053516997333  0.48239691231817017  0.3403093967427522  1.0000
  C   C347      1.0  0.3913144923538446  0.4404214444148384  0.33744905136249537  1.0000
  C   C348      1.0  0.4037709424035863  0.47218931875167763  0.3811165771229858  1.0000
  H   H361      1.0  0.3737486425840728  0.4802917392362812  0.3371905495493799  1.0000
  H   H362      1.0  0.3981752397633372  0.48616454324429864  0.3061008154965637  1.0000
  H   H363      1.0  0.4093706276242677  0.5111388724354866  0.3373342622692132  1.0000
  H   H364      1.0  0.4475955243417247  0.4703641242888135  0.3525344698379805  1.0000
  H   H365      1.0  0.44194390217316093  0.4808691942146128  0.3152584924435797  1.0000
  H   H366      1.0  0.45138898383312553  0.5055425453939658  0.34663045046392793  1.0000
  H   H367      1.0  0.394087201890938  0.4385792113856473  0.3122905103639141  1.0000
  H   H368      1.0  0.36782390929497377  0.43104986541746304  0.3420527389790869  1.0000
  H   H369      1.0  0.3985803759458836  0.42666693240607934  0.3493824278609582  1.0000
  H   H370      1.0  0.4118764995777852  0.45961396431870627  0.394060773095458  1.0000
  H   H371      1.0  0.38060022510080094  0.46321138979558457  0.38729327533178887  1.0000
  H   H372      1.0  0.41553114139422115  0.4948176595841209  0.3894568916051397  1.0000
  N   N16       1.0  0.9303966955513703  0.7372542061576958  0.4163148580192034  1.0000
  C   C349      1.0  0.9224306578549336  0.7082746593773076  0.4282186239218152  1.0000
  C   C350      1.0  0.9525240455953738  0.7592981460164245  0.4363185508689729  1.0000
  C   C351      1.0  0.9046935739837515  0.7410211736017769  0.41602744616868054  1.0000
  C   C352      1.0  0.9421060632191708  0.7404528724699759  0.38477413659155907  1.0000
  H   H373      1.0  0.9059410265189761  0.6910326018151635  0.41357935910656046  1.0000
  H   H374      1.0  0.9134530499057425  0.7050624231128052  0.4519670136075055  1.0000
  H   H375      1.0  0.9414864973528275  0.7049053686786664  0.42902741994120785  1.0000
  H   H376      1.0  0.9448365236488341  0.7569111474948176  0.46052009439022434  1.0000
  H   H377      1.0  0.9724954253719462  0.7575922954102619  0.43632539105444734  1.0000
  H   H378      1.0  0.9585122796317476  0.7815027303894067  0.4287845619765  1.0000
  H   H379      1.0  0.8872420875101342  0.7244085359391257  0.4016746492539812  1.0000
  H   H380      1.0  0.9098895258427161  0.7625791306939909  0.4069444288944484  1.0000
  H   H381      1.0  0.8957374594400354  0.7392966301393782  0.4396213892163755  1.0000
  H   H382      1.0  0.9487780670455469  0.7622272010352142  0.3752281302074189  1.0000
  H   H383      1.0  0.9259854140025896  0.7242205724920532  0.3689615743453826  1.0000
  H   H384      1.0  0.9614462476083399  0.7375108293359809  0.3843744440355904  1.0000
  N   N17       1.0  0.09316249869268188  0.7889390865263929  0.08402373481861182  1.0000
  C   C353      1.0  0.09153926273084825  0.7812059464009772  0.05120631904381236  1.0000
  C   C354      1.0  0.11161548037825063  0.8204222998895234  0.08735942825827474  1.0000
  C   C355      1.0  0.10533725985011659  0.7737093822395991  0.10157598165683335  1.0000
  C   C356      1.0  0.06396333093250517  0.7803160400800915  0.09576468654754994  1.0000
  H   H385      1.0  0.08115181753656708  0.7912230221156741  0.03763719986968602  1.0000
  H   H386      1.0  0.07864109366582206  0.7574908434034378  0.04785502179583798  1.0000
  H   H387      1.0  0.11323510484282653  0.7885824532363609  0.040990232765603596  1.0000
  H   H388      1.0  0.11362717737868805  0.8270979888042618  0.11184559962643563  1.0000
  H   H389      1.0  0.13360719260723325  0.8279514070252597  0.07784766158762657  1.0000
  H   H390      1.0  0.10249038146990998  0.8322689234515523  0.07467397299194159  1.0000
  H   H391      1.0  0.1065852272571377  0.7787077007172046  0.1265414042305945  1.0000
  H   H392      1.0  0.12731750252877236  0.7796215407552062  0.09320797932264628  1.0000
  H   H393      1.0  0.09171229399235796  0.7499034427637822  0.09920614118620384  1.0000
  H   H394      1.0  0.04921713297143762  0.7568325590824728  0.09264392886363686  1.0000
  H   H395      1.0  0.05439831125527216  0.7919184382101014  0.08341341394008349  1.0000
  H   H396      1.0  0.06412608006008175  0.7850723015689064  0.12067908848823218  1.0000
  N   N18       1.0  0.368322817844089  0.31684069178650637  0.49604121218622477  1.0000
  C   C357      1.0  0.39578357312351264  0.34381753223148265  0.49144469247656697  1.0000
  C   C358      1.0  0.36929419968561955  0.3031021799915099  0.5252414239378648  1.0000
  C   C359      1.0  0.36365063269768466  0.29700884143752776  0.47020975528803544  1.0000
  C   C360      1.0  0.34446140382451956  0.323443828968058  0.49727943565564897  1.0000
  H   H397      1.0  0.3956404564539629  0.3547244781338762  0.4696503929853541  1.0000
  H   H398      1.0  0.4142962414131897  0.3396622450172842  0.49039341911165957  1.0000
  H   H399      1.0  0.3997983500823494  0.3591709338325539  0.5106260613249302  1.0000
  H   H400      1.0  0.3870261277389169  0.29779383380717356  0.5252857773952841  1.0000
  H   H401      1.0  0.37236552760610503  0.3173159934641436  0.5453136814650617  1.0000
  H   H402      1.0  0.34877300794661686  0.2827466171065906  0.5295263579391459  1.0000
  H   H403      1.0  0.3624411124812944  0.3065425532344687  0.44782999989006095  1.0000
  H   H404      1.0  0.3429297652982254  0.2765184041167472  0.4729190166495823  1.0000
  H   H405      1.0  0.38113978634615714  0.29140614745786775  0.46847828197380664  1.0000
  H   H406      1.0  0.34698320212828293  0.33818853190558296  0.5166271729623135  1.0000
  H   H407      1.0  0.32360755607044467  0.3035741671811987  0.5010474463399098  1.0000
  H   H408      1.0  0.3425304724696056  0.3332782449720287  0.4754415630685316  1.0000
  N   N19       1.0  0.31027647253744717  0.10187955847449963  0.5783068610240084  1.0000
  C   C361      1.0  0.3110477698972486  0.12597213645868244  0.5958860150605103  1.0000
  C   C362      1.0  0.32283889001694466  0.11210285376050394  0.5473739163823645  1.0000
  C   C363      1.0  0.2801338023404407  0.07871231838080468  0.575285725279823  1.0000
  C   C364      1.0  0.32692851937094314  0.0905622521923608  0.5946112685775952  1.0000
  H   H409      1.0  0.30162894301057047  0.11888536001529926  0.6193131310328364  1.0000
  H   H410      1.0  0.29849934873504486  0.13481163749153552  0.5841272766796592  1.0000
  H   H411      1.0  0.3334909802069738  0.14389592506617535  0.5986038702357772  1.0000
  H   H412      1.0  0.32168963085979535  0.09418048474684262  0.5331254821402037  1.0000
  H   H413      1.0  0.3109784004709915  0.12112317245057894  0.5345971908080231  1.0000
  H   H414      1.0  0.3457917480899357  0.12914460806208458  0.5485988246413883  1.0000
  H   H415      1.0  0.2789609051090593  0.060378291520783736  0.5620555184681983  1.0000
  H   H416      1.0  0.26680131298296084  0.08625022289156614  0.562921943140892  1.0000
  H   H417      1.0  0.2699322078771296  0.07000298889796577  0.5980944440688453  1.0000
  H   H418      1.0  0.3179963741901841  0.08268955398680154  0.6180463304932267  1.0000
  H   H419      1.0  0.34990824940934345  0.10725095647495067  0.5971763376580649  1.0000
  H   H420      1.0  0.32628293968670413  0.07199191918057933  0.5821089723514377  1.0000
  N   N20       1.0  0.5017831809426462  0.1762147219067097  0.8224387267263309  1.0000
  C   C365      1.0  0.5078222865972355  0.15590624433982014  0.8397987342744699  1.0000
  C   C366      1.0  0.4945048291943027  0.16616049681679645  0.7904172324306817  1.0000
  C   C367      1.0  0.527456764776291  0.2051636954200896  0.822514733324059  1.0000
  C   C368      1.0  0.4772485850328967  0.17751416521700217  0.83684130810938  1.0000
  H   H421      1.0  0.5135230569687501  0.1627124607977579  0.8640916676878728  1.0000
  H   H422      1.0  0.5258557416539432  0.1539396661223131  0.8291510561620731  1.0000
  H   H423      1.0  0.4888286178507151  0.1337962406652729  0.8399974316758302  1.0000
  H   H424      1.0  0.48941111034347967  0.18063314150309268  0.7765397834155418  1.0000
  H   H425      1.0  0.5122962345372071  0.16447426463072215  0.7787736320584119  1.0000
  H   H426      1.0  0.47538097773662746  0.14438653344415114  0.7898254179927122  1.0000
  H   H427      1.0  0.5234636241102204  0.22089008822083706  0.8095330469141219  1.0000
  H   H428      1.0  0.5462593995607801  0.20484892621707568  0.8116038668710933  1.0000
  H   H429      1.0  0.5336296395032708  0.21343402478660764  0.8463454710457521  1.0000
  H   H430      1.0  0.4819293102515428  0.1852693279358643  0.8609643087756117  1.0000
  H   H431      1.0  0.4575294871241425  0.15593673742676714  0.8372178140199205  1.0000
  H   H432      1.0  0.47163578271877266  0.19213007189817718  0.8238852190084222  1.0000
  N   N21       1.0  0.15998854213174232  0.12654971027498316  0.0359558088822492  1.0000
  C   C369      1.0  0.1333493020157688  0.12371962338938501  0.04988966828000127  1.0000
  C   C370      1.0  0.18521681051851743  0.15042150291329995  0.050905777285731514  1.0000
  C   C371      1.0  0.1605553446704158  0.13275129703665586  0.0027332171675946704  1.0000
  C   C372      1.0  0.160895071395133  0.09947662004396665  0.04029346287937267  1.0000
  H   H433      1.0  0.11381384916147108  0.10588637902004058  0.03922319546097773  1.0000
  H   H434      1.0  0.13206924119837987  0.14385475201302114  0.04677108953553244  1.0000
  H   H435      1.0  0.13235493433451623  0.11945297246804988  0.07504231748966116  1.0000
  H   H436      1.0  0.20572949834047577  0.15391519675215015  0.04029959070591651  1.0000
  H   H437      1.0  0.1846842622877573  0.17095556551773894  0.048848062338213316  1.0000
  H   H438      1.0  0.18609511261107192  0.14625663133740338  0.07583556011307434  1.0000
  H   H439      1.0  0.14171868566206247  0.11531689393701819  0.9906903263750311  1.0000
  H   H440      1.0  0.1803732241245612  0.13509911080627474  0.9914544100407832  1.0000
  H   H441      1.0  0.16011145186892287  0.15319848060119945  0.9987200847462925  1.0000
  H   H442      1.0  0.16023486022391328  0.09402787806091681  0.06510765472700634  1.0000
  H   H443      1.0  0.18102927450059522  0.10116859881244444  0.030526183581237057  1.0000
  H   H444      1.0  0.1424613048501416  0.08101687431899778  0.028854059629822817  1.0000
  N   N22       1.0  0.8244113412571736  0.34561681371983655  0.7802242583612592  1.0000
  C   C373      1.0  0.8256634309090043  0.3727550037304671  0.7702798770552495  1.0000
  C   C374      1.0  0.8273579016501305  0.33055101519548635  0.7530867862602193  1.0000
  C   C375      1.0  0.7966181349904015  0.32683049808722897  0.7957373373601531  1.0000
  C   C376      1.0  0.8481512812132589  0.35226340235718007  0.8018067071782682  1.0000
  H   H445      1.0  0.8081936698008266  0.36868320557854406  0.753786809731712  1.0000
  H   H446      1.0  0.8465979094646907  0.38732401469385985  0.7586675374812412  1.0000
  H   H447      1.0  0.8235584734623321  0.3847508970420086  0.7901748898986263  1.0000
  H   H448      1.0  0.8268259969067605  0.3101086901097518  0.7598205560943128  1.0000
  H   H449      1.0  0.8096473208247946  0.3249300177374607  0.7364195439459457  1.0000
  H   H450      1.0  0.8480609594062195  0.34413695053603777  0.7407655633007006  1.0000
  H   H451      1.0  0.7952603065400696  0.3061565409261858  0.8033001212276671  1.0000
  H   H452      1.0  0.7781455863815716  0.32131039979484805  0.7801626086065424  1.0000
  H   H453      1.0  0.7937171208386206  0.33733495432623173  0.8165310121670911  1.0000
  H   H454      1.0  0.8476717665931285  0.33223019151077804  0.8100325140157514  1.0000
  H   H455      1.0  0.846837610187097  0.3638946624051567  0.8224506232818732  1.0000
  H   H456      1.0  0.8695076989515396  0.36609580398064034  0.7907442751806476  1.0000
  N   N23       1.0  0.23462467383787403  0.8543007582977293  0.18962123581094245  1.0000
  C   C377      1.0  0.2561272981442882  0.8457668854547705  0.1984360768078206  1.0000
  C   C378      1.0  0.2376136244955072  0.8612858860832117  0.15643489017934303  1.0000
  C   C379      1.0  0.23947388100215442  0.8798844098161993  0.20745821710185713  1.0000
  C   C380      1.0  0.2054133092940356  0.8303314200127504  0.19627844402769645  1.0000
  H   H457      1.0  0.25526705083927825  0.8414284853720724  0.22355635954626904  1.0000
  H   H458      1.0  0.2783804782771324  0.863048385275909  0.19283754816939036  1.0000
  H   H459      1.0  0.25260563999551283  0.8259542572222812  0.1862611176628009  1.0000
  H   H460      1.0  0.23380041351805825  0.842393849985231  0.14222590587784176  1.0000
  H   H461      1.0  0.22228316222828162  0.8685970358972182  0.14901226299316916  1.0000
  H   H462      1.0  0.2596990868295057  0.878977888371411  0.1508519033985134  1.0000
  H   H463      1.0  0.22398554795590644  0.8873095334665198  0.2011089797636525  1.0000
  H   H464      1.0  0.2614927970476431  0.8982559429858937  0.20336616791776535  1.0000
  H   H465      1.0  0.2371456157885432  0.8752910696090618  0.23263605725506806  1.0000
  H   H466      1.0  0.18860590431253688  0.8359268657822331  0.1897343135620976  1.0000
  H   H467      1.0  0.20263414592407575  0.824946445114782  0.2212632238289449  1.0000
  H   H468      1.0  0.2011441538004006  0.8104305020298196  0.183726472101734  1.0000
  N   N24       1.0  0.19109488191734966  0.910230764560705  0.43504652436145647  1.0000
  C   C381      1.0  0.17643980909765544  0.8809715146003163  0.42182868922055233  1.0000
  C   C382      1.0  0.20022341367610486  0.9088232525175277  0.46673235221443043  1.0000
  C   C383      1.0  0.171049593534817  0.921946054289459  0.4355934446308421  1.0000
  C   C384      1.0  0.21663935926994002  0.9290978341339506  0.4161167493869113  1.0000
  H   H469      1.0  0.15698259821147703  0.8662998231279665  0.43560428670280976  1.0000
  H   H470      1.0  0.1909480073272727  0.8714584314476815  0.42136305493861476  1.0000
  H   H471      1.0  0.1693918328988736  0.8812244645227001  0.3978414935708642  1.0000
  H   H472      1.0  0.2103047619035595  0.9303077233314465  0.4778198563744872  1.0000
  H   H473      1.0  0.18165534175781878  0.8940972340119056  0.4814702149445411  1.0000
  H   H474      1.0  0.2164367669840237  0.9013900835817114  0.4671918032233115  1.0000
  H   H475      1.0  0.1516872003680558  0.9084139221903996  0.45003405117254147  1.0000
  H   H476      1.0  0.16358908720721668  0.923279541983465  0.41213824503384655  1.0000
  H   H477      1.0  0.18137044024416052  0.9439965715492358  0.4455590151693019  1.0000
  H   H478      1.0  0.2287183239080003  0.9511359530189425  0.42601021732407246  1.0000
  H   H479      1.0  0.21066929651094812  0.9312649906548949  0.3921911556647704  1.0000
  H   H480      1.0  0.2319893641148268  0.9206210980918431  0.41487284644478634  1.0000
  N   N25       1.0  0.8119199951030891  0.07222965513353818  0.930702028642292  1.0000
  C   C385      1.0  0.8352564285305208  0.07307139876498159  0.9496697753714178  1.0000
  C   C386      1.0  0.789400921444505  0.07194977403795044  0.9509309525725858  1.0000
  C   C387      1.0  0.7992599730135628  0.04602612922758209  0.9114936128308592  1.0000
  C   C388      1.0  0.8237661717383485  0.09798910557523621  0.9106778269196035  1.0000
  H   H481      1.0  0.8268493334138339  0.054978069964972454  0.9665214051275648  1.0000
  H   H482      1.0  0.8462435744483068  0.0933085169443233  0.9631970872512056  1.0000
  H   H483      1.0  0.8519100666544431  0.07172031527555878  0.9353579617413732  1.0000
  H   H484      1.0  0.7717504413224568  0.07198387738135326  0.937466405365141  1.0000
  H   H485      1.0  0.7793804008407067  0.05238860025289993  0.9657392632865824  1.0000
  H   H486      1.0  0.7983249222795532  0.09083891298110491  0.966640741413349  1.0000
  H   H487      1.0  0.8154367458470475  0.04553521894160162  0.8956225889171802  1.0000
  H   H488      1.0  0.7810959604358284  0.04431681317260017  0.8974120016324507  1.0000
  H   H489      1.0  0.7903419233539565  0.026167134769279343  0.9258577469949684  1.0000
  H   H490      1.0  0.8067212906181611  0.0978473022818862  0.8958971299802971  1.0000
  H   H491      1.0  0.8410894983108649  0.09907101543695296  0.895376906718951  1.0000
  H   H492      1.0  0.8332128121069592  0.11810728055757691  0.9245684515107019  1.0000
  N   N26       1.0  0.19229579556480997  0.48934109910288287  0.3023344432674634  1.0000
  C   C389      1.0  0.18014012311894773  0.47998522188098647  0.2713302041706196  1.0000
  C   C390      1.0  0.16950668676371397  0.4738220442703781  0.3256296089633176  1.0000
  C   C391      1.0  0.20340032052448523  0.5206635453789604  0.3052666892554226  1.0000
  C   C392      1.0  0.2159300321310466  0.4827429944332091  0.30698325669483234  1.0000
  H   H493      1.0  0.1967904919532472  0.49054444931879154  0.2530352551932537  1.0000
  H   H494      1.0  0.16255854791559507  0.485086765397805  0.2667738719490834  1.0000
  H   H495      1.0  0.17091865942469397  0.4563654633047435  0.26878827974368813  1.0000
  H   H496      1.0  0.16093787371674914  0.45009227615271824  0.32418098303568293  1.0000
  H   H497      1.0  0.1777344719044987  0.48050468491678056  0.3493717348855887  1.0000
  H   H498      1.0  0.1510455154100221  0.47784248659822554  0.32233768889167996  1.0000
  H   H499      1.0  0.21263858191252238  0.5285459390692853  0.32845233153596953  1.0000
  H   H500      1.0  0.185964190634719  0.5261923469276315  0.3016696713393224  1.0000
  H   H501      1.0  0.22058610111065374  0.5329549610400872  0.2879205347355414  1.0000
  H   H502      1.0  0.20796926340397667  0.45914129803977355  0.3056567628050222  1.0000
  H   H503      1.0  0.22605255578283534  0.4900294564830725  0.32991894823938417  1.0000
  H   H504      1.0  0.23308885178086428  0.493206743304051  0.28914159319381855  1.0000
  N   N27       1.0  0.27285833535699217  0.29498037450306774  0.2879941332035918  1.0000
  C   C393      1.0  0.27338086585635957  0.2719750983739665  0.26948207907801475  1.0000
  C   C394      1.0  0.25336286496  0.3038211929543396  0.2735130803225971  1.0000
  C   C395      1.0  0.302199218842741  0.31992341163150534  0.2893256947128564  1.0000
  C   C396      1.0  0.26266852889920517  0.28442660126723435  0.3195786977316058  1.0000
  H   H505      1.0  0.2881515845764206  0.2650090057405173  0.27953186479522124  1.0000
  H   H506      1.0  0.2809944438254717  0.27953675809082845  0.24550486921668374  1.0000
  H   H507      1.0  0.2516091316676192  0.2527187416311468  0.26792499280110293  1.0000
  H   H508      1.0  0.2522286335784678  0.32097660049817295  0.28707651738236456  1.0000
  H   H509      1.0  0.2608665444364733  0.3125017099642536  0.24985795131098346  1.0000
  H   H510      1.0  0.2311024134340976  0.2854268618049545  0.2715809874994518  1.0000
  H   H511      1.0  0.302363975240782  0.3382586287295253  0.30169699211037876  1.0000
  H   H512      1.0  0.3111106948173446  0.32775845774317436  0.26595866988069733  1.0000
  H   H513      1.0  0.31730287162843285  0.3143704640534895  0.3011110299352414  1.0000
  H   H514      1.0  0.2405187160755739  0.2656354395454015  0.31961807309531154  1.0000
  H   H515      1.0  0.26230827581419625  0.30151994997944254  0.3340705470408016  1.0000
  H   H516      1.0  0.27698157437289417  0.2777197352513536  0.33130503242345727  1.0000
  N   N28       1.0  0.15008883748042107  0.7368165812378891  0.35757608972748495  1.0000
  C   C397      1.0  0.14024908824411886  0.7268932681879486  0.3893865272919989  1.0000
  C   C398      1.0  0.14998203802732513  0.7131531557820318  0.33973894361057577  1.0000
  C   C399      1.0  0.17961911814926995  0.7616385934388714  0.35806111310870165  1.0000
  C   C400      1.0  0.1304508630759164  0.7455028987713038  0.3431269541646872  1.0000
  H   H517      1.0  0.14004194971706943  0.7441727049001717  0.4035599593261349  1.0000
  H   H518      1.0  0.15427477132849948  0.7197650983322388  0.4009234011433566  1.0000
  H   H519      1.0  0.11792630043121059  0.7082758966264425  0.389759258488037  1.0000
  H   H520      1.0  0.15634974878257085  0.7194483906501936  0.3153290024399405  1.0000
  H   H521      1.0  0.1651015138473261  0.7064913322596331  0.3494121138381946  1.0000
  H   H522      1.0  0.12823324375592726  0.6938052577283627  0.33966971686372605  1.0000
  H   H523      1.0  0.1879863711521796  0.7690731707049143  0.3343642712257305  1.0000
  H   H524      1.0  0.194869845742104  0.7559858571433727  0.3693853537350872  1.0000
  H   H525      1.0  0.18045707817673473  0.7802583364463044  0.3705374530293841  1.0000
  H   H526      1.0  0.10808970298012013  0.7270861151430988  0.3418534973480197  1.0000
  H   H527      1.0  0.13736896310824281  0.7534843612019749  0.31926518846225216  1.0000
  H   H528      1.0  0.12945003779627445  0.762861495240929  0.3563428445489836  1.0000
  N   N29       1.0  0.6960761737197616  0.8921356748681925  0.08830997409868763  1.0000
  C   C401      1.0  0.6886491942787916  0.8926683208225921  0.055726615334631906  1.0000
  C   C402      1.0  0.6700716781716459  0.8828279031847334  0.10763817013825094  1.0000
  C   C403      1.0  0.7182853253319222  0.9212902226991353  0.09766841834766792  1.0000
  C   C404      1.0  0.7073836834266193  0.8719303201980181  0.09205480492571515  1.0000
  H   H529      1.0  0.7079540959442493  0.9002743397558599  0.040606104223717146  1.0000
  H   H530      1.0  0.6796033417955532  0.9073667900404895  0.052121355744334553  1.0000
  H   H531      1.0  0.6724022398873972  0.8709401221046015  0.047583549397786605  1.0000
  H   H532      1.0  0.674868994898114  0.8824663730363062  0.13246096803446006  1.0000
  H   H533      1.0  0.6611433071706546  0.8977691902734648  0.10501748973975951  1.0000
  H   H534      1.0  0.6528037729868008  0.8609078137357113  0.10124606219734687  1.0000
  H   H535      1.0  0.7240048148557312  0.9219319614334074  0.12231412296743219  1.0000
  H   H536      1.0  0.7107330504442463  0.9372103815513532  0.09434680515851607  1.0000
  H   H537      1.0  0.738394685534327  0.9288311624198268  0.0838844400269847  1.0000
  H   H538      1.0  0.7270775093447853  0.878633733216273  0.07766415908381699  1.0000
  H   H539      1.0  0.6913293042460457  0.8497295478810453  0.08490823424434225  1.0000
  H   H540      1.0  0.713272559246541  0.8709568429637656  0.11635527329697798  1.0000
  N   N30       1.0  0.95409147551947  0.20946254297354341  0.3999599993256665  1.0000
  C   C405      1.0  0.9532067171215429  0.23033487184488644  0.4216560232764971  1.0000
  C   C406      1.0  0.9842609816469933  0.21945699312142386  0.39060398459233725  1.0000
  C   C407      1.0  0.9368562849400334  0.20722497025440942  0.3725630721944589  1.0000
  C   C408      1.0  0.9420455444884777  0.18096486657278432  0.4150870588461849  1.0000
  H   H541      1.0  0.9615589410622233  0.251971231671582  0.41092172635079033  1.0000
  H   H542      1.0  0.9668084696018736  0.23319066255874057  0.4419482369188739  1.0000
  H   H543      1.0  0.9309887083438431  0.22300762889234702  0.43041256646843606  1.0000
  H   H544      1.0  0.9858948773883083  0.20453670476674227  0.3738902406202973  1.0000
  H   H545      1.0  0.9942667866146739  0.24129102657442952  0.37988278768728845  1.0000
  H   H546      1.0  0.9978406514126416  0.2212050807263782  0.4107540528328746  1.0000
  H   H547      1.0  0.9140579839888197  0.2000278018854166  0.37897709111616845  1.0000
  H   H548      1.0  0.9368758960413974  0.19150044134793515  0.35574320756701183  1.0000
  H   H549      1.0  0.9455336511246758  0.22839793928350846  0.36060598509488895  1.0000
  H   H550      1.0  0.9542605116103112  0.1819865977288392  0.4361759401618924  1.0000
  H   H551      1.0  0.9425417550850649  0.1646216231339151  0.3995895791207751  1.0000
  H   H552      1.0  0.919320762489158  0.1728391754480612  0.4226044062306589  1.0000
  N   N31       1.0  0.6483273201909648  0.6465978612400818  0.547019615678748  1.0000
  C   C409      1.0  0.6669289172684794  0.6378313733154154  0.5301430375749582  1.0000
  C   C410      1.0  0.6647207407242949  0.6777756710423649  0.5535114171079628  1.0000
  C   C411      1.0  0.6386632243879864  0.6304289247843605  0.5763312528594274  1.0000
  C   C412      1.0  0.623088270194619  0.6404892011335674  0.527975655804704  1.0000
  H   H553      1.0  0.6552695106568834  0.614450443604752  0.5246897230082754  1.0000
  H   H554      1.0  0.6862088806363648  0.6421008593323275  0.5438327622501452  1.0000
  H   H555      1.0  0.6747141330373864  0.6498166497511549  0.5079628153820268  1.0000
  H   H556      1.0  0.6517417378249445  0.6851341344043052  0.5669783863040211  1.0000
  H   H557      1.0  0.684383578032137  0.683312869061131  0.5670217346999936  1.0000
  H   H558      1.0  0.671743092685125  0.6906372699740619  0.531890693330784  1.0000
  H   H559      1.0  0.6244018445549039  0.6363360415806679  0.5895770737425161  1.0000
  H   H560      1.0  0.6572185023976402  0.6350034756835143  0.5914325951720799  1.0000
  H   H561      1.0  0.626678487560457  0.6067611317930888  0.5724578341406883  1.0000
  H   H562      1.0  0.6087528604702571  0.6471820293301086  0.5397933851570227  1.0000
  H   H563      1.0  0.6101460018659949  0.6171404064804823  0.5226444797988786  1.0000
  H   H564      1.0  0.6298355955122368  0.6523305300675096  0.5056131955084068  1.0000
  N   N32       1.0  0.9103139535537736  0.7161792595140692  0.9292008305241855  1.0000
  C   C413      1.0  0.9178154093939345  0.7020132045988996  0.953879486630837  1.0000
  C   C414      1.0  0.8813181003527328  0.7123401665268684  0.9352887216176957  1.0000
  C   C415      1.0  0.9106667549502957  0.7031658033128391  0.8992849182872323  1.0000
  C   C416      1.0  0.9316007796294323  0.7472442025045637  0.9284908339141209  1.0000
  H   H565      1.0  0.9024175913702388  0.6785021157293182  0.955160062718884  1.0000
  H   H566      1.0  0.9178175886764969  0.7113319085893096  0.9767086226661778  1.0000
  H   H567      1.0  0.9396472444877401  0.7047343717988447  0.9502593549355721  1.0000
  H   H568      1.0  0.875000304977933  0.7230608619238821  0.9173675577994435  1.0000
  H   H569      1.0  0.8647585128646332  0.6891395190058549  0.9360014572449052  1.0000
  H   H570      1.0  0.8804296540795564  0.7217791073644311  0.9578793636441454  1.0000
  H   H571      1.0  0.9041559273094965  0.7126035031810322  0.8801872176028478  1.0000
  H   H572      1.0  0.895996116029412  0.6794447262297256  0.8994013415248926  1.0000
  H   H573      1.0  0.9326298381091603  0.7068436710996774  0.8936318206221905  1.0000
  H   H574      1.0  0.92680863407987  0.7586595119469345  0.9099807841809594  1.0000
  H   H575      1.0  0.9538064954115566  0.7508415069262503  0.9242840195115308  1.0000
  H   H576      1.0  0.931861238596129  0.7577887541206955  0.9507005524153738  1.0000
  N   N33       1.0  0.9642327153495232  0.56413586641009  0.8603550664387408  1.0000
  C   C417      1.0  0.9727660281338605  0.5947618122030893  0.8651834336214538  1.0000
  C   C418      1.0  0.9825150378383632  0.5618464492399207  0.8360486178720667  1.0000
  C   C419      1.0  0.9337623735331717  0.5481425217204775  0.8508968985585924  1.0000
  C   C420      1.0  0.9677931793505387  0.551721699146289  0.8893025112717254  1.0000
  H   H577      1.0  0.9957195281956065  0.6076821015494863  0.8719803570143915  1.0000
  H   H578      1.0  0.9594471288403336  0.597252356165652  0.8834831671229256  1.0000
  H   H579      1.0  0.9697792920087139  0.6046780243911803  0.8439482290199044  1.0000
  H   H580      1.0  0.9801899844995307  0.5708815105951882  0.8138276442906346  1.0000
  H   H581      1.0  0.005679355206025916  0.5735946050289373  0.8422882050122632  1.0000
  H   H582      1.0  0.9763726023145426  0.5389674829095593  0.8315021213582007  1.0000
  H   H583      1.0  0.9192347086474617  0.549625495972866  0.868429748246334  1.0000
  H   H584      1.0  0.9265586133790094  0.5249916665937153  0.8466250185409318  1.0000
  H   H585      1.0  0.930398557046704  0.5569789929480131  0.8291802979622406  1.0000
  H   H586      1.0  0.9615328021721464  0.52861969169038  0.8863902816151189  1.0000
  H   H587      1.0  0.954139773917397  0.55303708147661  0.9080296118578506  1.0000
  H   H588      1.0  0.9905285953685442  0.5633348215763843  0.8971968380412018  1.0000
  N   N34       1.0  0.7948155196591158  0.08836936046102094  0.5939172099103747  1.0000
  C   C421      1.0  0.7790002287903337  0.060084339592965934  0.6094414916043362  1.0000
  C   C422      1.0  0.8142349906547226  0.08722412723922524  0.5702531760518266  1.0000
  C   C423      1.0  0.8118772587661047  0.11069823076450014  0.6168090069720308  1.0000
  C   C424      1.0  0.7741150725032421  0.09540515077337278  0.5791085180355722  1.0000
  H   H589      1.0  0.7642375601069056  0.060131249648540816  0.6276552279248785  1.0000
  H   H590      1.0  0.7939019954457874  0.05370320334559312  0.6202917420667199  1.0000
  H   H591      1.0  0.7655427986859504  0.042888975515835  0.5928665444694043  1.0000
  H   H592      1.0  0.8266975172434862  0.10818945353607341  0.5580356020008326  1.0000
  H   H593      1.0  0.8300115703190565  0.08159455861859417  0.5803441498970741  1.0000
  H   H594      1.0  0.8019911555798341  0.07061581993317734  0.55255606597221  1.0000
  H   H595      1.0  0.8242943922287119  0.13230681390362797  0.6058309520530175  1.0000
  H   H596      1.0  0.8275981614372278  0.10590065846952629  0.628480779475809  1.0000
  H   H597      1.0  0.797763398287687  0.11219795426244802  0.634874504708031  1.0000
  H   H598      1.0  0.757979894026187  0.09478085877546936  0.5959357630592198  1.0000
  H   H599      1.0  0.7618931870251751  0.07970625840843279  0.5606529388316481  1.0000
  H   H600      1.0  0.7851758855323423  0.1171399922899671  0.5682822013890596  1.0000
  N   N35       1.0  0.7911302066964558  0.8287552908495468  0.5987535051244431  1.0000
  C   C425      1.0  0.7909119319847308  0.8258648932004695  0.6325771157190608  1.0000
  C   C426      1.0  0.8157416064684208  0.8267938558038797  0.5855612640822542  1.0000
  C   C427      1.0  0.7938101093850422  0.8569048509281464  0.5905081467467176  1.0000
  C   C428      1.0  0.7640061943492198  0.8053247217105246  0.5862844691234472  1.0000
  H   H601      1.0  0.7884935590864557  0.8046061296042291  0.6394245186251811  1.0000
  H   H602      1.0  0.7726788184067944  0.8274420647722824  0.6431993598958426  1.0000
  H   H603      1.0  0.8112127536451924  0.842930030028562  0.6428555221119411  1.0000
  H   H604      1.0  0.8162308005220964  0.8285017589035513  0.5599487040939355  1.0000
  H   H605      1.0  0.8366446446560112  0.8443251163853374  0.5941336332597554  1.0000
  H   H606      1.0  0.8145296562044891  0.8058725881017932  0.591453345255273  1.0000
  H   H607      1.0  0.7955070958657261  0.8602505135195894  0.5651507207340416  1.0000
  H   H608      1.0  0.8134054462805046  0.8750805846913045  0.6006599551664847  1.0000
  H   H609      1.0  0.7748171864885373  0.8586275606626838  0.5984653728484056  1.0000
  H   H610      1.0  0.7636984253516398  0.8064258305358641  0.5607998025691165  1.0000
  H   H611      1.0  0.744902128774718  0.8063134346173265  0.5951819708390642  1.0000
  H   H612      1.0  0.7611294631880434  0.7837884662722328  0.5924545049974015  1.0000
  N   N36       1.0  0.9255860369390647  0.1745067544863222  0.11684425628316245  1.0000
  C   C429      1.0  0.9194017309539478  0.1583696320395778  0.14608940291108619  1.0000
  C   C430      1.0  0.9534952421958335  0.17944578091050412  0.10437944044672785  1.0000
  C   C431      1.0  0.9268777247575818  0.20251642549586366  0.1222107079446232  1.0000
  C   C432      1.0  0.9026315650193684  0.15771007563270784  0.09450452288504356  1.0000
  H   H613      1.0  0.9182685024287601  0.13712099571473793  0.14260355275455086  1.0000
  H   H614      1.0  0.8984555384033985  0.15423877751087525  0.15611925988670006  1.0000
  H   H615      1.0  0.9364625880416405  0.17048071911686966  0.16335097996859108  1.0000
  H   H616      1.0  0.9534113486497461  0.15883098296072115  0.09978583949456535  1.0000
  H   H617      1.0  0.9585011685483367  0.19122893354062143  0.08219428379654747  1.0000
  H   H618      1.0  0.9715906461339519  0.1926821341054844  0.12016222461954171  1.0000
  H   H619      1.0  0.9062065223065516  0.19974788127387735  0.13154378282838294  1.0000
  H   H620      1.0  0.9316512399359423  0.21522249524842632  0.10047497796374151  1.0000
  H   H621      1.0  0.9442882310673436  0.2160323449220165  0.13861220851643666  1.0000
  H   H622      1.0  0.9066563839481945  0.1695731592328378  0.07234388241923029  1.0000
  H   H623      1.0  0.881093353256428  0.15314118858202871  0.10307406910976652  1.0000
  H   H624      1.0  0.901464988919356  0.13669030323648707  0.08928333651329423  1.0000
  N   N37       1.0  0.7759014783242664  0.14853051977226245  0.8327275798981224  1.0000
  C   C433      1.0  0.769276295653386  0.11847305093887844  0.8379861729129647  1.0000
  C   C434      1.0  0.7970564965604757  0.16756237219788836  0.8556511784572426  1.0000
  C   C435      1.0  0.7492029456340974  0.1503387563309344  0.8358931751846107  1.0000
  C   C436      1.0  0.7880451759455956  0.15778637959404948  0.8014530281201921  1.0000
  H   H625      1.0  0.7531013527834238  0.10356623516571946  0.8212520276745823  1.0000
  H   H626      1.0  0.7598369833967438  0.11071485341647423  0.8612995806491485  1.0000
  H   H627      1.0  0.7887676803957921  0.1160876831835043  0.8356365542174499  1.0000
  H   H628      1.0  0.8024638142809916  0.19043393549126528  0.852233472791276  1.0000
  H   H629      1.0  0.7885309250590439  0.16127854343149278  0.8795087333782904  1.0000
  H   H630      1.0  0.8175471152990588  0.1668794599176707  0.8538824040868148  1.0000
  H   H631      1.0  0.7534740846247655  0.17285385441238318  0.833493028516508  1.0000
  H   H632      1.0  0.7386652026886299  0.14213759688400307  0.8586874524025889  1.0000
  H   H633      1.0  0.7331420280514114  0.13716599142967642  0.8181510788916652  1.0000
  H   H634      1.0  0.807148383473015  0.15497316544707207  0.7975273597995521  1.0000
  H   H635      1.0  0.7951422140353263  0.1809407667030352  0.7975091156239007  1.0000
  H   H636      1.0  0.7719604162616693  0.1453881347559958  0.7833670133357367  1.0000
  N   N38       1.0  0.06256405677250637  0.26953316318073883  0.6184238664688398  1.0000
  C   C437      1.0  0.03257593756829567  0.24635219906628514  0.6141283711798211  1.0000
  C   C438      1.0  0.08056460248575552  0.2567352897425362  0.6274569883322042  1.0000
  C   C439      1.0  0.06322608816102478  0.28934257131858493  0.6425974265849449  1.0000
  C   C440      1.0  0.07378922143368767  0.2856743660556354  0.5893386310921302  1.0000
  H   H637      1.0  0.0184108086141714  0.25519006548944667  0.6070003437154424  1.0000
  H   H638      1.0  0.023323532247225016  0.23380866458855548  0.6356477026795787  1.0000
  H   H639      1.0  0.031215176938285044  0.230928806162701  0.5961036371752373  1.0000
  H   H640      1.0  0.0726938612708617  0.24421963120796358  0.6492303136059893  1.0000
  H   H641      1.0  0.08032293332758254  0.24173475262786276  0.6093768807328658  1.0000
  H   H642      1.0  0.10340333378975124  0.2735711032080128  0.6307540424563556  1.0000
  H   H643      1.0  0.08548120454344695  0.3072668368583503  0.6463892330515607  1.0000
  H   H644      1.0  0.05481121314095607  0.2779148100453267  0.6648912402240237  1.0000
  H   H645      1.0  0.04964241004095721  0.29913032618032404  0.6361336820941144  1.0000
  H   H646      1.0  0.09640647840350325  0.303297151226412  0.5916680868914918  1.0000
  H   H647      1.0  0.06070727585713729  0.2956291559033339  0.5817776498564006  1.0000
  H   H648      1.0  0.07351879678817043  0.2713602995854787  0.5705265350371477  1.0000
  N   N39       1.0  0.5276999397803293  0.36903729835208665  0.7217611498440183  1.0000
  C   C441      1.0  0.542860982695653  0.35238384538191597  0.7170942204322179  1.0000
  C   C442      1.0  0.5167835060092177  0.36493735406933764  0.7536913968453007  1.0000
  C   C443      1.0  0.5032310696977996  0.35870834969583076  0.7003029838082966  1.0000
  C   C444      1.0  0.547702801394626  0.3999710538658177  0.7160846415165197  1.0000
  H   H649      1.0  0.55136610777655  0.3548869898762565  0.6932035996621576  1.0000
  H   H650      1.0  0.5281109315894721  0.3289333234592005  0.7212270025955877  1.0000
  H   H651      1.0  0.5613100660098309  0.35951917943585293  0.7331274218048558  1.0000
  H   H652      1.0  0.502378403576516  0.3417027957987225  0.7590521546194826  1.0000
  H   H653      1.0  0.5345939135338607  0.37360497848866087  0.7706671851818697  1.0000
  H   H654      1.0  0.5041574714102488  0.3761942086125449  0.7575405864080651  1.0000
  H   H655      1.0  0.48758720111771253  0.33546181729517077  0.7041967502602374  1.0000
  H   H656      1.0  0.5105244376590272  0.3613769943794994  0.6759318920469327  1.0000
  H   H657      1.0  0.4912742274016769  0.3708358677338644  0.7033244303991746  1.0000
  H   H658      1.0  0.5658511387278513  0.4089000194021834  0.732693046614822  1.0000
  H   H659      1.0  0.5365426143849844  0.4128706188053683  0.7185775616963699  1.0000
  H   H660      1.0  0.5569555874308674  0.4038795398205602  0.6924467886573045  1.0000
  N   N40       1.0  0.06370033976118579  0.7510202386315793  0.6160535528422354  1.0000
  C   C445      1.0  0.053377582039415415  0.7340090915067681  0.5875144157509526  1.0000
  C   C446      1.0  0.056353256314311345  0.7313039745773744  0.6426658961647377  1.0000
  C   C447      1.0  0.04983938549283364  0.7690308095845518  0.6197605356293022  1.0000
  C   C448      1.0  0.09526314141084274  0.7697930065297176  0.614151399503497  1.0000
  H   H661      1.0  0.06279067834043632  0.7196202360265467  0.5841920219195442  1.0000
  H   H662      1.0  0.059214747096868865  0.7482756047311226  0.5669772269127031  1.0000
  H   H663      1.0  0.029554804526667974  0.7201446880269105  0.5876580561845692  1.0000
  H   H664      1.0  0.06342814091194468  0.7433403472789588  0.66469481892379  1.0000
  H   H665      1.0  0.03272068830598205  0.7165773233958612  0.6444448551826174  1.0000
  H   H666      1.0  0.06658987970432592  0.7175037919840049  0.640684865654445  1.0000
  H   H667      1.0  0.05724825889755748  0.7823519308545793  0.6409328917625795  1.0000
  H   H668      1.0  0.026003260869810477  0.7556361528692993  0.6212338908341956  1.0000
  H   H669      1.0  0.05485976925520104  0.7840613695546366  0.5999250172345582  1.0000
  H   H670      1.0  0.10384858467351157  0.7829768195920223  0.6352909225255089  1.0000
  H   H671      1.0  0.10141870187026068  0.7850341291997345  0.5943404895570965  1.0000
  H   H672      1.0  0.10644591203187168  0.7569941624568216  0.6109368918834488  1.0000
  N   N41       1.0  0.2909891919181954  0.07887367696079792  0.9340618195813024  1.0000
  C   C449      1.0  0.2773392452310501  0.09669691170696411  0.9277888662661639  1.0000
  C   C450      1.0  0.31765731984915746  0.08939497940781779  0.915580526854055  1.0000
  C   C451      1.0  0.27083526801073676  0.04863785426199617  0.9258990159818284  1.0000
  C   C452      1.0  0.29801683801502415  0.08062782020619533  0.9670962812667209  1.0000
  H   H673      1.0  0.2718129638230564  0.09599336257891256  0.9030543929801244  1.0000
  H   H674      1.0  0.29170894341084336  0.11961101341990937  0.9341400120048733  1.0000
  H   H675      1.0  0.25701378976804584  0.08893432569196709  0.941313330226431  1.0000
  H   H676      1.0  0.32833006825173006  0.07624930095683388  0.9199640609742622  1.0000
  H   H677      1.0  0.31317953101541435  0.08815108380526025  0.8904835575932761  1.0000
  H   H678      1.0  0.3334148371503853  0.1121623277149405  0.921098001992404  1.0000
  H   H679      1.0  0.28007800524347104  0.03438579422654792  0.9312068230544918  1.0000
  H   H680      1.0  0.26559133092428666  0.046288349749531534  0.9009792827579972  1.0000
  H   H681      1.0  0.25016926780186394  0.04026975400486211  0.9388791273723947  1.0000
  H   H682      1.0  0.27827272260625435  0.07215110889699476  0.9816364219981168  1.0000
  H   H683      1.0  0.31260262153686375  0.10321428179415176  0.9743279540333531  1.0000
  H   H684      1.0  0.30873039139102726  0.06777208239804458  0.9726023858326034  1.0000
  N   N42       1.0  0.6852357287064638  0.005956745915030545  0.2939298572336173  1.0000
  C   C453      1.0  0.6849481865319001  0.9784694023238647  0.28826653738602276  1.0000
  C   C454      1.0  0.6668500684273622  0.0027833732758261705  0.3208943231886445  1.0000
  C   C455      1.0  0.6741806187703401  0.013772792170538456  0.2665414787660523  1.0000
  C   C456      1.0  0.7150469036957108  0.02878517239225896  0.29999446974992955  1.0000
  H   H685      1.0  0.6943171061793558  0.9724887619542717  0.3078330260812604  1.0000
  H   H686      1.0  0.6973980818113394  0.9795805681768691  0.2671545932753255  1.0000
  H   H687      1.0  0.6626288382475949  0.9605366014990625  0.28476597861777936  1.0000
  H   H688      1.0  0.6656378880689253  0.022727722619013686  0.3252306195799077  1.0000
  H   H689      1.0  0.644420454885729  0.9849048854460994  0.3177088102927401  1.0000
  H   H690      1.0  0.6751336090065392  0.9978404497771693  0.3421787242569567  1.0000
  H   H691      1.0  0.6740475135541003  0.034401767983441106  0.26980155385415194  1.0000
  H   H692      1.0  0.6517928659385422  0.9969202447891259  0.2612132715198462  1.0000
  H   H693      1.0  0.6872888286172054  0.01588875219183771  0.24564117464750104  1.0000
  H   H694      1.0  0.7239896547622814  0.023529940929453465  0.32058794912558947  1.0000
  H   H695      1.0  0.7160793688803577  0.04985732897664371  0.3043121041209279  1.0000
  H   H696      1.0  0.7294841690548511  0.031580531465465043  0.28013226487700743  1.0000
  N   N43       1.0  0.9974986009543091  0.5915139751804741  0.18723262801346366  1.0000
  C   C457      1.0  0.9839659176375699  0.5755986063520004  0.1587603733787481  1.0000
  C   C458      1.0  0.028481133169635367  0.6109590551336346  0.18154038178867354  1.0000
  C   C459      1.0  0.9939016061290896  0.5709431053542874  0.2119901282428343  1.0000
  C   C460      1.0  0.9838371313581922  0.6087125168125483  0.19662792752733155  1.0000
  H   H697      1.0  0.9605936574425902  0.5604581860225449  0.16227140544116664  1.0000
  H   H698      1.0  0.9941856813692848  0.5628201481039588  0.15084004295232237  1.0000
  H   H699      1.0  0.9861343134162162  0.5905968879021598  0.139752818253372  1.0000
  H   H700      1.0  0.038681795638194634  0.6247283550359589  0.2018508528268594  1.0000
  H   H701      1.0  0.040149585079039124  0.5988162192687628  0.17677336781709935  1.0000
  H   H702      1.0  0.032131044781670136  0.62565675081269  0.16178218491096977  1.0000
  H   H703      1.0  0.00439912518232131  0.5823301945756054  0.23363189978132853  1.0000
  H   H704      1.0  0.004074578829455202  0.5576788170454646  0.2056985889293601  1.0000
  H   H705      1.0  0.9708076880403959  0.5560760232849413  0.21727401026801335  1.0000
  H   H706      1.0  0.9871898899628208  0.6252789634323265  0.17897072825171728  1.0000
  H   H707      1.0  0.993230161216269  0.6205844145115559  0.218411146571396  1.0000
  H   H708      1.0  0.960279772549603  0.5949650113208718  0.20041283263157045  1.0000
  N   N44       1.0  0.32352043379285267  0.976510210931134  0.7334917200419164  1.0000
  C   C461      1.0  0.34875715537641816  0.9750514059218116  0.7452168317897395  1.0000
  C   C462      1.0  0.3272729757157194  0.005389266895513112  0.7395602149398488  1.0000
  C   C463      1.0  0.29719855330942263  0.9546769697023787  0.7493209233922684  1.0000
  C   C464      1.0  0.32102382073117197  0.9712179780973488  0.6999632807897922  1.0000
  H   H709      1.0  0.3463319425957345  0.9532652178913859  0.7420647304816622  1.0000
  H   H710      1.0  0.3520649781232315  0.980302976494694  0.7702253727573275  1.0000
  H   H711      1.0  0.3688312710600469  0.9906881601092639  0.7329644013809669  1.0000
  H   H712      1.0  0.3475445809285505  0.022332038239353036  0.7289334852791214  1.0000
  H   H713      1.0  0.3092110450035179  0.007796265114085266  0.7301067674771914  1.0000
  H   H714      1.0  0.32842868249645857  0.009922596360370184  0.7646415434339775  1.0000
  H   H715      1.0  0.2986957279424569  0.9583083759556993  0.7746826320839654  1.0000
  H   H716      1.0  0.2935870326285787  0.9325362528033483  0.745271086065917  1.0000
  H   H717      1.0  0.27781677844297864  0.9554530256907355  0.7411973736377404  1.0000
  H   H718      1.0  0.30272985599904  0.9730482413669544  0.6901077203563072  1.0000
  H   H719      1.0  0.3177499688283018  0.9494492987712224  0.6944106895277046  1.0000
  H   H720      1.0  0.34085789325983623  0.9872398158721296  0.6875869456661042  1.0000
  N   N45       1.0  0.5936873267213029  0.9918959350984297  0.702702228782599  1.0000
  C   C465      1.0  0.6150724816644582  0.020881475080301533  0.6917185137071368  1.0000
  C   C466      1.0  0.5761866759920838  0.9945696178613357  0.72766907120074  1.0000
  C   C467      1.0  0.608827458637957  0.9768897944574464  0.7144296881848459  1.0000
  C   C468      1.0  0.5748242831178344  0.9754258852831411  0.676964657256725  1.0000
  H   H721      1.0  0.6284890533886451  0.01988117864782373  0.6725308548326271  1.0000
  H   H722      1.0  0.6300243454447622  0.03328176179129508  0.7104230963762475  1.0000
  H   H723      1.0  0.6046998210596024  0.03351317319341293  0.6838902319980761  1.0000
  H   H724      1.0  0.5598951789631559  0.9731838448330878  0.7368036765222966  1.0000
  H   H725      1.0  0.5898613692076113  0.007293870684931324  0.7472811775584985  1.0000
  H   H726      1.0  0.5646516736030393  0.00604217535356504  0.71969617880539  1.0000
  H   H727      1.0  0.5934925514023451  0.954794493908963  0.7226904452450382  1.0000
  H   H728      1.0  0.6231996791516774  0.9887970246619254  0.7339755170086758  1.0000
  H   H729      1.0  0.6228546387675423  0.9751985647411019  0.6963740438964462  1.0000
  H   H730      1.0  0.5583058251229901  0.9534420529436708  0.6844433178665215  1.0000
  H   H731      1.0  0.5874745276898111  0.9730644097126891  0.6578037906048079  1.0000
  H   H732      1.0  0.5633441155708375  0.9864239523244446  0.6675149587735687  1.0000
  N   N46       1.0  0.9257063756724833  0.35723763199503494  0.6501789361189029  1.0000
  C   C469      1.0  0.9327818588019766  0.34372318686954234  0.624317513132408  1.0000
  C   C470      1.0  0.9290496979442261  0.38528886149059133  0.6403671345444477  1.0000
  C   C471      1.0  0.945300797233179  0.36180227277733706  0.6760532426797787  1.0000
  C   C472      1.0  0.895673647141283  0.33810230091627447  0.6602385248119662  1.0000
  H   H733      1.0  0.95561370108983  0.35700076509636797  0.6167967695891668  1.0000
  H   H734      1.0  0.918845600951227  0.34049871127668685  0.6040910839246656  1.0000
  H   H735      1.0  0.9296585879366529  0.3221664403186093  0.6309500248992954  1.0000
  H   H736      1.0  0.9239853712965861  0.3959659738499962  0.6596359121321237  1.0000
  H   H737      1.0  0.9515043720326777  0.4002673473890773  0.632695074129697  1.0000
  H   H738      1.0  0.9144355197985634  0.38274816359274016  0.6210049853050968  1.0000
  H   H739      1.0  0.94082276371609  0.3723693144353105  0.6958035614140471  1.0000
  H   H740      1.0  0.9682472511619873  0.37562962676515266  0.6692861261749781  1.0000
  H   H741      1.0  0.9428494844626534  0.3410101135818617  0.6844833324836513  1.0000
  H   H742      1.0  0.8896776679777076  0.34767404338358704  0.6797885254558013  1.0000
  H   H743      1.0  0.8925147485517323  0.31678216912749363  0.6680456119939997  1.0000
  H   H744      1.0  0.8802138022159437  0.33399587379565615  0.6412922700458272  1.0000
  N   N47       1.0  0.2999955630213225  0.24017952626978106  0.7913130320233546  1.0000
  C   C473      1.0  0.31561750151612916  0.23761658724824689  0.8180821055518676  1.0000
  C   C474      1.0  0.3089922401201632  0.2708353555930772  0.7857737472430035  1.0000
  C   C475      1.0  0.26869560455722413  0.22413522674720257  0.79758757566088  1.0000
  C   C476      1.0  0.30655718140680976  0.22811808557986263  0.7637623059538823  1.0000
  H   H745      1.0  0.310830783317536  0.21503073394189048  0.8216944308840743  1.0000
  H   H746      1.0  0.3096567884255731  0.24468231325130674  0.8396602338030531  1.0000
  H   H747      1.0  0.33937303290712767  0.25116404914760304  0.8151995293475768  1.0000
  H   H748      1.0  0.3326992116335333  0.28389908245014595  0.7821746382217375  1.0000
  H   H749      1.0  0.2987643717870447  0.2736969592583837  0.7647726877785389  1.0000
  H   H750      1.0  0.3031077070998484  0.28031013990226816  0.8053952949263888  1.0000
  H   H751      1.0  0.25631585520845457  0.22572422231667028  0.777848687385893  1.0000
  H   H752      1.0  0.2630179176838422  0.23273933844719832  0.8182675766468572  1.0000
  H   H753      1.0  0.2611223231628645  0.20091014203733892  0.8018857395111746  1.0000
  H   H754      1.0  0.2955834540370031  0.23023440537446768  0.7429800570114489  1.0000
  H   H755      1.0  0.29990087117033215  0.2049646317092804  0.7668441697264959  1.0000
  H   H756      1.0  0.32999288316962455  0.23970667244362792  0.7583809082339258  1.0000
  N   N48       1.0  0.6635856632218098  0.7258183168392053  0.9261373833079793  1.0000
  C   C477      1.0  0.6530915377978345  0.723946573773489  0.9580609541535521  1.0000
  C   C478      1.0  0.6484030525753806  0.6970636462087257  0.9116699143382471  1.0000
  C   C479      1.0  0.6947634142734975  0.7358700169491538  0.9264968676588853  1.0000
  C   C480      1.0  0.6583534329192856  0.746479872143796  0.9084551064488454  1.0000
  H   H757      1.0  0.6651170483168299  0.7450385108542336  0.9701089097423783  1.0000
  H   H758      1.0  0.6559305069768544  0.7078146393974177  0.971700260758363  1.0000
  H   H759      1.0  0.6298240053780718  0.7174057988491117  0.958766500759652  1.0000
  H   H760      1.0  0.6518187968471146  0.6810100376552138  0.9248019543204513  1.0000
  H   H761      1.0  0.6247983237994995  0.6888163990514461  0.9106202163231122  1.0000
  H   H762      1.0  0.6563213527157791  0.6974851531526374  0.8877897760908509  1.0000
  H   H763      1.0  0.7034522703860908  0.7370278300733187  0.9028983272934094  1.0000
  H   H764      1.0  0.6994221631795605  0.7211317333320527  0.94036971790841  1.0000
  H   H765      1.0  0.7070688210067319  0.7577116361666378  0.9367301234485975  1.0000
  H   H766      1.0  0.6350173399449883  0.7396620619423729  0.9076713532629992  1.0000
  H   H767      1.0  0.6662473338741115  0.748526443599287  0.8843188034440109  1.0000
  H   H768      1.0  0.6697170239121814  0.7683571168505737  0.918960803009797  1.0000
