data_image0
_chemical_formula_structural       FeS2FeS2FeSFeS3FeS2FeS2FeSFeS3FeS2FeS2FeSFeS3FeS2FeS2FeSFeS3FeS2FeS2FeSFeS3FeS2FeS2FeSFeS3FeS2FeS2FeSFeS3FeS2FeS2FeSFeS3FeS2FeS2FeSFeS3FeS2FeS2FeSFeS3FeS2FeS2FeSFeS3FeS2FeS2FeSFeS3FeS2FeS2FeSFeS3FeS2FeS2FeSFeS3FeS2FeS2FeSFeS3FeS2FeS2FeSFeS3FeS2FeS2FeSFeS3FeS2FeS2FeSFeS3FeS2FeS2FeSFeS3FeS2FeS2FeSFeS3FeS2FeS2FeSFeS3FeS2FeS2FeSFeS3FeS2FeS2FeSFeS3FeS2FeS2FeSFeS3C6H4C6H4C6H4C6H4C6H4C6H4C6H4C6H4C6H4C6H4C6H4C6H4C6H4C6H4C6H4C6H4C6H4C6H4C6H4C6H4C6H4C6H4C6H4C6H4C6H4C6H4C6H4C6H4C6H4C6H4C6H4C6H4C6H4C6H4C6H4C6H4C6H4C6H4C6H4C6H4C6H4C6H4C6H4C6H4C6H4C6H4C6H4C6H4NC4H12NC4H12NC4H12NC4H12NC4H12NC4H12NC4H12NC4H12NC4H12NC4H12NC4H12NC4H12NC4H12NC4H12NC4H12NC4H12NC4H12NC4H12NC4H12NC4H12NC4H12NC4H12NC4H12NC4H12NC4H12NC4H12NC4H12NC4H12NC4H12NC4H12NC4H12NC4H12NC4H12NC4H12NC4H12NC4H12NC4H12NC4H12NC4H12NC4H12NC4H12NC4H12NC4H12NC4H12NC4H12NC4H12NC4H12NC4H12
_chemical_formula_sum              "Fe96 S192 C480 H768 N48"
_cell_length_a       41.458131972087536
_cell_length_b       45.58204468949423
_cell_length_c       42.3167006501434
_cell_angle_alpha    90.57383161236133
_cell_angle_beta     90.68389066288016
_cell_angle_gamma    90.08593935583637

_space_group_name_H-M_alt    "P 1"
_space_group_IT_number       1

loop_
  _space_group_symop_operation_xyz
  'x, y, z'

loop_
  _atom_site_type_symbol
  _atom_site_label
  _atom_site_symmetry_multiplicity
  _atom_site_fract_x
  _atom_site_fract_y
  _atom_site_fract_z
  _atom_site_occupancy
  Fe  Fe1       1.0  0.675456607898074  0.3712116071657218  0.22853770495579517  1.0000
  S   S1        1.0  0.6412837815205744  0.40521481504893964  0.24692716011780125  1.0000
  S   S2        1.0  0.705656881048414  0.37831417423185854  0.18550893686188566  1.0000
  Fe  Fe2       1.0  0.664332566990914  0.3302290055390733  0.2832696842000208  1.0000
  S   S3        1.0  0.6291553467797055  0.36053886142277786  0.30653244512820643  1.0000
  S   S4        1.0  0.6815859336684844  0.28689202304715106  0.3018354963506625  1.0000
  Fe  Fe3       1.0  0.609320819436153  0.3669850355704186  0.2576069352124548  1.0000
  S   S5        1.0  0.5555999568495916  0.37096406407047783  0.2518183692452637  1.0000
  Fe  Fe4       1.0  0.6640607238301478  0.39596030023463163  0.2939547979839096  1.0000
  S   S6        1.0  0.6767599588385229  0.43088090796827266  0.3297212260236103  1.0000
  S   S7        1.0  0.6414541407846316  0.333407676013336  0.23498239535002713  1.0000
  S   S8        1.0  0.7010935926832355  0.365122639488155  0.2748970077317594  1.0000
  Fe  Fe5       1.0  0.6485859526237572  0.36271372471965685  0.01508024109801287  1.0000
  S   S9        1.0  0.6639168998107021  0.4037912026378707  0.9910753814657101  1.0000
  S   S10       1.0  0.6213199594906375  0.3674959050367388  0.060466360952969866  1.0000
  Fe  Fe6       1.0  0.674517981499287  0.3235242918307709  0.9627850570814447  1.0000
  S   S11       1.0  0.693179744461319  0.36135341088109924  0.9347129721310842  1.0000
  S   S12       1.0  0.6739902645262899  0.27663191302697904  0.9453535662418159  1.0000
  Fe  Fe7       1.0  0.7096256254634763  0.3794158501310527  0.9817144632518489  1.0000
  S   S13       1.0  0.7536300709364162  0.4071155899108125  0.990335692800837  1.0000
  Fe  Fe8       1.0  0.6461257726804175  0.3823755841400127  0.9464873162256278  1.0000
  S   S14       1.0  0.6189712761386281  0.4066399463577087  0.908885425298536  1.0000
  S   S15       1.0  0.6958018543295856  0.33944935893366507  0.009077181607998863  1.0000
  S   S16       1.0  0.6258904751895682  0.3434228039797913  0.9711472613536999  1.0000
  Fe  Fe9       1.0  0.5009321975810698  0.567770491482285  0.9173106785542237  1.0000
  S   S17       1.0  0.4494874477632694  0.5825111648766647  0.9123673376935681  1.0000
  S   S18       1.0  0.5438882759661137  0.5942405541670736  0.9026539760439279  1.0000
  Fe  Fe10      1.0  0.483285354604023  0.5099354079373126  0.9470329751071146  1.0000
  S   S19       1.0  0.4303934136148438  0.5193067871210992  0.945078185114516  1.0000
  S   S20       1.0  0.5023450224869827  0.47115043843439397  0.9734781856528777  1.0000
  Fe  Fe11      1.0  0.439976542588869  0.5361584237067737  0.8964504599815688  1.0000
  S   S21       1.0  0.40463203046868035  0.5223374923147432  0.8583044090693036  1.0000
  Fe  Fe12      1.0  0.44422459465451497  0.5645202903338705  0.9611389944781876  1.0000
  S   S22       1.0  0.4183247001329451  0.5896774497048816  0.9988260415092891  1.0000
  S   S23       1.0  0.49213881737240506  0.5228222071424319  0.8968565542351724  1.0000
  S   S24       1.0  0.49641707083600956  0.5537046793428587  0.9675872505604403  1.0000
  Fe  Fe13      1.0  0.4364128222677895  0.5265333864061497  0.22479134117034968  1.0000
  S   S25       1.0  0.48671628864253685  0.5436409433011438  0.21900736100495422  1.0000
  S   S26       1.0  0.4194877169488988  0.5211021896190436  0.27467224544513713  1.0000
  Fe  Fe14      1.0  0.4239235051093998  0.5224238463703225  0.15446768376132403  1.0000
  S   S27       1.0  0.472712627254679  0.5398199681197223  0.14265656779247574  1.0000
  S   S28       1.0  0.39140548893723304  0.5077572003200963  0.11482237166614243  1.0000
  Fe  Fe15      1.0  0.49021159345114634  0.5096983166567547  0.18057952902264846  1.0000
  S   S29       1.0  0.5348397360147261  0.4837326446745865  0.17025175774924461  1.0000
  Fe  Fe16      1.0  0.4644740595378934  0.5721826581152276  0.18179049791774018  1.0000
  S   S30       1.0  0.47310142759657414  0.6203753532890258  0.17440370551758658  1.0000
  S   S31       1.0  0.44188402403767874  0.489722421458968  0.18964851268289099  1.0000
  S   S32       1.0  0.41372107451140666  0.5575679653749742  0.19025788552505574  1.0000
  Fe  Fe17      1.0  0.7604644905365249  0.5631488084952481  0.9405046454126045  1.0000
  S   S33       1.0  0.8039649730703038  0.5548806084647552  0.971327923919222  1.0000
  S   S34       1.0  0.7195532752876843  0.5309704303615732  0.9338373693108388  1.0000
  Fe  Fe18      1.0  0.7845927769644356  0.622625916136872  0.9206010436931426  1.0000
  S   S35       1.0  0.829677688911595  0.6194999109691485  0.949753924385448  1.0000
  S   S36       1.0  0.7773022681893444  0.6643114006755233  0.8943254553799087  1.0000
  Fe  Fe19      1.0  0.8318065753383937  0.5733989835426352  0.9312017003137864  1.0000
  S   S37       1.0  0.8798314720738947  0.5545595562425444  0.9177081070159872  1.0000
  Fe  Fe20      1.0  0.7973119576426383  0.6016047818462134  0.9868408187797636  1.0000
  S   S38       1.0  0.8011012487307448  0.6184243064141627  0.03671895469320363  1.0000
  S   S39       1.0  0.7890398279605935  0.5779837926785487  0.898709669602372  1.0000
  S   S40       1.0  0.751677204509157  0.6085911114168852  0.9592235685152226  1.0000
  Fe  Fe21      1.0  0.7278443827954919  0.5589299183272984  0.24725281138621952  1.0000
  S   S41       1.0  0.7513106637307153  0.5186545058798893  0.22763584154262362  1.0000
  S   S42       1.0  0.6832619482520756  0.5590357052549039  0.2763161202830045  1.0000
  Fe  Fe22      1.0  0.7803053243033954  0.5991900480088397  0.22468224154916058  1.0000
  S   S43       1.0  0.809319663704536  0.5628084589352069  0.2028768927827891  1.0000
  S   S44       1.0  0.7923457190869543  0.6469957015713982  0.2289636721225169  1.0000
  Fe  Fe23      1.0  0.7608945369504012  0.5464710602781464  0.18544555418584413  1.0000
  S   S45       1.0  0.7500456959151317  0.5284989083580528  0.13695072387891477  1.0000
  Fe  Fe24      1.0  0.7972864944906805  0.538142984151763  0.24682353040043864  1.0000
  S   S46       1.0  0.8303264971627425  0.5103020930674117  0.27622925019995215  1.0000
  S   S47       1.0  0.73301773624152  0.5851138225262298  0.20339778614700507  1.0000
  S   S48       1.0  0.7727923717221195  0.5759487538190662  0.2702661044233552  1.0000
  Fe  Fe25      1.0  0.6010917221189003  0.7344109597369959  0.986669990572165  1.0000
  S   S49       1.0  0.5775209394796192  0.7760078161015058  0.970801437994437  1.0000
  S   S50       1.0  0.5709038670417537  0.6962684443237077  0.0016977641184887649  1.0000
  Fe  Fe26      1.0  0.6679874976533221  0.7604350608462518  0.986265383621123  1.0000
  S   S51       1.0  0.6506698213495434  0.8046099404689703  0.9709999958187675  1.0000
  S   S52       1.0  0.7212355573872431  0.7540373754286063  0.9934630256549595  1.0000
  Fe  Fe27      1.0  0.6110793643824755  0.7977329848122384  0.00571940618645006  1.0000
  S   S53       1.0  0.5905138318026077  0.8345881063317638  0.03443110193361254  1.0000
  Fe  Fe28      1.0  0.6187287442889008  0.7795043796129615  0.9373348098224057  1.0000
  S   S54       1.0  0.6132120541498018  0.7916292871032805  0.8860728816631269  1.0000
  S   S55       1.0  0.6314856697172988  0.7558407018252986  0.024555421013708223  1.0000
  S   S56       1.0  0.6392678829771775  0.7355123377216359  0.9496860927459132  1.0000
  Fe  Fe29      1.0  0.5946673884032673  0.722025711557212  0.24193998604531164  1.0000
  S   S57       1.0  0.5799522073148115  0.7687645706823134  0.2489028724623536  1.0000
  S   S58       1.0  0.5723730429440917  0.683627428159704  0.26624956034142183  1.0000
  Fe  Fe30      1.0  0.6462727284308503  0.7364084218985769  0.19476358295152868  1.0000
  S   S59       1.0  0.6367647363129697  0.7848340519248981  0.1972783113408253  1.0000
  S   S60       1.0  0.6777465047955824  0.7122727441066458  0.16029760161143145  1.0000
  Fe  Fe31      1.0  0.6330627895170761  0.7781689031212382  0.24969682625468143  1.0000
  S   S61       1.0  0.6555217983773565  0.8122518054430719  0.2820542629112728  1.0000
  Fe  Fe32      1.0  0.5846705532409081  0.7720266973210156  0.19653638728135986  1.0000
  S   S62       1.0  0.5468672600020905  0.7972736995682574  0.1704534488069957  1.0000
  S   S63       1.0  0.6477108480585466  0.7307447956452315  0.2473931115562604  1.0000
  S   S64       1.0  0.594196948633547  0.7242868532768075  0.189144715227225  1.0000
  Fe  Fe33      1.0  0.2661630992778207  0.5992151292316439  0.780802369188955  1.0000
  S   S65       1.0  0.27916970054114154  0.5790206483318306  0.7341185105467427  1.0000
  S   S66       1.0  0.30586892125324805  0.6182060587135817  0.8114380160473474  1.0000
  Fe  Fe34      1.0  0.19466276855645223  0.5885427457417434  0.7708766884565773  1.0000
  S   S67       1.0  0.20159712825573053  0.5663755333569175  0.7241955578482587  1.0000
  S   S68       1.0  0.14411793796897973  0.5984827957307252  0.7853831864929375  1.0000
  Fe  Fe35      1.0  0.24343095300628406  0.5443324613125818  0.7473435870899809  1.0000
  S   S69       1.0  0.2517464506458776  0.4963689136236016  0.7381835744716087  1.0000
  Fe  Fe36      1.0  0.23601586196557794  0.602998862162503  0.7153030017679188  1.0000
  S   S70       1.0  0.2275890425687256  0.6236816767986207  0.6683502979009048  1.0000
  S   S71       1.0  0.2333026019252942  0.5627300534514533  0.7956505548281467  1.0000
  S   S72       1.0  0.22639445259734284  0.6269284259095952  0.7604848541260456  1.0000
  Fe  Fe37      1.0  0.928769347556904  0.5097753646090721  0.7600218580460919  1.0000
  S   S73       1.0  0.915635238619857  0.546630543724308  0.7276288596666034  1.0000
  S   S74       1.0  0.8883591717011651  0.48872360776731394  0.7864903309237515  1.0000
  Fe  Fe38      1.0  0.9996675956648886  0.512564472232405  0.7439740325602527  1.0000
  S   S75       1.0  0.9927953192317053  0.5496001769916767  0.7103179623841478  1.0000
  S   S76       1.0  0.049443072360245255  0.4941217130194634  0.7499291184384552  1.0000
  Fe  Fe39      1.0  0.9602423685579206  0.5680870322718561  0.7473204653606871  1.0000
  S   S77       1.0  0.9631654761378536  0.6157349131023357  0.7604674572255062  1.0000
  Fe  Fe40      1.0  0.9491623016461687  0.5246709528083974  0.6938210684818299  1.0000
  S   S78       1.0  0.9375766296020929  0.5174377956560544  0.6424558226037447  1.0000
  S   S79       1.0  0.9707943357521224  0.5332169792791308  0.7827975393619436  1.0000
  S   S80       1.0  0.9585893260527061  0.48571318405712144  0.7243259509244749  1.0000
  Fe  Fe41      1.0  0.9820382427405158  0.7385051402284398  0.5649698815451163  1.0000
  S   S81       1.0  0.01011689800003368  0.7745678708828325  0.5888362202802633  1.0000
  S   S82       1.0  0.9855557151520487  0.7291648512381362  0.5130077050259763  1.0000
  Fe  Fe42      1.0  0.9504436516744442  0.7195491375420733  0.6255045004817353  1.0000
  S   S83       1.0  0.9754258318337156  0.7540910737279454  0.6550184865491058  1.0000
  S   S84       1.0  0.9141300457110351  0.6870076880464133  0.6425760383475541  1.0000
  Fe  Fe43      1.0  0.9640396467736799  0.7837587006878594  0.6143932328500469  1.0000
  S   S85       1.0  0.9492187667354582  0.830879580117197  0.6209278190378653  1.0000
  Fe  Fe44      1.0  0.01910896040980692  0.7416907121005234  0.6270075036438658  1.0000
  S   S86       1.0  0.06822209932786438  0.7356932524180676  0.649091759657805  1.0000
  S   S87       1.0  0.9351421823002624  0.7502319625835181  0.5872100609147358  1.0000
  S   S88       1.0  0.9950767323037802  0.7046605066661665  0.6008105316482208  1.0000
  Fe  Fe45      1.0  0.26888609922643847  0.7612458987402687  0.6006573990933135  1.0000
  S   S89       1.0  0.21829490963321485  0.7776648783390789  0.5965148966780649  1.0000
  S   S90       1.0  0.2881046926976772  0.7490537021525137  0.648445877984229  1.0000
  Fe  Fe46      1.0  0.28071155010307614  0.7654871222023645  0.5307675098840408  1.0000
  S   S91       1.0  0.23103667458473634  0.7825461820397203  0.520328279067436  1.0000
  S   S92       1.0  0.3144927822572393  0.7565279632167913  0.4907539265857082  1.0000
  Fe  Fe47      1.0  0.23892145680808358  0.8104251011252025  0.5635163695772005  1.0000
  S   S93       1.0  0.21729157174681998  0.8551050176234615  0.5686841952815918  1.0000
  Fe  Fe48      1.0  0.21462559688373603  0.7482885542273714  0.5540606494437004  1.0000
  S   S94       1.0  0.17023220901845335  0.7224379607526337  0.541184861573778  1.0000
  S   S95       1.0  0.2904326953439643  0.7967342057736745  0.571236157333209  1.0000
  S   S96       1.0  0.2635654352715507  0.7286652034312568  0.5607767948190711  1.0000
  Fe  Fe49      1.0  0.6140282445722877  0.9811577523060111  0.7568225264432926  1.0000
  S   S97       1.0  0.5815873423679175  0.952296387437841  0.7275684182917008  1.0000
  S   S98       1.0  0.6239551940869239  0.024429972590533255  0.733776561049178  1.0000
  Fe  Fe50      1.0  0.6231906733878436  0.9342514280753533  0.8067437019675923  1.0000
  S   S99       1.0  0.5911717976134054  0.9017887170553939  0.7813285985417686  1.0000
  S   S100      1.0  0.6442083134889667  0.9235415477504548  0.8543229445924682  1.0000
  Fe  Fe51      1.0  0.6172261023963934  0.9169750299382063  0.7383589127624877  1.0000
  S   S101      1.0  0.6337788163717463  0.8886586771059042  0.6982847204757009  1.0000
  Fe  Fe52      1.0  0.5591803236194671  0.940523571204727  0.7734994241554712  1.0000
  S   S102      1.0  0.5060252447984557  0.9414037994107329  0.7818492737008716  1.0000
  S   S103      1.0  0.6518099612629082  0.9466869962487281  0.7642129688235616  1.0000
  S   S104      1.0  0.5888786589635774  0.9720421190775855  0.8022516756580985  1.0000
  Fe  Fe53      1.0  0.60415197940469  0.17872873769953182  0.7833403646575733  1.0000
  S   S105      1.0  0.5783023923444118  0.18280336515823029  0.7368374176385418  1.0000
  S   S106      1.0  0.5987602033848273  0.13942853431990046  0.8142936653674987  1.0000
  Fe  Fe54      1.0  0.6394418268945633  0.23603811005436948  0.7766102362563536  1.0000
  S   S107      1.0  0.6167779524427931  0.24544049419120556  0.7294737057581765  1.0000
  S   S108      1.0  0.676203201527425  0.267526250552929  0.7965548331469241  1.0000
  Fe  Fe55      1.0  0.5713030369605251  0.2296632915760767  0.7514567554327567  1.0000
  S   S109      1.0  0.5263194514007725  0.25427950732597365  0.739452522378937  1.0000
  Fe  Fe56      1.0  0.6258654195045418  0.1980517669438124  0.7188240080879754  1.0000
  S   S110      1.0  0.6410467065067461  0.1806776537022889  0.6714306579156871  1.0000
  S   S111      1.0  0.5928108000445467  0.22452248137782124  0.7998908190490447  1.0000
  S   S112      1.0  0.6527185919390517  0.1897503408279468  0.7641590365224881  1.0000
  Fe  Fe57      1.0  0.8610454138039387  0.219159795037912  0.6099064299608682  1.0000
  S   S113      1.0  0.8305385971037472  0.23752785639845186  0.5708082094542627  1.0000
  S   S114      1.0  0.9092776575664661  0.23672889642859424  0.6255280467262186  1.0000
  Fe  Fe58      1.0  0.8171066638190204  0.16695497547298002  0.6195996362808729  1.0000
  S   S115      1.0  0.7821231655288846  0.18080559428632437  0.5820167976718512  1.0000
  S   S116      1.0  0.8070757708117255  0.12536374454728033  0.6460928795701695  1.0000
  Fe  Fe59      1.0  0.8259811827681418  0.1910190152355407  0.5538155694206177  1.0000
  S   S117      1.0  0.8311843103149702  0.18083769420964435  0.5020656396867451  1.0000
  Fe  Fe60      1.0  0.7890591705382684  0.22599610077895388  0.601783889742472  1.0000
  S   S118      1.0  0.7470291644443624  0.25657864443734196  0.6058133744567363  1.0000
  S   S119      1.0  0.8608411869922041  0.17356065917605998  0.5898097829565605  1.0000
  S   S120      1.0  0.819910068290801  0.21149135641177524  0.6427171033219682  1.0000
  Fe  Fe61      1.0  0.8083392472751777  0.9103380523346255  0.5554078636201681  1.0000
  S   S121      1.0  0.7617816841620563  0.9037609398781491  0.5806844709571458  1.0000
  S   S122      1.0  0.831969091314915  0.8700969436382447  0.5351280236987525  1.0000
  Fe  Fe62      1.0  0.8093185240299129  0.9755739085075479  0.5681834466804363  1.0000
  S   S123      1.0  0.7634344968982706  0.9749462485425261  0.5952964793048579  1.0000
  S   S124      1.0  0.8333418887845928  0.01760744486823751  0.5549834052799132  1.0000
  Fe  Fe63      1.0  0.7831165000765445  0.9341927417125422  0.617139978904709  1.0000
  S   S125      1.0  0.7768455442125205  0.9259158217070805  0.6689380690843189  1.0000
  Fe  Fe64      1.0  0.7455355021342296  0.9449420029515182  0.5568847462615866  1.0000
  S   S126      1.0  0.6944728491508877  0.9550084786496313  0.5424981876428532  1.0000
  S   S127      1.0  0.8313955979926184  0.9376330939373069  0.5939372849168129  1.0000
  S   S128      1.0  0.7900235551045877  0.948673461174197  0.5276005182649872  1.0000
  Fe  Fe65      1.0  0.5674417065418571  0.9292366363576121  0.3742541990331913  1.0000
  S   S129      1.0  0.5950504913171634  0.938598614017576  0.4190725177050554  1.0000
  S   S130      1.0  0.5531499765390973  0.8831024305715581  0.36131013386823874  1.0000
  Fe  Fe66      1.0  0.5619622880075984  0.9932386687734425  0.35733134440279946  1.0000
  S   S131      1.0  0.5890862569537525  0.008241935576359216  0.4005058354232296  1.0000
  S   S132      1.0  0.5449558960719734  0.024818608625257754  0.3205569482208946  1.0000
  Fe  Fe67      1.0  0.6220275406795137  0.9709012505517846  0.3898657979306891  1.0000
  S   S133      1.0  0.6752374119018453  0.9765659363389597  0.3967722627822184  1.0000
  Fe  Fe68      1.0  0.5596079169638789  0.9749976322779856  0.4257196740826856  1.0000
  S   S134      1.0  0.5415087315343254  0.9877063468199869  0.47361571906414535  1.0000
  S   S135      1.0  0.5977042029923793  0.9584280952542936  0.34415878532411903  1.0000
  S   S136      1.0  0.5291699565873473  0.9630902304914395  0.3834068820534707  1.0000
  Fe  Fe69      1.0  0.6436577121200695  0.20517269532277319  0.44114303911602043  1.0000
  S   S137      1.0  0.656478130120007  0.17345566465261883  0.4796150675945154  1.0000
  S   S138      1.0  0.6550819329037052  0.25343266377202633  0.44299565614016245  1.0000
  Fe  Fe70      1.0  0.6103163968055478  0.15920648284493577  0.4002654712558045  1.0000
  S   S139      1.0  0.6202923924080926  0.12315924977006872  0.4344724175712885  1.0000
  S   S140      1.0  0.5874056869718554  0.15459434560985455  0.35225586712079326  1.0000
  Fe  Fe71      1.0  0.6063104571762132  0.15631725812431144  0.47124896158824536  1.0000
  S   S141      1.0  0.5730972525263878  0.14028744238936558  0.5085679877989806  1.0000
  Fe  Fe72      1.0  0.669425684221691  0.1430085095463046  0.43969621107752943  1.0000
  S   S142      1.0  0.7136794681601725  0.11472539131644657  0.43650205043774704  1.0000
  S   S143      1.0  0.5920291214735569  0.1908636837057843  0.43650747576132026  1.0000
  S   S144      1.0  0.6608485964789746  0.1760865600402548  0.4018885478569147  1.0000
  Fe  Fe73      1.0  0.410813022628754  0.17410691691572927  0.635537655290727  1.0000
  S   S145      1.0  0.36922542852415097  0.15198572838948685  0.6106592550124026  1.0000
  S   S146      1.0  0.42540086849380815  0.16274585243741374  0.6850781657158257  1.0000
  Fe  Fe74      1.0  0.4326000551721355  0.20520015206088013  0.5761418205590612  1.0000
  S   S147      1.0  0.3926111399151624  0.18624062978131156  0.5462764071336784  1.0000
  S   S148      1.0  0.47161968040129837  0.23330027106203904  0.5555689397924047  1.0000
  Fe  Fe75      1.0  0.36163489706953933  0.1960114310484145  0.588241070277046  1.0000
  S   S149      1.0  0.31298897038706197  0.21776307171496967  0.5863938271529251  1.0000
  Fe  Fe76      1.0  0.40423244484037785  0.14430981890927846  0.5714306776349071  1.0000
  S   S150      1.0  0.4097513629440122  0.10130268995911851  0.5454607825884444  1.0000
  S   S151      1.0  0.4007815416422669  0.21881001628317923  0.616107223804754  1.0000
  S   S152      1.0  0.4464359182150443  0.16265330774329714  0.5984308927469156  1.0000
  Fe  Fe77      1.0  0.36978488821494926  0.9362495617995247  0.6131812390560147  1.0000
  S   S153      1.0  0.3882641921200984  0.8911252993788876  0.6024685436551286  1.0000
  S   S154      1.0  0.31805402139719957  0.9496806963277349  0.6166687956290193  1.0000
  Fe  Fe78      1.0  0.4367996999267208  0.9619923228724276  0.6222800133686935  1.0000
  S   S155      1.0  0.4614663265169558  0.9190866767137608  0.6130007718354439  1.0000
  S   S156      1.0  0.46290471922441323  0.003580308746133687  0.635797067241584  1.0000
  Fe  Fe79      1.0  0.42507510372428087  0.9144755852683618  0.5736021039000522  1.0000
  S   S157      1.0  0.4388320410043737  0.8984001114112742  0.525414061007013  1.0000
  Fe  Fe80      1.0  0.4224460977511791  0.8999091631236763  0.6426155659715002  1.0000
  S   S158      1.0  0.430963938765826  0.8660172719473535  0.6793878010548284  1.0000
  S   S159      1.0  0.4031840181536982  0.9590044148295699  0.5804652317328611  1.0000
  S   S160      1.0  0.40113851828107  0.9432488788252652  0.6559327858201961  1.0000
  Fe  Fe81      1.0  0.2267995029423115  0.6025547885250153  0.39246632316382407  1.0000
  S   S161      1.0  0.24565211513114701  0.5757421519619527  0.4327247560461291  1.0000
  S   S162      1.0  0.17728202122197662  0.6223562918250879  0.393844470299701  1.0000
  Fe  Fe82      1.0  0.2901014475049315  0.6004742040652075  0.35759172517050614  1.0000
  S   S163      1.0  0.3144771738069858  0.5734571451421079  0.39481712170383926  1.0000
  S   S164      1.0  0.31456588718034006  0.6143027620323903  0.3130116568823419  1.0000
  Fe  Fe83      1.0  0.2681056507508567  0.5481272301715141  0.39492609477300544  1.0000
  S   S165      1.0  0.2711948066103621  0.49900271814795305  0.395984623852181  1.0000
  Fe  Fe84      1.0  0.28996987646284444  0.6036056444426264  0.4290321219916028  1.0000
  S   S166      1.0  0.31277574437160205  0.6186498447021176  0.4748282358027583  1.0000
  S   S167      1.0  0.24552691480748973  0.572490381433435  0.3546236589284433  1.0000
  S   S168      1.0  0.26924224380976997  0.6329298080926796  0.3918139482507333  1.0000
  Fe  Fe85      1.0  0.9603510946460856  0.5645187367147526  0.3825896337637088  1.0000
  S   S169      1.0  0.926304636278033  0.5540819798724378  0.42172110550201514  1.0000
  S   S170      1.0  0.946354226923156  0.5830760602412985  0.3353601318687764  1.0000
  Fe  Fe86      1.0  0.01845448050387688  0.5405601142856548  0.41709589285610305  1.0000
  S   S171      1.0  0.9900419202137966  0.5277591128426913  0.4594513538828299  1.0000
  S   S172      1.0  0.06987871347003671  0.5259585107483099  0.41197908929095833  1.0000
  Fe  Fe87      1.0  0.9531734122941742  0.5116441687853663  0.4244593668813695  1.0000
  S   S173      1.0  0.927768996545163  0.4695288373144633  0.4343872734095877  1.0000
  Fe  Fe88      1.0  0.9655462562776114  0.5712810291392416  0.453818961363152  1.0000
  S   S174      1.0  0.9502894916316228  0.5948292510867321  0.4981670440694786  1.0000
  S   S175      1.0  0.9836078155438382  0.5203082675741972  0.3824397124698669  1.0000
  S   S176      1.0  0.9975118428629346  0.5859136881826742  0.41440897313947805  1.0000
  Fe  Fe89      1.0  0.2949079791945986  0.43570055748625847  0.5892831348960044  1.0000
  S   S177      1.0  0.29978695597355026  0.3890119531989388  0.6045966194866078  1.0000
  S   S178      1.0  0.32156815066914335  0.47454152167591646  0.6086863198536475  1.0000
  Fe  Fe90      1.0  0.23875106882776068  0.4232748035064481  0.5450029280687968  1.0000
  S   S179      1.0  0.23804646563013432  0.3751863260221599  0.5558569341242093  1.0000
  S   S180      1.0  0.20266625130460025  0.4479696752520566  0.5155614394959909  1.0000
  Fe  Fe91      1.0  0.24573151542743676  0.3897699608398668  0.6062085558433349  1.0000
  S   S181      1.0  0.21937687782419435  0.37065186264783295  0.6471294922270786  1.0000
  Fe  Fe92      1.0  0.2919963992555387  0.3783811605783169  0.5531730667663322  1.0000
  S   S182      1.0  0.32074511858063476  0.3441269917080684  0.5272783879195763  1.0000
  S   S183      1.0  0.24155291738963736  0.43743030786654896  0.5956641427739949  1.0000
  S   S184      1.0  0.29216386121029725  0.42541741902696123  0.537616918448935  1.0000
  Fe  Fe93      1.0  0.03149247206447159  0.37148974883217345  0.5102566329935405  1.0000
  S   S185      1.0  0.015155798903621953  0.3345517559136551  0.5408514429329578  1.0000
  S   S186      1.0  0.03279790765839885  0.3726583366281499  0.45752527655965586  1.0000
  Fe  Fe94      1.0  0.043986301257826765  0.4128415613080107  0.5655294687266283  1.0000
  S   S187      1.0  0.029073838815537822  0.3798409635010263  0.6012060075323399  1.0000
  S   S188      1.0  0.05909622009730997  0.45798398889241476  0.5810958214637691  1.0000
  Fe  Fe95      1.0  0.05726970735927517  0.34807977082776886  0.5717425809475334  1.0000
  S   S189      1.0  0.08888144558961164  0.315852232106641  0.5971160103304298  1.0000
  Fe  Fe96      1.0  0.9886174790612483  0.36970264917381424  0.5674314237975553  1.0000
  S   S190      1.0  0.9376454538811149  0.36651277732689325  0.5841959147927243  1.0000
  S   S191      1.0  0.07586919275066162  0.38219664125233005  0.5387323944653337  1.0000
  S   S192      1.0  0.001095556363498229  0.40544923603182126  0.5339307661729266  1.0000
  C   C1        1.0  0.12342433745622183  0.3332646116558886  0.6125552437277197  1.0000
  C   C2        1.0  0.13721699950806077  0.3235234021756196  0.6408967462717899  1.0000
  C   C3        1.0  0.16584002290540462  0.3362979940102499  0.6524964353497475  1.0000
  C   C4        1.0  0.18120610314063118  0.3581509487801182  0.6352203007391041  1.0000
  C   C5        1.0  0.1672553315902515  0.36814822997173285  0.607113444509202  1.0000
  C   C6        1.0  0.1383001439498226  0.3558258603115692  0.5959139258781931  1.0000
  H   H1        1.0  0.12580335331181058  0.3060470845263474  0.6538232401001877  1.0000
  H   H2        1.0  0.17669501620041633  0.328459330334512  0.674210202467895  1.0000
  H   H3        1.0  0.1789610303944227  0.38510737931956207  0.5937081628421917  1.0000
  H   H4        1.0  0.12832265212006444  0.3629774473731548  0.5736971178762627  1.0000
  C   C7        1.0  0.9558077021111926  0.44096259131761306  0.43742868832756543  1.0000
  C   C8        1.0  0.9861600125448293  0.44333480057623204  0.42353211199916463  1.0000
  C   C9        1.0  0.009132512089685907  0.42110579548387345  0.42770755478741695  1.0000
  C   C10       1.0  0.002138637580277214  0.397066944093676  0.4467516197434927  1.0000
  C   C11       1.0  0.9716775036957379  0.3945653371368385  0.4603534929624711  1.0000
  C   C12       1.0  0.9483659885216692  0.4163006043790315  0.4553355486495202  1.0000
  H   H5        1.0  0.9920108559223602  0.4622875792833362  0.40962314978999065  1.0000
  H   H6        1.0  0.03272021181247364  0.42313215417026867  0.4173017178325577  1.0000
  H   H7        1.0  0.9662775874678342  0.3760406133559607  0.47519408456025086  1.0000
  H   H8        1.0  0.9249521616783672  0.4144065406911382  0.46615045077665596  1.0000
  C   C13       1.0  0.25024179428805726  0.4837897077389891  0.4275465464078079  1.0000
  C   C14       1.0  0.2617245895543361  0.45797804967314537  0.4412568116515247  1.0000
  C   C15       1.0  0.24675064422631754  0.4466175389734191  0.4679998551080205  1.0000
  C   C16       1.0  0.21995278080646255  0.4607802136504421  0.48075851645952766  1.0000
  C   C17       1.0  0.2076698553035494  0.4860077095599518  0.46634530106701405  1.0000
  C   C18       1.0  0.22295845934057273  0.4976436681502679  0.43983898697835666  1.0000
  H   H9        1.0  0.28262932599055895  0.44705783447820574  0.43161732176638606  1.0000
  H   H10       1.0  0.25575764058712325  0.426685751965862  0.47851612731878906  1.0000
  H   H11       1.0  0.18677874945345505  0.4968996337337349  0.4760365063671081  1.0000
  H   H12       1.0  0.213574977878172  0.5172316782087819  0.428873941001575  1.0000
  C   C19       1.0  0.09942750013702928  0.5531253881470115  0.4077062510435623  1.0000
  C   C20       1.0  0.13162440567599365  0.5446566966061895  0.4039522954563833  1.0000
  C   C21       1.0  0.15566035480048254  0.5658825762021679  0.39973988742971545  1.0000
  C   C22       1.0  0.14749178380811995  0.5956220926506284  0.3991726658338452  1.0000
  C   C23       1.0  0.11529953648520175  0.604105085468263  0.40292925579162875  1.0000
  C   C24       1.0  0.0912799791372354  0.5828626865038224  0.4073034659064033  1.0000
  H   H13       1.0  0.1380403202130589  0.5216509944226239  0.404217422320059  1.0000
  H   H14       1.0  0.18046302539956882  0.5592007984180531  0.3967365424746142  1.0000
  H   H15       1.0  0.10897960623834498  0.6271283889835778  0.4026468849609187  1.0000
  H   H16       1.0  0.0665915215618138  0.5895745551143581  0.4104976297957738  1.0000
  C   C25       1.0  0.3158601221036009  0.25285033082689307  0.570199203258825  1.0000
  C   C26       1.0  0.3066795651473655  0.2774072635280873  0.5880507660925978  1.0000
  C   C27       1.0  0.3078117602224939  0.3055391947378371  0.5748847312646166  1.0000
  C   C28       1.0  0.3180272064253679  0.309086929753768  0.5437779924619138  1.0000
  C   C29       1.0  0.32731571531058606  0.28450358136320036  0.5259761973021617  1.0000
  C   C30       1.0  0.3264427112336676  0.2564285696722825  0.5392343517141749  1.0000
  H   H17       1.0  0.29899706672804144  0.2746482138988918  0.6122013613863174  1.0000
  H   H18       1.0  0.30096796524556363  0.32445055139439455  0.5888750176657517  1.0000
  H   H19       1.0  0.33513966581763477  0.2871441084742535  0.5018569241724622  1.0000
  H   H20       1.0  0.33347646889041893  0.23746417147222046  0.5253490056733382  1.0000
  C   C31       1.0  0.4288966069058817  0.07524458594542383  0.5693847356591081  1.0000
  C   C32       1.0  0.4340700946064171  0.046852442767814535  0.5576549962353194  1.0000
  C   C33       1.0  0.446225991713563  0.025044204399567116  0.5776272840213449  1.0000
  C   C34       1.0  0.453147506942571  0.03157427761366849  0.6093487406489496  1.0000
  C   C35       1.0  0.44929088926188565  0.06023873921413192  0.6207320985912578  1.0000
  C   C36       1.0  0.4369287245226927  0.08198195701965762  0.6008414183070451  1.0000
  H   H21       1.0  0.427668780987701  0.04140500689741655  0.5334539312257077  1.0000
  H   H22       1.0  0.4500454809220038  0.0031262933367710577  0.5685054932078707  1.0000
  H   H23       1.0  0.45436549582769464  0.06540872043289525  0.6452897257905953  1.0000
  H   H24       1.0  0.43233037502871285  0.10358779358095942  0.6103678311271018  1.0000
  C   C37       1.0  0.5449798845610296  0.1671664445344865  0.5191855880333934  1.0000
  C   C38       1.0  0.5534721805534297  0.19691178253594152  0.5211301146434344  1.0000
  C   C39       1.0  0.5307273662653821  0.2177182394560933  0.5314263937986873  1.0000
  C   C40       1.0  0.4993216549141066  0.20879036948372726  0.5386449949315164  1.0000
  C   C41       1.0  0.49059628685454754  0.17937149861237225  0.5346855039581913  1.0000
  C   C42       1.0  0.5135867972860214  0.15849267156231564  0.5261360340697048  1.0000
  H   H25       1.0  0.5777623118989976  0.20372031910857805  0.5156130792136011  1.0000
  H   H26       1.0  0.5375816826663758  0.24051521937739095  0.5341607915565725  1.0000
  H   H27       1.0  0.4660178806105121  0.1725451198870364  0.5382295435471434  1.0000
  H   H28       1.0  0.5068424558163509  0.13563222944134065  0.5246776070016012  1.0000
  C   C43       1.0  0.5124655244734515  0.9630772036947781  0.48719180311191834  1.0000
  C   C44       1.0  0.5023121944897537  0.9391984124948901  0.4685167293042135  1.0000
  C   C45       1.0  0.4796321462304003  0.9192532862777507  0.48020711012003664  1.0000
  C   C46       1.0  0.4671028829375034  0.9232417113578989  0.510523481469994  1.0000
  C   C47       1.0  0.47739159176618057  0.9471135022313882  0.5291104748270148  1.0000
  C   C48       1.0  0.4999792888583264  0.9670125975862668  0.5174633204043173  1.0000
  H   H29       1.0  0.5120114654290836  0.9359382824219861  0.44514418370370573  1.0000
  H   H30       1.0  0.4718021964691306  0.9008170617165956  0.4657343727727419  1.0000
  H   H31       1.0  0.46800432265072234  0.9503358475778471  0.5525461949397656  1.0000
  H   H32       1.0  0.5078011641668844  0.9854043865422958  0.5320249117046751  1.0000
  C   C49       1.0  0.5536109204508979  0.06150482681232572  0.33006732379033177  1.0000
  C   C50       1.0  0.5586117675337553  0.08144247272005933  0.3057063764934224  1.0000
  C   C51       1.0  0.5680707552699229  0.11030987634044788  0.31274647302244374  1.0000
  C   C52       1.0  0.5725191240046804  0.11930639694187586  0.34417149315900425  1.0000
  C   C53       1.0  0.5663648456936388  0.09971868749984199  0.3686327397490049  1.0000
  C   C54       1.0  0.556813474046187  0.07082710492103717  0.36157985606681653  1.0000
  H   H33       1.0  0.5558659262676832  0.07435883736199567  0.28132866112434796  1.0000
  H   H34       1.0  0.5726148580414867  0.1254480074262568  0.2937700400495083  1.0000
  H   H35       1.0  0.5686196280181001  0.10691738979005395  0.39290416663899524  1.0000
  H   H36       1.0  0.5514837031355504  0.055910656494682076  0.38043977838787774  1.0000
  C   C55       1.0  0.6904279382547267  0.9621004359028468  0.5020714131964066  1.0000
  C   C56       1.0  0.7138940659442414  0.9528616271502152  0.48071183050770555  1.0000
  C   C57       1.0  0.7099178719739753  0.958316837967997  0.448330423270909  1.0000
  C   C58       1.0  0.6819667234682117  0.9721613580711748  0.4372889211642994  1.0000
  C   C59       1.0  0.658583887417454  0.9815069374772617  0.4586971332739465  1.0000
  C   C60       1.0  0.6630691719332554  0.9768832536767412  0.49108238579056673  1.0000
  H   H37       1.0  0.7345990354603531  0.9406725833794446  0.48889870071676406  1.0000
  H   H38       1.0  0.7277647983008146  0.9506286498498103  0.43172931427986433  1.0000
  H   H39       1.0  0.6370058157922408  0.9923697768782622  0.4503496806852934  1.0000
  H   H40       1.0  0.6452514225989797  0.9847181612227762  0.5075648227164639  1.0000
  C   C61       1.0  0.7986289227735888  0.16140984613727638  0.48480935276584286  1.0000
  C   C62       1.0  0.7683065660701125  0.16115590757601406  0.4989793781834368  1.0000
  C   C63       1.0  0.7421532852817693  0.14694572060636074  0.4841123531690008  1.0000
  C   C64       1.0  0.7463541935741966  0.13240527682435782  0.4552377417437416  1.0000
  C   C65       1.0  0.7768083336851945  0.13192001389682295  0.4413599335989572  1.0000
  C   C66       1.0  0.8027995161167844  0.14673722730489952  0.4559262512435853  1.0000
  H   H41       1.0  0.7646006013702228  0.17253452030427602  0.5209324154043216  1.0000
  H   H42       1.0  0.7188426531188548  0.1468977728703719  0.4952615488676545  1.0000
  H   H43       1.0  0.7801756187445803  0.12070006598513301  0.418990294042603  1.0000
  H   H44       1.0  0.8261558185626595  0.1468518814962057  0.44477494199735024  1.0000
  C   C67       1.0  0.9165323831882087  0.2735144275712046  0.6164739524255202  1.0000
  C   C68       1.0  0.8910763061018059  0.29270434993529754  0.6098970412649155  1.0000
  C   C69       1.0  0.8976197362946755  0.3215460519694407  0.6005488269065858  1.0000
  C   C70       1.0  0.9295569066152446  0.33094492914602247  0.5971854634304449  1.0000
  C   C71       1.0  0.9549578485920853  0.3118094685805618  0.6040181840429151  1.0000
  C   C72       1.0  0.9484310615935275  0.2832394522457229  0.6140253295233167  1.0000
  H   H45       1.0  0.8663886764297372  0.28531798779410206  0.61199524400461  1.0000
  H   H46       1.0  0.8779382629793668  0.3363804624475043  0.5953754470967809  1.0000
  H   H47       1.0  0.9796872242276286  0.31900438139972415  0.6017138061158527  1.0000
  H   H48       1.0  0.9681497172977855  0.2684389596354261  0.6192207919235552  1.0000
  C   C73       1.0  0.8132332301050211  0.09510373639229859  0.6208455876424269  1.0000
  C   C74       1.0  0.8078887733872355  0.06646729709956176  0.6314025509398424  1.0000
  C   C75       1.0  0.8137351920618726  0.04237950022570569  0.6112480845922893  1.0000
  C   C76       1.0  0.82551103431454  0.04699532058719447  0.5808079745921214  1.0000
  C   C77       1.0  0.8307710636410706  0.0755780000384072  0.5703906238486224  1.0000
  C   C78       1.0  0.8239579077730265  0.09953638356992368  0.5900798072780472  1.0000
  H   H49       1.0  0.7997002219759739  0.0629205680961494  0.6552302401964158  1.0000
  H   H50       1.0  0.8101577886165204  0.02030237874818175  0.6196026748402206  1.0000
  H   H51       1.0  0.8402093606486033  0.0792928471876766  0.54704285318696  1.0000
  H   H52       1.0  0.8273884909288578  0.12141809560647288  0.5814071808244263  1.0000
  C   C79       1.0  0.4966378042039722  0.229506420886243  0.7263341367358376  1.0000
  C   C80       1.0  0.4959300568660502  0.200868224356891  0.7378772249454113  1.0000
  C   C81       1.0  0.4734464693014576  0.1805821623798361  0.7256706527126023  1.0000
  C   C82       1.0  0.45197031979060437  0.18880340442979784  0.7015969997127265  1.0000
  C   C83       1.0  0.4523998765194848  0.21758400606716544  0.6904545776576646  1.0000
  C   C84       1.0  0.47453365462408487  0.2379920947183439  0.7029749535908837  1.0000
  H   H53       1.0  0.5124012700037124  0.19443543224547233  0.7565382944508079  1.0000
  H   H54       1.0  0.4729534135416595  0.15843539483823832  0.7346161039502033  1.0000
  H   H55       1.0  0.435392955721421  0.2242810806058753  0.6725391324011721  1.0000
  H   H56       1.0  0.4748549040547841  0.2602065708374514  0.6942236174061972  1.0000
  C   C85       1.0  0.6664400755141587  0.20434852811409912  0.6507779875485388  1.0000
  C   C86       1.0  0.6789415599397596  0.19520289432534993  0.6217063459351951  1.0000
  C   C87       1.0  0.7030884258440426  0.2117245077266665  0.6072115775553936  1.0000
  C   C88       1.0  0.7138794599841344  0.23794962933867841  0.6212050499072215  1.0000
  C   C89       1.0  0.7000197857735596  0.24794898855164668  0.6492848203747731  1.0000
  C   C90       1.0  0.6766535801925103  0.23094800144646765  0.6642946623536989  1.0000
  H   H57       1.0  0.6711952289270673  0.17457201201168096  0.6112185661255201  1.0000
  H   H58       1.0  0.7137286920015731  0.2038773142100721  0.585529900358956  1.0000
  H   H59       1.0  0.7084918676641204  0.2681394320926937  0.6602502661058844  1.0000
  H   H60       1.0  0.6675186086356618  0.23803167004099007  0.6868428831599375  1.0000
  C   C91       1.0  0.4853277727000842  0.9189427576625266  0.7546187302109009  1.0000
  C   C92       1.0  0.4517069585579395  0.9206929617285801  0.7523520501669654  1.0000
  C   C93       1.0  0.43492801375735757  0.9038144705858466  0.7296890209507465  1.0000
  C   C94       1.0  0.4517113418911956  0.8847267774593015  0.7097205377647606  1.0000
  C   C95       1.0  0.48532205016848146  0.8826449575300875  0.7123024079053407  1.0000
  C   C96       1.0  0.5021822352850425  0.8998843333436637  0.7346683463769373  1.0000
  H   H61       1.0  0.4386805904428713  0.9355599002594799  0.7676523757654677  1.0000
  H   H62       1.0  0.40901315486160245  0.9058099829364844  0.7273918755573741  1.0000
  H   H63       1.0  0.4983839018195843  0.86827697772517  0.6964788680036024  1.0000
  H   H64       1.0  0.5282040632924628  0.8985924441644922  0.7361782317437605  1.0000
  C   C97       1.0  0.6741729900452245  0.8965525612107453  0.6902736255135753  1.0000
  C   C98       1.0  0.683380743395393  0.901370586045418  0.6591011038181637  1.0000
  C   C99       1.0  0.7148851861817903  0.9103803702456986  0.6525750513250634  1.0000
  C   C100      1.0  0.7376122450344409  0.9137800534539495  0.6770185782273813  1.0000
  C   C101      1.0  0.7286194346895798  0.9083466200140019  0.7081960859694996  1.0000
  C   C102      1.0  0.6968275965154602  0.8999437965610672  0.7148526667227452  1.0000
  H   H65       1.0  0.6658319081603773  0.899066492624724  0.6400970351687106  1.0000
  H   H66       1.0  0.7211201312695431  0.9153848456954192  0.6286637810652504  1.0000
  H   H67       1.0  0.7460025767785798  0.9111138861236605  0.7272748174734545  1.0000
  H   H68       1.0  0.6898337140964274  0.896010736651126  0.7389939255293043  1.0000
  C   C103      1.0  0.6170577114260446  0.05600429136795704  0.7567548629507792  1.0000
  C   C104      1.0  0.6078215623148266  0.05413098573791242  0.7883588681688833  1.0000
  C   C105      1.0  0.6021379591545054  0.07980479534374062  0.8060457242385681  1.0000
  C   C106      1.0  0.6057598513126224  0.1073518035880562  0.7921456100637358  1.0000
  C   C107      1.0  0.6151739730128708  0.10916682111021711  0.7605951423674387  1.0000
  C   C108      1.0  0.6207425581933272  0.0835463054090757  0.7429289027022506  1.0000
  H   H69       1.0  0.6052798649532424  0.03299748546715442  0.7992988376278548  1.0000
  H   H70       1.0  0.5948991288823023  0.07828661631271912  0.830449266628682  1.0000
  H   H71       1.0  0.6182311540404579  0.13029854325739118  0.7497164925346079  1.0000
  H   H72       1.0  0.6278847584493176  0.08513940401996356  0.7184960113192027  1.0000
  C   C109      1.0  0.31837321428009696  0.7183441033961047  0.4858505939347338  1.0000
  C   C110      1.0  0.3164449557783251  0.7056810932765778  0.45560299208733746  1.0000
  C   C111      1.0  0.31578344752138376  0.6750066708831725  0.4519344001354305  1.0000
  C   C112      1.0  0.31717609773340655  0.656939155495821  0.4784736314289497  1.0000
  C   C113      1.0  0.3207052729830476  0.6696352773129653  0.5085674649032685  1.0000
  C   C114      1.0  0.32131792703865975  0.7002593491584671  0.512241112630324  1.0000
  H   H73       1.0  0.31460517173534785  0.7195492915760681  0.43505936132929424  1.0000
  H   H74       1.0  0.3143214702154625  0.6654061902355434  0.4285642876790273  1.0000
  H   H75       1.0  0.32226378104516445  0.6558121124013184  0.5291754981998779  1.0000
  H   H76       1.0  0.32397926279127304  0.709837561724723  0.5355938601824328  1.0000
  C   C115      1.0  0.2455984230601851  0.8815536828960868  0.5807462235482181  1.0000
  C   C116      1.0  0.2352029366709053  0.9064606163970778  0.597227482463399  1.0000
  C   C117      1.0  0.25763459937075756  0.9273867998518915  0.6079957113110711  1.0000
  C   C118      1.0  0.290466858067724  0.923604476926731  0.6020256189479752  1.0000
  C   C119      1.0  0.30080078864231224  0.8990470062625926  0.5848211825593423  1.0000
  C   C120      1.0  0.27838943921321607  0.8779078827489223  0.5743432096409492  1.0000
  H   H77       1.0  0.20983209508395453  0.9094300382516314  0.6020170744834541  1.0000
  H   H78       1.0  0.24952254147782474  0.9464440971996672  0.6211043271516056  1.0000
  H   H79       1.0  0.3258549407466947  0.8966599011537553  0.5789675104580383  1.0000
  H   H80       1.0  0.2863265946209773  0.8592472402867063  0.5606184989050456  1.0000
  C   C121      1.0  0.9740186519890286  0.6924390609933717  0.5069643187355406  1.0000
  C   C122      1.0  0.9858308390869726  0.6762665531872941  0.4812766973196518  1.0000
  C   C123      1.0  0.9782375695460591  0.6463045522099197  0.4779176046506027  1.0000
  C   C124      1.0  0.958421423964729  0.6326797600636498  0.499968254370353  1.0000
  C   C125      1.0  0.9455503704158023  0.649251112152926  0.5247737268381641  1.0000
  C   C126      1.0  0.9536185040939241  0.6789408236673045  0.5285258407830402  1.0000
  H   H81       1.0  0.0016833628816466106  0.6866233501736532  0.4645891059016365  1.0000
  H   H82       1.0  0.9882706261848382  0.6337233269333032  0.458697556531962  1.0000
  H   H83       1.0  0.9294466144280861  0.639088338077346  0.5412786975484178  1.0000
  H   H84       1.0  0.9439288042341022  0.6913892436026128  0.5481103613668062  1.0000
  C   C127      1.0  0.9163969411112137  0.8416337594065578  0.5973492120695365  1.0000
  C   C128      1.0  0.9136482055668728  0.870937234129215  0.5881394900769282  1.0000
  C   C129      1.0  0.8876996521348811  0.8798027596692651  0.5689472122721514  1.0000
  C   C130      1.0  0.8644515709534106  0.8593502371172081  0.5590284417280106  1.0000
  C   C131      1.0  0.8670261686000221  0.8301055049539213  0.5684696896802058  1.0000
  C   C132      1.0  0.8927399217343057  0.8213582380642684  0.5879809194502484  1.0000
  H   H85       1.0  0.9317448015278393  0.8867669399781611  0.595630614888223  1.0000
  H   H86       1.0  0.8858302889280666  0.9024231480066539  0.5616084789394455  1.0000
  H   H87       1.0  0.8487594079497572  0.8143516367117141  0.5612082045719706  1.0000
  H   H88       1.0  0.8940195736897929  0.799003771006117  0.5960521774118345  1.0000
  C   C133      1.0  0.09657665091290402  0.7280189736180168  0.6198377835092928  1.0000
  C   C134      1.0  0.08653673429616937  0.7229631661263941  0.5885757238614245  1.0000
  C   C135      1.0  0.109407429022919  0.7197521932169214  0.5646833004205988  1.0000
  C   C136      1.0  0.14232628186418014  0.7219320792488803  0.5719463831931614  1.0000
  C   C137      1.0  0.152407514771443  0.7260403991823267  0.6033517347561411  1.0000
  C   C138      1.0  0.12953417280372648  0.7289562069312159  0.6273290267441454  1.0000
  H   H89       1.0  0.06114445434359239  0.7222229366614162  0.5825799379005154  1.0000
  H   H90       1.0  0.10149372899828511  0.716586005807504  0.540413602172619  1.0000
  H   H91       1.0  0.17780958020462484  0.7270837667848177  0.6091689746078932  1.0000
  H   H92       1.0  0.13737724354930525  0.7328219780827518  0.6514889457263914  1.0000
  C   C139      1.0  0.9716198202849197  0.5013075714002737  0.6257042340964557  1.0000
  C   C140      1.0  0.9684289185492008  0.4745988503756016  0.6096335208142023  1.0000
  C   C141      1.0  0.9955082103608837  0.4610922935377303  0.596678104801572  1.0000
  C   C142      1.0  0.025684995896828378  0.47475224860908305  0.5985695878427815  1.0000
  C   C143      1.0  0.028918213902205725  0.5016536176219112  0.6144908440904915  1.0000
  C   C144      1.0  0.0019444793022467266  0.5146937952961801  0.6285746297860865  1.0000
  H   H93       1.0  0.9452511523618288  0.4637432195105698  0.6082258808792772  1.0000
  H   H94       1.0  0.9929453997759975  0.43989488678484673  0.5856405345791906  1.0000
  H   H95       1.0  0.05232925049348891  0.5120932987449958  0.6164464147658816  1.0000
  H   H96       1.0  0.004669567811714792  0.5351434808639973  0.6414380013420469  1.0000
  C   C145      1.0  0.9486436121730696  0.6367518265978235  0.7290219155552791  1.0000
  C   C146      1.0  0.9193796558268219  0.6294225330907625  0.7141707598959832  1.0000
  C   C147      1.0  0.9083033477299753  0.6457163949939113  0.6883318206273624  1.0000
  C   C148      1.0  0.9268767400927773  0.668848075772839  0.6767904043658419  1.0000
  C   C149      1.0  0.9561366812670246  0.6761988325254398  0.6916632666822613  1.0000
  C   C150      1.0  0.9667838004089058  0.6604070200216112  0.7180833652434907  1.0000
  H   H97       1.0  0.9051437238676946  0.6113489258721351  0.7227303628129402  1.0000
  H   H98       1.0  0.8856007493645542  0.6400625380365279  0.6769239252213333  1.0000
  H   H99       1.0  0.9706654963882342  0.6939350393839689  0.6827754699466803  1.0000
  H   H100      1.0  0.989463242167902  0.6660519819913061  0.7295479923742613  1.0000
  C   C151      1.0  0.27144337436107313  0.49064478051188354  0.702255662408543  1.0000
  C   C152      1.0  0.27741032680427785  0.5140835425107053  0.6820264504036959  1.0000
  C   C153      1.0  0.2940880592528227  0.5094020303393798  0.6538046397056001  1.0000
  C   C154      1.0  0.30377976743771196  0.48107692469341173  0.6453052811591222  1.0000
  C   C155      1.0  0.2971963104213211  0.457538517082828  0.6651902740258473  1.0000
  C   C156      1.0  0.2815302361759861  0.4624016038876684  0.6938996808713989  1.0000
  H   H101      1.0  0.26871817496925376  0.5357584482837192  0.687746584972928  1.0000
  H   H102      1.0  0.2984751508174223  0.5275473412588703  0.6381215499370427  1.0000
  H   H103      1.0  0.30440178513546473  0.435549577538554  0.6585382737457474  1.0000
  H   H104      1.0  0.277022310386237  0.44420087091722116  0.7094862000886448  1.0000
  C   C157      1.0  0.2438548551393843  0.6589451385807071  0.6650044083504737  1.0000
  C   C158      1.0  0.26757626586481753  0.6695600985648649  0.6860547464863768  1.0000
  C   C159      1.0  0.28094489116040927  0.6976319531718945  0.6816670455602172  1.0000
  C   C160      1.0  0.2700690418190567  0.7150825689739395  0.65663104877898  1.0000
  C   C161      1.0  0.24514603507799082  0.7048631716074506  0.6369045894652294  1.0000
  C   C162      1.0  0.23250247439497937  0.676740781814791  0.6406605169742208  1.0000
  H   H105      1.0  0.27625349694241885  0.6558769093274983  0.7050879464847754  1.0000
  H   H106      1.0  0.3000732425756374  0.7054871306846924  0.6971819536018801  1.0000
  H   H107      1.0  0.2356446104259366  0.7184953996132301  0.61846025070285  1.0000
  H   H108      1.0  0.21386506937201424  0.6687838243437675  0.6246069800904004  1.0000
  C   C163      1.0  0.1180991848326816  0.5691685564556733  0.7761013190291364  1.0000
  C   C164      1.0  0.08477040778349965  0.5738863699842733  0.7752948723933983  1.0000
  C   C165      1.0  0.06368848646414804  0.55084539214909  0.7672643986409697  1.0000
  C   C166      1.0  0.07583659510218488  0.5229063054338999  0.7603600419988671  1.0000
  C   C167      1.0  0.1091784281416277  0.5180858244034383  0.7615143668513539  1.0000
  C   C168      1.0  0.13034160163244038  0.5412508172141933  0.7691668968862317  1.0000
  H   H109      1.0  0.07519317583326535  0.5953757963468296  0.7808260539591987  1.0000
  H   H110      1.0  0.038004887367439455  0.5547237070550005  0.7667627373202548  1.0000
  H   H111      1.0  0.11855731311066209  0.4964336778135034  0.7566789737232396  1.0000
  H   H112      1.0  0.15604566635080983  0.5373740319982728  0.770295424395221  1.0000
  C   C169      1.0  0.6284492439324478  0.8305208669409587  0.30716880794436213  1.0000
  C   C170      1.0  0.6362005444547308  0.8585280372681297  0.3189809582842394  1.0000
  C   C171      1.0  0.6136483493564364  0.8744842600036691  0.33672841823302146  1.0000
  C   C172      1.0  0.5832590000045716  0.8624493393326447  0.34261437380052906  1.0000
  C   C173      1.0  0.5760610767933904  0.8339935344100992  0.33194467894434443  1.0000
  C   C174      1.0  0.5986229242520482  0.8180602091403707  0.31432227474884367  1.0000
  H   H113      1.0  0.6594348400992809  0.8681208844169775  0.313887425034985  1.0000
  H   H114      1.0  0.619616713306173  0.8962254846316302  0.3453783840101519  1.0000
  H   H115      1.0  0.552789587795988  0.8244118810697905  0.3369072190062179  1.0000
  H   H116      1.0  0.5930121675175825  0.7960154850304391  0.30662832673909896  1.0000
  C   C175      1.0  0.6243539523093581  0.8279218977235738  0.877889637504715  1.0000
  C   C176      1.0  0.6279689635578632  0.8487985107873403  0.9021046468026191  1.0000
  C   C177      1.0  0.6355983842974686  0.8779607507244582  0.8948762008357976  1.0000
  C   C178      1.0  0.6390501285701569  0.8863913129821461  0.863381610333693  1.0000
  C   C179      1.0  0.6361810680094507  0.8653508003091899  0.8392405644058176  1.0000
  C   C180      1.0  0.6286555328792095  0.8362203450617179  0.8464582941830776  1.0000
  H   H117      1.0  0.6237875620475823  0.8428680888512834  0.9263303856553059  1.0000
  H   H118      1.0  0.6376582104821114  0.8942120423136071  0.9136306289371111  1.0000
  H   H119      1.0  0.6399237499817791  0.8715131133714906  0.8149775573049807  1.0000
  H   H120      1.0  0.6258375501431724  0.8201974438963129  0.8275817077406711  1.0000
  C   C181      1.0  0.5793134796859021  0.8241861437664517  0.07247666400221453  1.0000
  C   C182      1.0  0.5976441134571813  0.8039865634914971  0.08973725018105383  1.0000
  C   C183      1.0  0.5881639610904084  0.7960479972432208  0.12024061182303546  1.0000
  C   C184      1.0  0.5600039477936877  0.8078563355855156  0.13310208186554146  1.0000
  C   C185      1.0  0.5416754821428585  0.8279118929133484  0.11579359566606807  1.0000
  C   C186      1.0  0.551551598188341  0.8363528448006844  0.08569234975537476  1.0000
  H   H121      1.0  0.6194975020622528  0.7950459301448887  0.07986150315652685  1.0000
  H   H122      1.0  0.6025199202836644  0.7806493689538454  0.1336174571830366  1.0000
  H   H123      1.0  0.5198754856301034  0.8370275754558234  0.12566272586416238  1.0000
  H   H124      1.0  0.5374119353609997  0.8520096400244346  0.07238740586004955  1.0000
  C   C187      1.0  0.8637469313861885  0.5297094195957613  0.29145945397473033  1.0000
  C   C188      1.0  0.877507393160182  0.5213117364287321  0.3203388869581695  1.0000
  C   C189      1.0  0.9033388095986621  0.537296880932747  0.33357579935228604  1.0000
  C   C190      1.0  0.9159870476231338  0.5613562224896186  0.3176285284855165  1.0000
  C   C191      1.0  0.9032225607569245  0.5689444424287282  0.2880312359687541  1.0000
  C   C192      1.0  0.8766646392249061  0.55353379998502  0.2752347447097617  1.0000
  H   H125      1.0  0.8677358984736665  0.502784082934706  0.332872891840831  1.0000
  H   H126      1.0  0.913207404346665  0.531023486284939  0.3562577678766649  1.0000
  H   H127      1.0  0.9136680995474745  0.5869004442240027  0.27514730954422123  1.0000
  H   H128      1.0  0.8665379035460514  0.5597268900117501  0.2525929958823157  1.0000
  C   C193      1.0  0.7625001895045617  0.6667285220802422  0.20864264477672076  1.0000
  C   C194      1.0  0.7491554582047322  0.6919323940532969  0.22238377432151665  1.0000
  C   C195      1.0  0.7232441475475915  0.706245278766722  0.20748772537456686  1.0000
  C   C196      1.0  0.7111104656860622  0.6956773248690444  0.17855994609471545  1.0000
  C   C197      1.0  0.7250672781034951  0.6709567291646259  0.16441499641827295  1.0000
  C   C198      1.0  0.7505728834493094  0.6563615769572497  0.17954134012735576  1.0000
  H   H129      1.0  0.7583449851746288  0.7000446364581366  0.2448561347387647  1.0000
  H   H130      1.0  0.7128901485512803  0.7256199621401841  0.21825125005576582  1.0000
  H   H131      1.0  0.7156326851904423  0.6626113921091359  0.1421901081125476  1.0000
  H   H132      1.0  0.7610505793246483  0.6370646915909182  0.16868058433605543  1.0000
  C   C199      1.0  0.8812692203103183  0.5347173520585792  0.8821061055592591  1.0000
  C   C200      1.0  0.8532075004062482  0.5281620726418066  0.8647076139775913  1.0000
  C   C201      1.0  0.8552831216032534  0.5130317102514271  0.8357484032522546  1.0000
  C   C202      1.0  0.8854641662764142  0.5050081537002149  0.8239445353858039  1.0000
  C   C203      1.0  0.9133700768685237  0.5110915864764236  0.8416540893367849  1.0000
  C   C204      1.0  0.9112463876461059  0.5256970567690343  0.8708031889513033  1.0000
  H   H133      1.0  0.8299507254065036  0.5346309875736036  0.8734751062336278  1.0000
  H   H134      1.0  0.8336432917658976  0.508292621080554  0.8220556908604977  1.0000
  H   H135      1.0  0.9366482021972917  0.5042823506496789  0.8330148017173723  1.0000
  H   H136      1.0  0.9329882851211571  0.5304496000466383  0.8843504732590322  1.0000
  C   C205      1.0  0.7621923825253212  0.6885023837369644  0.9227726347958332  1.0000
  C   C206      1.0  0.7308509721704162  0.6847927020881296  0.9339157292659014  1.0000
  C   C207      1.0  0.7183020030783995  0.704663639570134  0.9560296117718845  1.0000
  C   C208      1.0  0.7371978852446384  0.7280653208408989  0.9672281945956365  1.0000
  C   C209      1.0  0.7690428831703002  0.7310007505012525  0.9571422625100916  1.0000
  C   C210      1.0  0.7815238693414747  0.7112805472812014  0.9347936305129741  1.0000
  H   H137      1.0  0.7161579840425089  0.666736380165968  0.9251810524398054  1.0000
  H   H138      1.0  0.6941392145982056  0.7016027536695371  0.964601993727998  1.0000
  H   H139      1.0  0.7838906671799787  0.7488155663054412  0.9661954281544514  1.0000
  H   H140      1.0  0.8060510610072331  0.713728409141793  0.9267457349573318  1.0000
  C   C211      1.0  0.786793200909547  0.5931634501147839  0.06417225531338433  1.0000
  C   C212      1.0  0.7906913896006476  0.5991547064393485  0.09647287583676967  1.0000
  C   C213      1.0  0.778961924344997  0.5794821956308183  0.11880436797813047  1.0000
  C   C214      1.0  0.7636865291917624  0.5535501009250844  0.1089099116983097  1.0000
  C   C215      1.0  0.7594132086606284  0.5476733241677995  0.07657840941178319  1.0000
  C   C216      1.0  0.7708030154524629  0.56757970746278  0.05420232868057551  1.0000
  H   H141      1.0  0.8029670188848368  0.6189611033871432  0.10426459750464057  1.0000
  H   H142      1.0  0.7820216260347078  0.5843584128046141  0.1436667518013433  1.0000
  H   H143      1.0  0.7473540216966981  0.527827425645107  0.06877780052786298  1.0000
  H   H144      1.0  0.7671169128024539  0.5631689911938268  0.029299328714850414  1.0000
  C   C217      1.0  0.3911833452026782  0.5478855669548489  0.2849303420720336  1.0000
  C   C218      1.0  0.36852432175885785  0.5575953424914246  0.26267576095011697  1.0000
  C   C219      1.0  0.3454344650326486  0.5785291185209521  0.2712532093746615  1.0000
  C   C220      1.0  0.3445184562092126  0.5892964910904458  0.30229731215154654  1.0000
  C   C221      1.0  0.3673147274961616  0.5797774103273999  0.3245543593730657  1.0000
  C   C222      1.0  0.39071592683719847  0.5591293495444057  0.3158263377306008  1.0000
  H   H145      1.0  0.3682147949681904  0.5484356285154158  0.23903420948889872  1.0000
  H   H146      1.0  0.32772124610387837  0.585797598624355  0.2540416986142642  1.0000
  H   H147      1.0  0.3669376611390451  0.5883699553290345  0.3484712108514171  1.0000
  H   H148      1.0  0.40827163712118175  0.5516814330553234  0.3330926399923312  1.0000
  C   C223      1.0  0.5006443494133661  0.6376239218509735  0.20024259406082173  1.0000
  C   C224      1.0  0.5076664161897125  0.6673661757499385  0.19612302853141295  1.0000
  C   C225      1.0  0.5292291446921129  0.6817896219550128  0.21677262643951775  1.0000
  C   C226      1.0  0.5437053143686593  0.6665040126471773  0.24164474838706554  1.0000
  C   C227      1.0  0.5358323167675663  0.6370573135146417  0.246438815602669  1.0000
  C   C228      1.0  0.5146008779642723  0.6225484127056141  0.22554122938401333  1.0000
  H   H149      1.0  0.4963679305748847  0.6792654806835632  0.17697495884629985  1.0000
  H   H150      1.0  0.5341951473917237  0.7048620569373456  0.2137718658391707  1.0000
  H   H151      1.0  0.5464437721752716  0.6253587460730402  0.26609119005832665  1.0000
  H   H152      1.0  0.5089832579612887  0.5998157246205411  0.22920225149847898  1.0000
  C   C229      1.0  0.37723490788699365  0.5494444450845718  0.8465284414349941  1.0000
  C   C230      1.0  0.34608320421328387  0.5411246640970273  0.8370319914026311  1.0000
  C   C231      1.0  0.3241790867671848  0.5621412209907033  0.8258666248686347  1.0000
  C   C232      1.0  0.3332383153355406  0.5916562248973645  0.824680570680108  1.0000
  C   C233      1.0  0.364192958777402  0.6001023208208821  0.8348861551865161  1.0000
  C   C234      1.0  0.38626280173241023  0.5789783679860362  0.8456346334379061  1.0000
  H   H153      1.0  0.3388881183491977  0.5183321999886409  0.8383047544727127  1.0000
  H   H154      1.0  0.30017775530404744  0.5555380031080305  0.8185192857513325  1.0000
  H   H155      1.0  0.3712678413859775  0.6229480298330097  0.8339867954320418  1.0000
  H   H156      1.0  0.41045167531223065  0.5854844314134791  0.8525373979093835  1.0000
  C   C235      1.0  0.5508775687357472  0.6234461727633518  0.9292664295680533  1.0000
  C   C236      1.0  0.5304888966697086  0.6277471528021354  0.954963600127694  1.0000
  C   C237      1.0  0.5369355522480942  0.6501502742764713  0.9770426808792958  1.0000
  C   C238      1.0  0.5633036980978523  0.6688949137072383  0.973094478071465  1.0000
  C   C239      1.0  0.583397281431555  0.6650658533803921  0.9470324464333244  1.0000
  C   C240      1.0  0.5773154594793433  0.6421804515780696  0.9252429002195922  1.0000
  H   H157      1.0  0.5095808694408285  0.6139670276567656  0.9578427030862893  1.0000
  H   H158      1.0  0.521182796726124  0.653131367974864  0.9970136376953495  1.0000
  H   H159      1.0  0.6038755187661343  0.6793556734409731  0.9439280892900364  1.0000
  H   H160      1.0  0.5930640178590473  0.639011891203137  0.9053036457013729  1.0000
  C   C241      1.0  0.40993763164213753  0.5670501444016041  0.030956833241751358  1.0000
  C   C242      1.0  0.39846606853943634  0.5384558037931779  0.02600833189783569  1.0000
  C   C243      1.0  0.39175676716166596  0.5205479923719649  0.051886296918472574  1.0000
  C   C244      1.0  0.3973584505613022  0.5309500688330374  0.08268266693506288  1.0000
  C   C245      1.0  0.40885435371675866  0.5595128581818081  0.08762852827021428  1.0000
  C   C246      1.0  0.4146784922041011  0.5776952029570738  0.06178049081201897  1.0000
  H   H161      1.0  0.39426918474563594  0.5302336638708731  0.002317479825704849  1.0000
  H   H162      1.0  0.382796616030013  0.49847671939381155  0.04804094552608418  1.0000
  H   H163      1.0  0.4129716915444789  0.5677447758279013  0.11139972529018964  1.0000
  H   H164      1.0  0.4234784435077903  0.5998154212786174  0.06568769514535755  1.0000
  C   C247      1.0  0.6760564221264674  0.2735930779704923  0.9041190986909788  1.0000
  C   C248      1.0  0.6582332899056627  0.2516598876193517  0.8884537891530105  1.0000
  C   C249      1.0  0.6588441112524727  0.24931109169998092  0.8554279685214378  1.0000
  C   C250      1.0  0.6772705879931302  0.2688857795060114  0.837955746296422  1.0000
  C   C251      1.0  0.6953432844463738  0.29067896767638907  0.8535909249921535  1.0000
  C   C252      1.0  0.6947008063007162  0.2930580221286318  0.886662859246859  1.0000
  H   H165      1.0  0.643224171815717  0.2371033429015516  0.9018630353235524  1.0000
  H   H166      1.0  0.6448009444003413  0.23262320555131177  0.8434197028232496  1.0000
  H   H167      1.0  0.7096798573131073  0.3058626898897129  0.8401314751802631  1.0000
  H   H168      1.0  0.7090546494037826  0.3096329892014534  0.8986520590906267  1.0000
  C   C253      1.0  0.5857426277638019  0.42362593893955125  0.9262691090629863  1.0000
  C   C254      1.0  0.5796032629472336  0.4195819783962891  0.9583237011388427  1.0000
  C   C255      1.0  0.5536159921315958  0.43391215438289465  0.9725178262477254  1.0000
  C   C256      1.0  0.5337695288610372  0.4524322879171412  0.9547401750551512  1.0000
  C   C257      1.0  0.539613865884237  0.456130984003857  0.9225314562285059  1.0000
  C   C258      1.0  0.5655910682057134  0.44168679768673436  0.9082608858643624  1.0000
  H   H169      1.0  0.594812056223046  0.4053861922143722  0.9723186327597384  1.0000
  H   H170      1.0  0.549172351211578  0.4307396820181105  0.9973693913280278  1.0000
  H   H171      1.0  0.5238858307524121  0.4697202631513373  0.9085096248169677  1.0000
  H   H172      1.0  0.5701108188972085  0.4445790853913446  0.8833594769612245  1.0000
  C   C259      1.0  0.7440052396139688  0.44158851543768135  0.975042202253698  1.0000
  C   C260      1.0  0.758025561174985  0.46691812798389964  0.9880855864098157  1.0000
  C   C261      1.0  0.7496315683787583  0.49453362730717154  0.9762753731490625  1.0000
  C   C262      1.0  0.7282637351570007  0.4968065934177269  0.9505716776034057  1.0000
  C   C263      1.0  0.7143085225683311  0.4714160048857336  0.9375428260611471  1.0000
  C   C264      1.0  0.7219727348013371  0.44388271578589983  0.9499203483318023  1.0000
  H   H173      1.0  0.7751094736636336  0.4652206329935469  0.0074695262432655785  1.0000
  H   H174      1.0  0.7592091349174664  0.5140358255013395  0.9874867460402602  1.0000
  H   H175      1.0  0.6981086843867064  0.47285206095166865  0.9174174202364305  1.0000
  H   H176      1.0  0.711233881378052  0.42439080962591813  0.9395203261746635  1.0000
  C   C265      1.0  0.6785500586593205  0.28080677317352565  0.3426009432815248  1.0000
  C   C266      1.0  0.661757744452856  0.3000657170038731  0.36243484532165987  1.0000
  C   C267      1.0  0.6559489780457932  0.29238474200994347  0.39396811649338576  1.0000
  C   C268      1.0  0.6668556771220495  0.26542957453414956  0.405547513635362  1.0000
  C   C269      1.0  0.6854223490515876  0.24720474648341675  0.3862782050707684  1.0000
  C   C270      1.0  0.6910496302290483  0.2547498638579735  0.35484888780641655  1.0000
  H   H177      1.0  0.6523868207521144  0.3203957153569762  0.35331436986150644  1.0000
  H   H178      1.0  0.6418727835067901  0.306753232999787  0.40891127796091076  1.0000
  H   H179      1.0  0.6954532138348414  0.22719619801552604  0.3954842614284759  1.0000
  H   H180      1.0  0.7045362105338725  0.24002531593449622  0.3397583645891077  1.0000
  C   C271      1.0  0.5465631131980115  0.3989176730322043  0.22498464993206746  1.0000
  C   C272      1.0  0.5184907976292665  0.41557030659188016  0.228568917565555  1.0000
  C   C273      1.0  0.5140079417784863  0.4411741513030656  0.21086644750747036  1.0000
  C   C274      1.0  0.5372079788380787  0.44965337222781987  0.1889948101082411  1.0000
  C   C275      1.0  0.5641081656189395  0.4317929370062451  0.18382117516832708  1.0000
  C   C276      1.0  0.5688496663391607  0.40656798379334913  0.20197357207461425  1.0000
  H   H181      1.0  0.5010569603725601  0.4095362376056116  0.24619712368344085  1.0000
  H   H182      1.0  0.4932450721941891  0.45483233994040595  0.215074167714483  1.0000
  H   H183      1.0  0.5819952500169062  0.4380433514618835  0.16670745811151885  1.0000
  H   H184      1.0  0.5900609544584119  0.3932847237918757  0.19862036566170102  1.0000
  C   C277      1.0  0.6779178638608625  0.4664778504365986  0.3146718081515896  1.0000
  C   C278      1.0  0.6784176171150096  0.47115003047277393  0.28209144578754586  1.0000
  C   C279      1.0  0.679969649391712  0.49967299860031866  0.2703429379366008  1.0000
  C   C280      1.0  0.6801684137581516  0.523633595386521  0.29116873048247943  1.0000
  C   C281      1.0  0.6790756016901847  0.5191267958347714  0.32376620051745286  1.0000
  C   C282      1.0  0.6783495710516636  0.490489310825655  0.335532799038487  1.0000
  H   H185      1.0  0.6779617488012327  0.4529127749227404  0.26581408995901973  1.0000
  H   H186      1.0  0.6807370396581442  0.5031593767239966  0.24509677735596028  1.0000
  H   H187      1.0  0.6795841664511405  0.5376994543446324  0.3399044364119064  1.0000
  H   H188      1.0  0.6780617307429709  0.4869499290328583  0.3607871315093288  1.0000
  C   C283      1.0  0.6822283332047849  0.3733778755978172  0.15102582825694197  1.0000
  C   C284      1.0  0.6971277178130988  0.3678947617175945  0.12204277282689854  1.0000
  C   C285      1.0  0.6785068267478326  0.3655078048145374  0.094201011847445  1.0000
  C   C286      1.0  0.6449817609677202  0.36878221090758884  0.09521983915226606  1.0000
  C   C287      1.0  0.6301098389191694  0.3738839171943464  0.12430976379185843  1.0000
  C   C288      1.0  0.6487087839041226  0.3760147329816071  0.15216467538811287  1.0000
  H   H189      1.0  0.7230459230004024  0.36541224267748723  0.12112930178631846  1.0000
  H   H190      1.0  0.690118283244764  0.36122925589808214  0.07198014799393926  1.0000
  H   H191      1.0  0.6041701274885547  0.37629338505549403  0.12530410318429475  1.0000
  H   H192      1.0  0.6371943905860186  0.3800624070374973  0.17450179468247173  1.0000
  N   N1        1.0  0.5434646396680141  0.7180294145588656  0.09097341906157919  1.0000
  C   C289      1.0  0.5330114817488039  0.7252335977196104  0.12339874333882506  1.0000
  C   C290      1.0  0.5344112867972137  0.7421667985428997  0.06951912543242589  1.0000
  C   C291      1.0  0.5275627797187458  0.6905576662046382  0.08024810356471201  1.0000
  C   C292      1.0  0.5788768058645147  0.7141720099987532  0.09079444374889123  1.0000
  H   H193      1.0  0.5388500520253744  0.707245868284107  0.14010777842562483  1.0000
  H   H194      1.0  0.5065643785968544  0.7291930320372628  0.12433705065520706  1.0000
  H   H195      1.0  0.545159137645122  0.7454000124811796  0.13251756102536616  1.0000
  H   H196      1.0  0.5424127904866476  0.7376550546478191  0.04491048167970857  1.0000
  H   H197      1.0  0.5078597606208207  0.7455362772580488  0.06868073840419431  1.0000
  H   H198      1.0  0.5456554896972692  0.7633081860986195  0.07711918056070277  1.0000
  H   H199      1.0  0.534775726865069  0.684435970164786  0.055804913558149094  1.0000
  H   H200      1.0  0.5008279395165063  0.6927068802178441  0.08008653865293613  1.0000
  H   H201      1.0  0.5339751421828832  0.6718421515418443  0.09579838377814154  1.0000
  H   H202      1.0  0.5875210164126496  0.7083424781618856  0.06672713456940049  1.0000
  H   H203      1.0  0.5867171650093225  0.6964893923850823  0.10709165565479295  1.0000
  H   H204      1.0  0.591611259867663  0.7346773287984096  0.09821480816914785  1.0000
  N   N2        1.0  0.9144607812617567  0.49388758453605247  0.5276330418035103  1.0000
  C   C293      1.0  0.9185260678879181  0.5199930960518825  0.507623137010828  1.0000
  C   C294      1.0  0.9443325541314187  0.47617832934350246  0.5270977189560008  1.0000
  C   C295      1.0  0.887207367222953  0.4759847316581775  0.5153839574480159  1.0000
  C   C296      1.0  0.9077597166345627  0.5034481940503017  0.560378840598956  1.0000
  H   H205      1.0  0.9226663579014048  0.5136604845117037  0.4825647505089733  1.0000
  H   H206      1.0  0.9394674357971142  0.5335694999986053  0.5156516371997099  1.0000
  H   H207      1.0  0.8968407158571184  0.5343423312788472  0.5079273292096785  1.0000
  H   H208      1.0  0.9501773932007278  0.4689149963781615  0.5025976292361322  1.0000
  H   H209      1.0  0.9654224809476167  0.4888534764836849  0.536429347484435  1.0000
  H   H210      1.0  0.9420325677409197  0.45607521296278264  0.5416495716532931  1.0000
  H   H211      1.0  0.8835143561607925  0.45606020996896995  0.5299199488373426  1.0000
  H   H212      1.0  0.8915456099816076  0.46834446469610125  0.490712550479482  1.0000
  H   H213      1.0  0.8643123356958331  0.48868466706046465  0.5151405745991999  1.0000
  H   H214      1.0  0.8857793954690333  0.517378258477469  0.5615437031442497  1.0000
  H   H215      1.0  0.9281442959406947  0.5164979127022858  0.5705833011251115  1.0000
  H   H216      1.0  0.9038312267526603  0.48440794363524214  0.5761224080926359  1.0000
  N   N3        1.0  0.04313278614012073  0.5579538515459863  0.31137638020152547  1.0000
  C   C297      1.0  0.01304655635480434  0.5463763946549445  0.29676919270045626  1.0000
  C   C298      1.0  0.035056469018798886  0.5807124627784959  0.33505742635983243  1.0000
  C   C299      1.0  0.0635718336096287  0.5709585055298155  0.2867889730531691  1.0000
  C   C300      1.0  0.060833928118595004  0.5338724748785477  0.3270311199345672  1.0000
  H   H217      1.0  0.01805167384848705  0.5291929772085984  0.27864027326466223  1.0000
  H   H218      1.0  0.9987726169398219  0.5640891139515198  0.28525118805451394  1.0000
  H   H219      1.0  0.9970306026505934  0.5364623253653232  0.3147359288048677  1.0000
  H   H220      1.0  0.057085589017382476  0.5900667477314491  0.34664329819622003  1.0000
  H   H221      1.0  0.021127150615304346  0.5990492505828637  0.32433414057255916  1.0000
  H   H222      1.0  0.01982797162937122  0.5714510137990565  0.35386977942806774  1.0000
  H   H223      1.0  0.07012993164124981  0.5544043962017029  0.26845523326394305  1.0000
  H   H224      1.0  0.0864405421784582  0.5798997781512244  0.2971557025361651  1.0000
  H   H225      1.0  0.050947289469444046  0.5893047420300083  0.2746521916589288  1.0000
  H   H226      1.0  0.08331182776436186  0.5419614148581187  0.3389564262877683  1.0000
  H   H227      1.0  0.06770126053705017  0.5163640092366273  0.3099109521192838  1.0000
  H   H228      1.0  0.046017667390293227  0.5234179885254536  0.3455994379091002  1.0000
  N   N4        1.0  0.8403971269495378  0.6365491857154209  0.3142202002372644  1.0000
  C   C301      1.0  0.8068108749212095  0.6471788302339397  0.3114473781439311  1.0000
  C   C302      1.0  0.8598053606162268  0.6578751154382614  0.33290454592376095  1.0000
  C   C303      1.0  0.8542331708527562  0.6334046520894818  0.2823312447215945  1.0000
  C   C304      1.0  0.8408471103538311  0.6078141357378916  0.3301648301687603  1.0000
  H   H229      1.0  0.7915647918601592  0.6316409297439746  0.2974115045333091  1.0000
  H   H230      1.0  0.8055590781164641  0.6685899343143012  0.29900450633807774  1.0000
  H   H231      1.0  0.7955031543584429  0.6499961430671158  0.3349808056175191  1.0000
  H   H232      1.0  0.8852958053005837  0.6504009056756311  0.3355236262229498  1.0000
  H   H233      1.0  0.8601597098477848  0.6797330920992709  0.32138804900955764  1.0000
  H   H234      1.0  0.850012881344923  0.6608544104024122  0.35710157195395087  1.0000
  H   H235      1.0  0.8523615912506671  0.6541823189982431  0.26879091226554774  1.0000
  H   H236      1.0  0.8413713826445729  0.616215917337853  0.2681071631511922  1.0000
  H   H237      1.0  0.880125461262442  0.6273057227506224  0.2835359097944119  1.0000
  H   H238      1.0  0.829309801990791  0.6090217037684659  0.35373544033305454  1.0000
  H   H239      1.0  0.8659499479001728  0.5998525121064529  0.3339205087674955  1.0000
  H   H240      1.0  0.8278788057674772  0.5906948734304757  0.3159589224897822  1.0000
  N   N5        1.0  0.7157893539958257  0.4525455305873409  0.08639582738016638  1.0000
  C   C305      1.0  0.7068630148136554  0.42930180927543443  0.06327844878497824  1.0000
  C   C306      1.0  0.6958587365293607  0.4788411152795204  0.08055229348452064  1.0000
  C   C307      1.0  0.7502503366180381  0.46002518531367925  0.082867941878213  1.0000
  C   C308      1.0  0.7102292796740871  0.442094938155096  0.11884871026731658  1.0000
  H   H241      1.0  0.7106298434972154  0.43659603503387767  0.03856429430605668  1.0000
  H   H242      1.0  0.6810496070269264  0.4228022114076045  0.06535746629982198  1.0000
  H   H243      1.0  0.7216874932246086  0.40920464855546734  0.0666514911042313  1.0000
  H   H244      1.0  0.7021581582674373  0.4969201368775676  0.09745912354404784  1.0000
  H   H245      1.0  0.699416612896597  0.48729769379498683  0.05623912094955697  1.0000
  H   H246      1.0  0.669730991338841  0.4738990796430725  0.08323142145775497  1.0000
  H   H247      1.0  0.7658651343695279  0.4403709410412329  0.08578034365878318  1.0000
  H   H248      1.0  0.7582085931086944  0.4766575545397469  0.10075078425368574  1.0000
  H   H249      1.0  0.7550155865250574  0.46926818910824963  0.05918985569327085  1.0000
  H   H250      1.0  0.6847808898852243  0.4348844863974683  0.12201624898227986  1.0000
  H   H251      1.0  0.7155025162948765  0.45960513318292623  0.13674487141752895  1.0000
  H   H252      1.0  0.7259496511330014  0.4230788359665131  0.12462742518099458  1.0000
  N   N6        1.0  0.6091982153487283  0.5279974609245155  0.927994377400278  1.0000
  C   C309      1.0  0.5945648810930376  0.5231859765340738  0.8963372877751945  1.0000
  C   C310      1.0  0.6305336949528071  0.503058916468817  0.9357535441128902  1.0000
  C   C311      1.0  0.5834150840486441  0.5303322509077694  0.9517175562497718  1.0000
  C   C312      1.0  0.6282782978449074  0.5554467143314378  0.9280504509138023  1.0000
  H   H253      1.0  0.5798049325951017  0.5028013841358672  0.8955027248408599  1.0000
  H   H254      1.0  0.6133211324572684  0.521267962464593  0.8778487003502962  1.0000
  H   H255      1.0  0.5783891668355744  0.5416476189997109  0.8896600613917429  1.0000
  H   H256      1.0  0.6499388610987192  0.5005781867057801  0.9179976696362223  1.0000
  H   H257      1.0  0.6426447365032893  0.5061953930554757  0.9591625184855599  1.0000
  H   H258      1.0  0.616940240971892  0.48196873312276833  0.9363292136442328  1.0000
  H   H259      1.0  0.5935460329361981  0.5336820744872498  0.9759350820661923  1.0000
  H   H260      1.0  0.5681770619990065  0.5101862298685494  0.9519950027998529  1.0000
  H   H261      1.0  0.567177495516392  0.5492000530755892  0.9466442227896535  1.0000
  H   H262      1.0  0.639624826977691  0.5598477387121351  0.9515955943136221  1.0000
  H   H263      1.0  0.61291728107844  0.5747181223670874  0.9220036645251588  1.0000
  H   H264      1.0  0.6482097747011861  0.5543200240949927  0.9106440125895561  1.0000
  N   N7        1.0  0.5957234509191052  0.9116894893260511  0.5197060252852066  1.0000
  C   C313      1.0  0.6257373462070889  0.9055049706014975  0.5023170768837841  1.0000
  C   C314      1.0  0.5962385826265879  0.8957685949656415  0.5499745574422508  1.0000
  C   C315      1.0  0.5675660559340606  0.9020508092141943  0.5004898495133909  1.0000
  C   C316      1.0  0.593351883194805  0.9435375843455213  0.5260855124777303  1.0000
  H   H265      1.0  0.62664267182339  0.9178819747666997  0.479785261949502  1.0000
  H   H266      1.0  0.6280063210435068  0.8817823387337348  0.4963186780198362  1.0000
  H   H267      1.0  0.647487422561932  0.9119398491523245  0.5164690603865049  1.0000
  H   H268      1.0  0.6172611228468577  0.9025423069459341  0.5650292697872675  1.0000
  H   H269      1.0  0.5739749067139059  0.9000752178903885  0.563757475557309  1.0000
  H   H270      1.0  0.5979589700696856  0.8716381110194512  0.5460581527377139  1.0000
  H   H271      1.0  0.5445136846923802  0.9061861496003836  0.5130474075492747  1.0000
  H   H272      1.0  0.5686655160955135  0.8782096320979803  0.4947091952165518  1.0000
  H   H273      1.0  0.5661659763557185  0.9140533104544064  0.4777350056544905  1.0000
  H   H274      1.0  0.5935282589090461  0.9562093411716736  0.5037230058958178  1.0000
  H   H275      1.0  0.6139364952446239  0.9514840708782312  0.5410194963855272  1.0000
  H   H276      1.0  0.5705491132625441  0.949195485135468  0.5383812383541458  1.0000
  N   N8        1.0  0.8338329984155091  0.45773447858748995  0.9240979833266467  1.0000
  C   C317      1.0  0.8615694335202799  0.4533816893217497  0.9029200593363873  1.0000
  C   C318      1.0  0.8305789040999466  0.43192884953304816  0.9447158488491948  1.0000
  C   C319      1.0  0.8040333696888752  0.46133762126060573  0.9049868923509288  1.0000
  C   C320      1.0  0.8391288450026421  0.48431473467521247  0.9437954808148188  1.0000
  H   H277      1.0  0.8845319198973735  0.4509133960714518  0.9165263718154176  1.0000
  H   H278      1.0  0.8647708961754323  0.4723558196377976  0.8869845154432889  1.0000
  H   H279      1.0  0.8583498235724589  0.43353336147146737  0.8876695982963522  1.0000
  H   H280      1.0  0.8527447109049999  0.42839487696187073  0.9592547523842017  1.0000
  H   H281      1.0  0.8102144981472265  0.43458743352280754  0.9613432884710306  1.0000
  H   H282      1.0  0.8257650387916546  0.4115304322416878  0.9307496013867939  1.0000
  H   H283      1.0  0.7827262462387079  0.46496938446858627  0.9202627751416362  1.0000
  H   H284      1.0  0.7989227997856786  0.4416021713260419  0.8900567708541118  1.0000
  H   H285      1.0  0.8057512444884601  0.48055614539581165  0.8890322260726616  1.0000
  H   H286      1.0  0.8191740257754602  0.4877095796666145  0.9607938100797635  1.0000
  H   H287      1.0  0.840364507516992  0.5043355675330156  0.9290723199021941  1.0000
  H   H288      1.0  0.8620833812560421  0.48313502319613516  0.95762338858967  1.0000
  N   N9        1.0  0.7369998239054809  0.2487529003218649  0.4978645088812668  1.0000
  C   C321      1.0  0.7118842412311934  0.23269324278004624  0.5152235042165777  1.0000
  C   C322      1.0  0.7414641828006489  0.2350327928954078  0.4664042078977231  1.0000
  C   C323      1.0  0.7677227142627847  0.24772967067468132  0.5158577959689206  1.0000
  C   C324      1.0  0.7269649751802235  0.27964556923426653  0.49409642410402244  1.0000
  H   H289      1.0  0.6881653567021625  0.23364105457234283  0.502605719235798  1.0000
  H   H290      1.0  0.7084575528895983  0.2421737261011725  0.5393409085004357  1.0000
  H   H291      1.0  0.7182629433781791  0.2091566264800452  0.5179975120235212  1.0000
  H   H292      1.0  0.7598006688297182  0.24693668881282463  0.4524424646580036  1.0000
  H   H293      1.0  0.7494981009936531  0.2118574322278488  0.46833159558499815  1.0000
  H   H294      1.0  0.7186401289791273  0.23491531574336358  0.4523841740786188  1.0000
  H   H295      1.0  0.7872898324514717  0.25950094835491183  0.5034316499883535  1.0000
  H   H296      1.0  0.7759528324741722  0.22475808545529513  0.5192971085927397  1.0000
  H   H297      1.0  0.7652402752345995  0.2579956683501546  0.5397020518230717  1.0000
  H   H298      1.0  0.7452647215344314  0.29249530047445704  0.48107544614230296  1.0000
  H   H299      1.0  0.7233046148385753  0.2905561141877273  0.5174536703456033  1.0000
  H   H300      1.0  0.7038137077843395  0.2812519071845053  0.48060277499688797  1.0000
  N   N10       1.0  0.8397207372743613  0.8562921999153605  0.6682256214224326  1.0000
  C   C325      1.0  0.8524870883687444  0.8802883961758171  0.68857531333322  1.0000
  C   C326      1.0  0.8090025845798462  0.8454464649494752  0.6811602447436695  1.0000
  C   C327      1.0  0.8634732685423985  0.8321383047540453  0.6670628202500325  1.0000
  C   C328      1.0  0.833953605453716  0.8674222895452881  0.635992590017889  1.0000
  H   H301      1.0  0.8755698356958007  0.8890888361766998  0.6793111540394975  1.0000
  H   H302      1.0  0.8571059064472212  0.8727378160209522  0.7131306479022387  1.0000
  H   H303      1.0  0.8352381174564548  0.8989587952373073  0.6898827860890514  1.0000
  H   H304      1.0  0.8123328217738146  0.8368706946072796  0.7054991935056976  1.0000
  H   H305      1.0  0.7906443662464212  0.8632802549447455  0.682357045630593  1.0000
  H   H306      1.0  0.7985850696598473  0.827520218192276  0.6661558320267724  1.0000
  H   H307      1.0  0.8871471365673278  0.8398534987126872  0.6580759327158928  1.0000
  H   H308      1.0  0.8551596086371843  0.8139903469269015  0.6511345393227898  1.0000
  H   H309      1.0  0.867984010446653  0.822739763650949  0.6908712332913608  1.0000
  H   H310      1.0  0.8562940899701807  0.876908145867835  0.6260492499283576  1.0000
  H   H311      1.0  0.8153949295876469  0.8849734225807642  0.6358024445480432  1.0000
  H   H312      1.0  0.825326556235324  0.8497994599186253  0.6195611863090305  1.0000
  N   N11       1.0  0.28687012512645316  0.5282317891492743  0.5252432656064518  1.0000
  C   C329      1.0  0.3169110898677417  0.520850164696295  0.5425300288177324  1.0000
  C   C330      1.0  0.27940402881865967  0.5596401831506347  0.5302122630159143  1.0000
  C   C331      1.0  0.2600883666588188  0.5100870026272571  0.53710352909897  1.0000
  C   C332      1.0  0.29114987875617643  0.5223681823216056  0.4911318424222556  1.0000
  H   H313      1.0  0.3228127783230706  0.4970976470383805  0.5400842996758266  1.0000
  H   H314      1.0  0.314749372846044  0.5256039247502278  0.5682922865176832  1.0000
  H   H315      1.0  0.3378114869277556  0.5336416451476211  0.5337716896004869  1.0000
  H   H316      1.0  0.2994469189001817  0.5739084699031117  0.5220470590962396  1.0000
  H   H317      1.0  0.2573128031374767  0.5661823337603664  0.5168568239334188  1.0000
  H   H318      1.0  0.27548919467232263  0.5648076494822715  0.5556554491628197  1.0000
  H   H319      1.0  0.23684232505078862  0.5153559333093792  0.5250170628790335  1.0000
  H   H320      1.0  0.2568062723498852  0.5132582598772947  0.5629970740252885  1.0000
  H   H321      1.0  0.2645953563629693  0.4863016421832224  0.5329899654096223  1.0000
  H   H322      1.0  0.2688342276834538  0.5274736540277529  0.477469393993739  1.0000
  H   H323      1.0  0.29697005024262846  0.4988875789469767  0.48644977535176237  1.0000
  H   H324      1.0  0.31088728107153757  0.5359854037489034  0.48125515709548977  1.0000
  N   N12       1.0  0.37552531377149045  0.8284189765608282  0.5045251361350207  1.0000
  C   C333      1.0  0.3823074711647678  0.7978669325135195  0.5139405344732755  1.0000
  C   C334      1.0  0.37453007943410804  0.8474150287665301  0.5330013982065671  1.0000
  C   C335      1.0  0.34405239107130553  0.8296004741764872  0.48778523607686747  1.0000
  C   C336      1.0  0.4012296000509646  0.8388167877909926  0.48342512654294606  1.0000
  H   H325      1.0  0.3826868335873536  0.7828080082181633  0.4930297839082933  1.0000
  H   H326      1.0  0.3634315035578198  0.7893492205087296  0.5299836878970259  1.0000
  H   H327      1.0  0.40601607457340744  0.7960440491803955  0.5263760632408845  1.0000
  H   H328      1.0  0.370047478240297  0.8707545026246208  0.5266962860768407  1.0000
  H   H329      1.0  0.35520506926591217  0.8404705641186397  0.5493421903630713  1.0000
  H   H330      1.0  0.3979390531206662  0.8469254427830601  0.5462069472517249  1.0000
  H   H331      1.0  0.33820882440412725  0.852290449105587  0.4801346891020188  1.0000
  H   H332      1.0  0.32411401267268297  0.8219159327168327  0.5030785216609215  1.0000
  H   H333      1.0  0.3437963270507794  0.8151283488528497  0.466398302536222  1.0000
  H   H334      1.0  0.39711429290063327  0.8619693997514174  0.47619194173206664  1.0000
  H   H335      1.0  0.40268155520187693  0.825088065643729  0.46159222050460397  1.0000
  H   H336      1.0  0.4253086705531643  0.8383226211451138  0.495408179036479  1.0000
  N   N13       1.0  0.7728795149449482  0.43449508788047186  0.2700472831547547  1.0000
  C   C337      1.0  0.7795819076642643  0.40675951622037887  0.28668601670432414  1.0000
  C   C338      1.0  0.7442372314524041  0.4306347341676096  0.24930932921269222  1.0000
  C   C339      1.0  0.8009199843252448  0.44249530286033323  0.2506704772028623  1.0000
  C   C340      1.0  0.7667123957296029  0.4579991520731978  0.2935552284790506  1.0000
  H   H337      1.0  0.80146680758589  0.4086990267639499  0.30206359000185445  1.0000
  H   H338      1.0  0.7834426809641521  0.3883063084166135  0.2697001003065673  1.0000
  H   H339      1.0  0.759074410028859  0.40050434712858796  0.30205304130955835  1.0000
  H   H340      1.0  0.7480271463073436  0.41317306054948866  0.23110158702465133  1.0000
  H   H341      1.0  0.7228815702742396  0.4241382313824221  0.2631743804704745  1.0000
  H   H342      1.0  0.7380571007995734  0.4512241135684639  0.2367054506156936  1.0000
  H   H343      1.0  0.8062609142116478  0.4252326837521113  0.2327150900219741  1.0000
  H   H344      1.0  0.8229891236098333  0.4458497454592295  0.26555552876658695  1.0000
  H   H345      1.0  0.7966167922714269  0.4634001484464306  0.23789128752171185  1.0000
  H   H346      1.0  0.7882070026941485  0.46205171488294156  0.3090340626090853  1.0000
  H   H347      1.0  0.7460726581570022  0.4523994935017256  0.3090081975465899  1.0000
  H   H348      1.0  0.7609066249976314  0.4791652637252681  0.28196716976926894  1.0000
  N   N14       1.0  0.9591142091079741  0.392984492819056  0.679072838295015  1.0000
  C   C341      1.0  0.9247352733732955  0.38496535357337025  0.6749110492859409  1.0000
  C   C342      1.0  0.9794790839028089  0.36759626550816205  0.6705064644790599  1.0000
  C   C343      1.0  0.9654647593155609  0.40151288694752024  0.7123782899368286  1.0000
  C   C344      1.0  0.9667385493947509  0.4178926347163625  0.6583494313349596  1.0000
  H   H349      1.0  0.9191783884505642  0.3784850320009172  0.6499602577985479  1.0000
  H   H350      1.0  0.9086394923119373  0.40365824223960983  0.6810534875582279  1.0000
  H   H351      1.0  0.9180990149993256  0.3661065246397994  0.6900357939372735  1.0000
  H   H352      1.0  0.0056148481351725454  0.3728477720660606  0.673237107819896  1.0000
  H   H353      1.0  0.9742330720884567  0.3482321261100558  0.6854216833471217  1.0000
  H   H354      1.0  0.9752439241538394  0.3607592592356884  0.6454672046747625  1.0000
  H   H355      1.0  0.990973635575605  0.40863618273028884  0.7161069689597653  1.0000
  H   H356      1.0  0.9607773947054755  0.38300798958165455  0.7286643546619068  1.0000
  H   H357      1.0  0.9498323211581996  0.4201303905507605  0.7198291106308943  1.0000
  H   H358      1.0  0.9925771020536956  0.42447048674937393  0.6605216526320381  1.0000
  H   H359      1.0  0.9520078601005817  0.4375733961434  0.6642932324132745  1.0000
  H   H360      1.0  0.9619703403997301  0.4122040837904455  0.6330435551967359  1.0000
  N   N15       1.0  0.5288029733907654  0.8656474820925648  0.8539260623978225  1.0000
  C   C345      1.0  0.5103600750237594  0.8786748553505036  0.8274716756492723  1.0000
  C   C346      1.0  0.545210140560876  0.838794604890405  0.8427165077516008  1.0000
  C   C347      1.0  0.5066227427750805  0.8581008329086127  0.8797082320118651  1.0000
  C   C348      1.0  0.5530596507088096  0.8869777794499754  0.8658588931575676  1.0000
  H   H361      1.0  0.4981571569155897  0.8993684766329311  0.8347781298154159  1.0000
  H   H362      1.0  0.49151029883128927  0.8634353694664386  0.8180388941883313  1.0000
  H   H363      1.0  0.5263713126435405  0.8842012489389739  0.8074531897563099  1.0000
  H   H364      1.0  0.5585714290558957  0.8278796217667876  0.8623038624769003  1.0000
  H   H365      1.0  0.5277568713141617  0.8224936310835986  0.8327696319742048  1.0000
  H   H366      1.0  0.5629380260956354  0.8438144453697576  0.8239436959419018  1.0000
  H   H367      1.0  0.4881028804867032  0.841889641015957  0.8716364649732393  1.0000
  H   H368      1.0  0.4937897425515875  0.8778767427406876  0.888691589945218  1.0000
  H   H369      1.0  0.5199386593617599  0.8482789794183023  0.9000602812924833  1.0000
  H   H370      1.0  0.5671854684361698  0.8779672745550972  0.8860701370875765  1.0000
  H   H371      1.0  0.5416550316704913  0.9077527169386048  0.8740176191945727  1.0000
  H   H372      1.0  0.5706123905455004  0.8928815865137206  0.8472836213590628  1.0000
  N   N16       1.0  0.7504245635615611  0.17743754371648657  0.7055504985610059  1.0000
  C   C349      1.0  0.744446638049083  0.14641306146985772  0.7135178628501407  1.0000
  C   C350      1.0  0.7461069082416003  0.18127766009176727  0.671187635372808  1.0000
  C   C351      1.0  0.7837236547758037  0.18561342914701923  0.7148982633473783  1.0000
  C   C352      1.0  0.7272267185706301  0.19644621645813265  0.7223011325225702  1.0000
  H   H373      1.0  0.7477553823100721  0.14255539595628916  0.739264395022702  1.0000
  H   H374      1.0  0.7612807556542078  0.13155352154731134  0.7006616762367345  1.0000
  H   H375      1.0  0.7193938070369998  0.13966381589325352  0.706897112520839  1.0000
  H   H376      1.0  0.7488921444939642  0.20463641603006233  0.6643993568206721  1.0000
  H   H377      1.0  0.7639399070571093  0.1684719218654045  0.6575668315621156  1.0000
  H   H378      1.0  0.7219596014627007  0.17354523258729357  0.6631683833428272  1.0000
  H   H379      1.0  0.7890279415934595  0.20886871688623132  0.7089900237319369  1.0000
  H   H380      1.0  0.8017338541049369  0.17164530011915397  0.702417769652852  1.0000
  H   H381      1.0  0.7878401777962758  0.18300919048269104  0.7407407420274281  1.0000
  H   H382      1.0  0.7019742828098858  0.19114203566400362  0.7149873424143293  1.0000
  H   H383      1.0  0.7311871519137938  0.22005208380956714  0.7169105607548634  1.0000
  H   H384      1.0  0.7291690079936636  0.1939472686160419  0.7483815706076203  1.0000
  N   N17       1.0  0.36450689187938845  0.5172456009185777  0.7456738842672737  1.0000
  C   C353      1.0  0.3314814075700865  0.5103782816458762  0.7559909446984919  1.0000
  C   C354      1.0  0.37096339610669526  0.5489198749127966  0.7504250942979311  1.0000
  C   C355      1.0  0.3674391560383294  0.5096520707102595  0.7117671342479619  1.0000
  C   C356      1.0  0.38791729475071113  0.5000349619223339  0.7644691273242776  1.0000
  H   H385      1.0  0.3133883344569637  0.5239478123235816  0.7433293150987329  1.0000
  H   H386      1.0  0.32831827942573166  0.514660051935202  0.7815740467021742  1.0000
  H   H387      1.0  0.3251109185637603  0.48694929395520975  0.751523312339603  1.0000
  H   H388      1.0  0.3693447694035411  0.5553492365053814  0.775776964202897  1.0000
  H   H389      1.0  0.3955483582335409  0.5549852978361339  0.7424850988630389  1.0000
  H   H390      1.0  0.3532746587510595  0.5626484473632827  0.7372090876917744  1.0000
  H   H391      1.0  0.3921169617146959  0.514225172654067  0.7030111587855468  1.0000
  H   H392      1.0  0.35009587328180836  0.5224627806382729  0.6970753729598329  1.0000
  H   H393      1.0  0.3620846626738158  0.48601282177503435  0.707194919988188  1.0000
  H   H394      1.0  0.4131705934151844  0.5046450704620838  0.7573976442678542  1.0000
  H   H395      1.0  0.38357266253877054  0.47604261892469335  0.761677064029299  1.0000
  H   H396      1.0  0.38624080375788944  0.5053843961067588  0.7901902900245865  1.0000
  N   N18       1.0  0.9633923568535231  0.6039090962389788  0.6148270268617726  1.0000
  C   C357      1.0  0.9279161472362583  0.6056003496753559  0.6114351008484368  1.0000
  C   C358      1.0  0.9719020910744702  0.5954423652801352  0.6474776037264701  1.0000
  C   C359      1.0  0.9777994019245774  0.632799278454948  0.6082743462150659  1.0000
  C   C360      1.0  0.9759316906516347  0.5819066275353709  0.5922315152464293  1.0000
  H   H397      1.0  0.920536477475336  0.6110245733582454  0.5868498464592519  1.0000
  H   H398      1.0  0.917750995935415  0.6228903885667646  0.6271222289998616  1.0000
  H   H399      1.0  0.9162567865320833  0.5844222233322439  0.6176459942737683  1.0000
  H   H400      1.0  0.9637941565771996  0.6121959949793003  0.6649297092039061  1.0000
  H   H401      1.0  0.960258369973105  0.5744264649162806  0.6538884562136028  1.0000
  H   H402      1.0  0.9984045694170849  0.5928452407960796  0.6507466547571795  1.0000
  H   H403      1.0  0.0045416818592594055  0.6323516178592203  0.6107268173121595  1.0000
  H   H404      1.0  0.9687003979053389  0.649836766141895  0.6249186998751378  1.0000
  H   H405      1.0  0.9718778018256832  0.6401797875996164  0.5839611215349947  1.0000
  H   H406      1.0  0.9705392456023552  0.5881991298050836  0.5673210662162456  1.0000
  H   H407      1.0  0.9649230339548405  0.5600059126512563  0.5961417609871434  1.0000
  H   H408      1.0  0.002547706849335807  0.5794498870197807  0.5946317268294756  1.0000
  N   N19       1.0  0.12481206526246598  0.8198230495022493  0.5848915582900611  1.0000
  C   C361      1.0  0.14042707662288995  0.8051783521067587  0.5577616027584471  1.0000
  C   C362      1.0  0.12258060992995143  0.8516608831124969  0.5789573832586753  1.0000
  C   C363      1.0  0.14421818975811526  0.8148682053214769  0.6138725429728144  1.0000
  C   C364      1.0  0.09210693152541148  0.8075691213977713  0.5890045179740679  1.0000
  H   H409      1.0  0.16508378324918468  0.8140295829127601  0.5538299555288638  1.0000
  H   H410      1.0  0.12629531170436772  0.8080621594870658  0.5355103068211835  1.0000
  H   H411      1.0  0.1429307770188123  0.7812060302047324  0.5616151222508383  1.0000
  H   H412      1.0  0.11104282917217277  0.8634371178970409  0.599017542832762  1.0000
  H   H413      1.0  0.1469480666643645  0.8615147145553456  0.5757258181899885  1.0000
  H   H414      1.0  0.10817048716639555  0.8562016286026712  0.5572053356842425  1.0000
  H   H415      1.0  0.1328402179361005  0.8250990747910908  0.6349516548810055  1.0000
  H   H416      1.0  0.16888675978533152  0.8243418722967668  0.6117660607916114  1.0000
  H   H417      1.0  0.14690046455919398  0.791010939151696  0.6187029350151687  1.0000
  H   H418      1.0  0.09305000553241326  0.7836399684184353  0.5936994081274714  1.0000
  H   H419      1.0  0.07677008594998957  0.8105996560120435  0.5675339056603578  1.0000
  H   H420      1.0  0.07954908678511985  0.8179832322428083  0.6093404222052852  1.0000
  N   N20       1.0  0.3424234029887982  0.5921211325570861  0.9360002896584921  1.0000
  C   C365      1.0  0.3667412751269861  0.6142416635890241  0.9271508801007767  1.0000
  C   C366      1.0  0.3572981895637793  0.5626757833796894  0.935740623371564  1.0000
  C   C367      1.0  0.3152387607877948  0.5926640807822695  0.9130932124804805  1.0000
  C   C368      1.0  0.3304915096742862  0.5988602763883871  0.9680452495374405  1.0000
  H   H421      1.0  0.38756640901798944  0.6144981049439979  0.9440345674259605  1.0000
  H   H422      1.0  0.35636296323952293  0.6367253818553158  0.9268768949898608  1.0000
  H   H423      1.0  0.3765371356219746  0.6096682368921372  0.9032573598878854  1.0000
  H   H424      1.0  0.3395599988768172  0.5452787590550768  0.9415747303797575  1.0000
  H   H425      1.0  0.3675232129758736  0.5571294921344145  0.9122268182177685  1.0000
  H   H426      1.0  0.3773228565924347  0.5613747265005683  0.9533479566292111  1.0000
  H   H427      1.0  0.32342083052664045  0.5870609813501434  0.8888774022864006  1.0000
  H   H428      1.0  0.3038812620543796  0.6147483989297424  0.9119403583428703  1.0000
  H   H429      1.0  0.29619303150270804  0.5765367178261018  0.9192291044579803  1.0000
  H   H430      1.0  0.31239343572745853  0.5824093325825875  0.9756708506550406  1.0000
  H   H431      1.0  0.3190672207973038  0.6209095777481995  0.969135632932339  1.0000
  H   H432      1.0  0.3505334180246702  0.5987368804561397  0.9858567710136532  1.0000
  N   N21       1.0  0.5965257619594782  0.33219038867128714  0.8535946200506145  1.0000
  C   C369      1.0  0.5929970110226126  0.3633483137965732  0.8448574258517092  1.0000
  C   C370      1.0  0.5642920684366625  0.3192284449440081  0.85853638926716  1.0000
  C   C371      1.0  0.6158064951401764  0.3301384107527806  0.8831109706277753  1.0000
  C   C372      1.0  0.6129376443115413  0.3160663330450187  0.8279409951398038  1.0000
  H   H433      1.0  0.5796625017892445  0.37591178414154147  0.8632509733149636  1.0000
  H   H434      1.0  0.579590759396165  0.3657944463373671  0.822118712431992  1.0000
  H   H435      1.0  0.6169494695009721  0.37418063768613147  0.8424761574033403  1.0000
  H   H436      1.0  0.5512567855634368  0.3309157622241682  0.8777813429942226  1.0000
  H   H437      1.0  0.549092159690745  0.32033007265986  0.8367014937018888  1.0000
  H   H438      1.0  0.5661323793176898  0.29572667749691905  0.8652783711605652  1.0000
  H   H439      1.0  0.6187687553944337  0.3069976648953391  0.8907318519226618  1.0000
  H   H440      1.0  0.6042483347006457  0.34244042260161855  0.9028051683509217  1.0000
  H   H441      1.0  0.6403992504180658  0.3395689196300944  0.8802975607452973  1.0000
  H   H442      1.0  0.6149194631376914  0.29230591637080594  0.8332837139395006  1.0000
  H   H443      1.0  0.6378656463975612  0.32446731788733246  0.8243228949273718  1.0000
  H   H444      1.0  0.5996320300393978  0.317831908916803  0.8050416921770353  1.0000
  N   N22       1.0  0.7555072232353797  0.04050123189432586  0.4947471924176177  1.0000
  C   C373      1.0  0.7269786663571418  0.04516538861937147  0.4741309636146322  1.0000
  C   C374      1.0  0.7449117935604295  0.031086781771746397  0.5263080363653297  1.0000
  C   C375      1.0  0.7739968915663388  0.06815328667050188  0.49786497115683637  1.0000
  C   C376      1.0  0.7762294159870265  0.017577923894302572  0.4807019092545446  1.0000
  H   H445      1.0  0.734145980877696  0.05214810406570081  0.4500756776743262  1.0000
  H   H446      1.0  0.7110428875045557  0.06265062771113372  0.483802205086971  1.0000
  H   H447      1.0  0.7123667322479733  0.02475988776838567  0.4714705551187961  1.0000
  H   H448      1.0  0.7658745595012686  0.027674658208615147  0.5425289879976429  1.0000
  H   H449      1.0  0.729040022861493  0.047761137220998506  0.5375078583975659  1.0000
  H   H450      1.0  0.7313293895821199  0.010022379511249735  0.5249292581176138  1.0000
  H   H451      1.0  0.7959344147198284  0.06516908866297227  0.5128773750220467  1.0000
  H   H452      1.0  0.759366951750913  0.0859301365344272  0.5088067328566772  1.0000
  H   H453      1.0  0.7820882115017924  0.0761133354337747  0.4744819023916546  1.0000
  H   H454      1.0  0.7979914367592311  0.01349284057234801  0.4957237077394085  1.0000
  H   H455      1.0  0.7847610743765159  0.023967735243194843  0.45691445911789663  1.0000
  H   H456      1.0  0.7631332141295465  0.9963645770462282  0.4780686279398064  1.0000
  N   N23       1.0  0.48487581329361884  0.4702270495499318  0.07256359081235786  1.0000
  C   C377      1.0  0.489512546357847  0.4440519434534628  0.05224379886071051  1.0000
  C   C378      1.0  0.47511655463647845  0.49541003840246856  0.05286262294447863  1.0000
  C   C379      1.0  0.5154531927812326  0.4772100210524216  0.08932982626088126  1.0000
  C   C380      1.0  0.4594958840755823  0.4641696792451853  0.09584871787820859  1.0000
  H   H457      1.0  0.49612560749231216  0.42445692720117106  0.06639593616770534  1.0000
  H   H458      1.0  0.509173392228201  0.4476091097644629  0.03505723862585319  1.0000
  H   H459      1.0  0.46731544167243705  0.4387312188739404  0.038252739418285664  1.0000
  H   H460      1.0  0.47029371438998024  0.5153178318293826  0.06754277858706192  1.0000
  H   H461      1.0  0.4940817552431347  0.5010782143064022  0.035533614378578715  1.0000
  H   H462      1.0  0.45272535093145694  0.4905068888007494  0.039009033956850514  1.0000
  H   H463      1.0  0.5130297849455493  0.4970611459184392  0.10462503454619199  1.0000
  H   H464      1.0  0.5352893031807542  0.4814431393361845  0.07248723496860232  1.0000
  H   H465      1.0  0.5232438743047017  0.4588981863193178  0.10490780406872292  1.0000
  H   H466      1.0  0.455872843718581  0.48323684492567215  0.11196488655612041  1.0000
  H   H467      1.0  0.4658043068427981  0.4450848139446096  0.11090136121319952  1.0000
  H   H468      1.0  0.4358152561770974  0.45961241923966023  0.08407797447548115  1.0000
  N   N24       1.0  0.5474062023964383  0.2023220356968908  0.6360710618549987  1.0000
  C   C381      1.0  0.5623280910651256  0.22533783543120617  0.6563217940205529  1.0000
  C   C382      1.0  0.5168644681919706  0.213433327304864  0.6224973395370581  1.0000
  C   C383      1.0  0.5407611181344675  0.17612804475969318  0.6552666063997472  1.0000
  C   C384      1.0  0.5695488366248409  0.1943946896305031  0.6102041551339621  1.0000
  H   H469      1.0  0.5853800855351283  0.21766491276019595  0.6670531132425688  1.0000
  H   H470      1.0  0.5462032054760348  0.2317939067728355  0.6760743983326716  1.0000
  H   H471      1.0  0.5677493679032234  0.24543914462794952  0.6426764304796139  1.0000
  H   H472      1.0  0.5053498204558244  0.19684470758355563  0.6065680765534689  1.0000
  H   H473      1.0  0.49922761269654403  0.21897786037044012  0.6412263410628413  1.0000
  H   H474      1.0  0.5208081663992986  0.2334760911608011  0.6082429907165974  1.0000
  H   H475      1.0  0.528877128337214  0.1585199305061596  0.6408766481266694  1.0000
  H   H476      1.0  0.5244341717194432  0.1814697270622733  0.67525033926216  1.0000
  H   H477      1.0  0.5634301598248203  0.1669522596591448  0.665534534801751  1.0000
  H   H478      1.0  0.5589375820484968  0.17710446427763407  0.5944124249355421  1.0000
  H   H479      1.0  0.5929199223437168  0.18590987577850776  0.6195897423661212  1.0000
  H   H480      1.0  0.574993610539174  0.2136395844618595  0.5951813890689444  1.0000
  N   N25       1.0  0.8913361532496994  0.6133587007669691  0.8297425176317459  1.0000
  C   C385      1.0  0.8933499479492083  0.6420621614825504  0.8139249184065501  1.0000
  C   C386      1.0  0.8856729374327391  0.5900124564852339  0.8058010691700478  1.0000
  C   C387      1.0  0.8644509981527732  0.6138290094646367  0.8524262390412428  1.0000
  C   C388      1.0  0.9219816927788066  0.6075198210933042  0.8467600206606948  1.0000
  H   H481      1.0  0.8708152075808153  0.6469787143892379  0.8004616885510196  1.0000
  H   H482      1.0  0.9136052436959112  0.6425701916679888  0.7968781182887299  1.0000
  H   H483      1.0  0.897469537506869  0.660193436116456  0.8313164882335549  1.0000
  H   H484      1.0  0.8845911473155481  0.5680237040965262  0.8168692043827687  1.0000
  H   H485      1.0  0.8626234755509286  0.5933701190086715  0.792628433135135  1.0000
  H   H486      1.0  0.905442366790267  0.5892544069966613  0.7882211177348255  1.0000
  H   H487      1.0  0.8620028993485902  0.5924285195927983  0.864530769026616  1.0000
  H   H488      1.0  0.8409449160075559  0.6184823906805667  0.8405247203854925  1.0000
  H   H489      1.0  0.8682059225687611  0.630823355230669  0.8712089160476877  1.0000
  H   H490      1.0  0.9427017225775575  0.6065638401845237  0.8301942529861713  1.0000
  H   H491      1.0  0.9211238491639316  0.5862056887518005  0.8593381068136987  1.0000
  H   H492      1.0  0.9273446776337986  0.6248212561943429  0.8647985943310545  1.0000
  N   N26       1.0  0.5760100937735716  0.4743181201037721  0.28704686401151913  1.0000
  C   C389      1.0  0.5858119584983813  0.4467742512552355  0.3026501282278998  1.0000
  C   C390      1.0  0.5894662466956282  0.4997091729582263  0.30474222011277996  1.0000
  C   C391      1.0  0.5404232475308778  0.4763311860757338  0.2862490113586626  1.0000
  C   C392      1.0  0.5883756600136197  0.47441151736897524  0.2544462600552595  1.0000
  H   H493      1.0  0.6125119239466055  0.4444185605170475  0.3034293218312442  1.0000
  H   H494      1.0  0.5760049223899779  0.4271322775568114  0.2898129803663841  1.0000
  H   H495      1.0  0.5771877678685479  0.44586878043181416  0.3274032413399676  1.0000
  H   H496      1.0  0.5827484174299074  0.52078926491351  0.29337070202043164  1.0000
  H   H497      1.0  0.5808347066657036  0.5003297271128465  0.32953324431128567  1.0000
  H   H498      1.0  0.6162265800368448  0.49878067402148024  0.30578847613449855  1.0000
  H   H499      1.0  0.5320392195075125  0.4961250642955667  0.2733027703203204  1.0000
  H   H500      1.0  0.530322401197423  0.47731323218782146  0.31047226651058846  1.0000
  H   H501      1.0  0.5295072387725271  0.45692824261925696  0.2741480126815048  1.0000
  H   H502      1.0  0.5798061500315304  0.4938281606923803  0.24097862175302343  1.0000
  H   H503      1.0  0.5803022678279484  0.45458785555173264  0.24121892391763025  1.0000
  H   H504      1.0  0.6151860405151477  0.4743873649407332  0.25412397888507077  1.0000
  N   N27       1.0  0.5916842705533387  0.23968476950857354  0.3167922056797118  1.0000
  C   C393      1.0  0.6195246054055872  0.22336442688154803  0.3040433131365732  1.0000
  C   C394      1.0  0.5936334846195738  0.24004292229251312  0.3517072618965319  1.0000
  C   C395      1.0  0.561451285795377  0.2251025194562071  0.30640623629442315  1.0000
  C   C396      1.0  0.5921458021500606  0.2701393118468529  0.3050310949644717  1.0000
  H   H505      1.0  0.6189846706869836  0.2226860142982444  0.2777537966969763  1.0000
  H   H506      1.0  0.6199817239194283  0.20033959067162313  0.3126298819689378  1.0000
  H   H507      1.0  0.6427486601457941  0.23378691138483748  0.3113253562433878  1.0000
  H   H508      1.0  0.5930188672079278  0.21744611826430346  0.3614088972777473  1.0000
  H   H509      1.0  0.6164536244961204  0.2503435752677577  0.3602736769033196  1.0000
  H   H510      1.0  0.5733541822027303  0.25254243393757503  0.3622694507272233  1.0000
  H   H511      1.0  0.5399308570638189  0.2366236468442764  0.31587270970025216  1.0000
  H   H512      1.0  0.5604693007283985  0.2019949565577577  0.31471881358629583  1.0000
  H   H513      1.0  0.5591769151324483  0.22455693483775274  0.28017020335533277  1.0000
  H   H514      1.0  0.5710362191807113  0.28292800313100536  0.3134660883575302  1.0000
  H   H515      1.0  0.5919641155145992  0.27074971163673356  0.27872703372558594  1.0000
  H   H516      1.0  0.6141786091249912  0.2820401839080782  0.31322002049463143  1.0000
  N   N28       1.0  0.3179481182839782  0.4861969832725613  0.3123849383055746  1.0000
  C   C397      1.0  0.3301187234975285  0.5118646768423537  0.3304387307678419  1.0000
  C   C398      1.0  0.3230216055747729  0.4593967359664226  0.331170071624157  1.0000
  C   C399      1.0  0.33560880403816823  0.4837178059262311  0.28231121900285877  1.0000
  C   C400      1.0  0.2831243101029853  0.49000918713945313  0.30570514547834443  1.0000
  H   H517      1.0  0.35654449792842513  0.5102840244749526  0.3349729884904033  1.0000
  H   H518      1.0  0.3183396390800832  0.5140053120806419  0.3537518346272071  1.0000
  H   H519      1.0  0.32529300374105896  0.532535639614371  0.31756443342669083  1.0000
  H   H520      1.0  0.3141442902157416  0.43951900343301714  0.3182933741525846  1.0000
  H   H521      1.0  0.349055454793265  0.45609001824876466  0.3368226476744885  1.0000
  H   H522      1.0  0.30997180441743144  0.4606993610651645  0.35404244534573504  1.0000
  H   H523      1.0  0.3322497442394782  0.5036346622996307  0.26761372401334876  1.0000
  H   H524      1.0  0.3273425183885088  0.46446030646634895  0.2680173059529879  1.0000
  H   H525      1.0  0.36208070066082787  0.48131881526392695  0.2865014924385737  1.0000
  H   H526      1.0  0.27302824171117546  0.4710363711625425  0.29211184975182725  1.0000
  H   H527      1.0  0.27847821782461046  0.5102234051696044  0.2917987723338477  1.0000
  H   H528      1.0  0.2691945051585214  0.492099258961358  0.32797895846224295  1.0000
  N   N29       1.0  0.08747691394171642  0.4631825343497468  0.48283730952461557  1.0000
  C   C401      1.0  0.05581909544447328  0.45025786295400594  0.4902655901662488  1.0000
  C   C402      1.0  0.11282201664887492  0.44961783117400483  0.5027138331814255  1.0000
  C   C403      1.0  0.086604179558462  0.49510090259411993  0.48925615168682224  1.0000
  C   C404      1.0  0.09456876384539314  0.45770139068316  0.4491449894574084  1.0000
  H   H529      1.0  0.03620712866569664  0.4597464760897067  0.4753898253599138  1.0000
  H   H530      1.0  0.04943802429145383  0.4542339220852971  0.5153462239781262  1.0000
  H   H531      1.0  0.055757940666774086  0.4261447278429249  0.486081357622428  1.0000
  H   H532      1.0  0.11468882874840602  0.4256047109486795  0.4980904965270739  1.0000
  H   H533      1.0  0.13691216820301855  0.45934494857246283  0.4980666716336416  1.0000
  H   H534      1.0  0.10790626718812657  0.4526941701750596  0.5283644990937886  1.0000
  H   H535      1.0  0.06689323653856549  0.505851498332062  0.4755882128970346  1.0000
  H   H536      1.0  0.1096173502817912  0.5058744956514433  0.48255851965744134  1.0000
  H   H537      1.0  0.08243263459553618  0.4997911990608337  0.5147758074230491  1.0000
  H   H538      1.0  0.0755289067649465  0.4671160649729774  0.43352277980687015  1.0000
  H   H539      1.0  0.09573127341536192  0.433749230088525  0.443760126005979  1.0000
  H   H540      1.0  0.11798598130739357  0.4677109637577485  0.4424071723601463  1.0000
  N   N30       1.0  0.21237042911709758  0.675295458361006  0.4689722967087755  1.0000
  C   C405      1.0  0.17705892371569845  0.6778060589855401  0.4725955193824788  1.0000
  C   C406      1.0  0.22188010119355414  0.6441780279756374  0.4713285357223611  1.0000
  C   C407      1.0  0.22893695663872402  0.6923886856274838  0.4941741703910276  1.0000
  C   C408      1.0  0.22169583283947986  0.6867727386264418  0.43783623169214275  1.0000
  H   H541      1.0  0.16387943129552168  0.6651376446513881  0.45380884783306336  1.0000
  H   H542      1.0  0.16905068143593013  0.7010705181517621  0.47132614055143396  1.0000
  H   H543      1.0  0.1692296580376851  0.6694117317209943  0.4959223714847941  1.0000
  H   H544      1.0  0.24824182436736267  0.6414110534726749  0.46783271446054464  1.0000
  H   H545      1.0  0.21601164675452136  0.6351065348539751  0.494882607797405  1.0000
  H   H546      1.0  0.2091978671718836  0.630489481587484  0.45317577768679124  1.0000
  H   H547      1.0  0.25556443544156643  0.6907678202529905  0.4922021148619616  1.0000
  H   H548      1.0  0.22239673654784495  0.684422528439737  0.5180548120594637  1.0000
  H   H549      1.0  0.2224696504242773  0.716041414916198  0.49313292921941304  1.0000
  H   H550      1.0  0.24822630362794468  0.6853380264777875  0.434434525308541  1.0000
  H   H551      1.0  0.21472737306061834  0.7101961405346202  0.4352942840402176  1.0000
  H   H552      1.0  0.20986775264931712  0.6741925934345774  0.41819003428026963  1.0000
  N   N31       1.0  0.5121772863125219  0.019477601930205868  0.7206474352602564  1.0000
  C   C409      1.0  0.4870581871470448  0.04231927320406004  0.7179167761495574  1.0000
  C   C410      1.0  0.4967909648906717  0.9901954827902886  0.7191957031880103  1.0000
  C   C411      1.0  0.5297097498078042  0.023065864960088778  0.7510865280021157  1.0000
  C   C412      1.0  0.5350866942922506  0.022353541822062617  0.69434631050725  1.0000
  H   H553      1.0  0.49773953808839533  0.06474789576858231  0.7186522197810777  1.0000
  H   H554      1.0  0.46942054951780804  0.04085525800981271  0.7374617960184505  1.0000
  H   H555      1.0  0.47329508341610954  0.039999749840767373  0.6952441452818214  1.0000
  H   H556      1.0  0.48319242482799346  0.9866768681179285  0.6966770907471179  1.0000
  H   H557      1.0  0.5148993196936165  0.9723271336129407  0.7208843693184532  1.0000
  H   H558      1.0  0.4795488508378398  0.9871315255523534  0.7388580170686165  1.0000
  H   H559      1.0  0.5133793284418707  0.02019424518511248  0.7715285597797271  1.0000
  H   H560      1.0  0.5412051783632164  0.045113218208714834  0.7532612678649184  1.0000
  H   H561      1.0  0.549283024907639  0.006572952617777794  0.7535244563830034  1.0000
  H   H562      1.0  0.5543364562811973  0.005417658196954722  0.695622055795004  1.0000
  H   H563      1.0  0.5472714188383021  0.04413854024846642  0.6948940932620711  1.0000
  H   H564      1.0  0.5226246557653742  0.019778856736573758  0.6709977676554277  1.0000
  N   N32       1.0  0.7292433143492681  0.6814903605929215  0.05689181679483224  1.0000
  C   C413      1.0  0.7000821956227763  0.6832191701381389  0.03656429560102592  1.0000
  C   C414      1.0  0.7276580948624182  0.7042487121964102  0.08198048150638537  1.0000
  C   C415      1.0  0.7582865825478213  0.6862826707906898  0.03763574243405232  1.0000
  C   C416      1.0  0.730956781821852  0.6521635765159289  0.071364839715095  1.0000
  H   H565      1.0  0.7009745755769796  0.6669884534066951  0.01674666093999244  1.0000
  H   H566      1.0  0.6975459099263226  0.7053440096016886  0.02602966293673159  1.0000
  H   H567      1.0  0.677784158411288  0.6790153712001528  0.050178592743852946  1.0000
  H   H568      1.0  0.749096246739165  0.7033744630327203  0.098047240787978  1.0000
  H   H569      1.0  0.7266338791177677  0.7266875439051407  0.07176767296877196  1.0000
  H   H570      1.0  0.7058614363792409  0.7015494750907708  0.09680245946027899  1.0000
  H   H571      1.0  0.7586563086708494  0.708712845904421  0.027540602487626797  1.0000
  H   H572      1.0  0.7595557512799563  0.6703289523779097  0.01755624278171264  1.0000
  H   H573      1.0  0.7808179587288013  0.683525768902303  0.05188532357525477  1.0000
  H   H574      1.0  0.75252841513672  0.6502280378518409  0.08711854922021822  1.0000
  H   H575      1.0  0.7328782447160949  0.6345743399356704  0.05300912016171022  1.0000
  H   H576      1.0  0.7093013390194567  0.6475015151718452  0.08572280918947617  1.0000
  N   N33       1.0  0.9252634538790534  0.8048804174883154  0.4906490081130897  1.0000
  C   C417      1.0  0.8970712781441951  0.824735440299992  0.4896545787672347  1.0000
  C   C418      1.0  0.9356665813809018  0.8007453094036078  0.5237911372820063  1.0000
  C   C419      1.0  0.9520692713358611  0.8178053194867508  0.47274721701528194  1.0000
  C   C420      1.0  0.9163517950053487  0.7761217433169973  0.4765688165691076  1.0000
  H   H577      1.0  0.8887689436521307  0.8288169191333713  0.4649949214633783  1.0000
  H   H578      1.0  0.902662316578774  0.846432022286244  0.5008241873803366  1.0000
  H   H579      1.0  0.8762389721056474  0.8154500764669355  0.502620886331783  1.0000
  H   H580      1.0  0.9572773736762933  0.786340998634836  0.5254772624178521  1.0000
  H   H581      1.0  0.9418488127563347  0.8219859254397491  0.5356349174722096  1.0000
  H   H582      1.0  0.9162843650485373  0.7902547256003888  0.5376279858554057  1.0000
  H   H583      1.0  0.973655571431913  0.8032271587586673  0.4731690935651395  1.0000
  H   H584      1.0  0.9594761383668341  0.8394369763365066  0.48295444193866477  1.0000
  H   H585      1.0  0.9451403428495702  0.8212403740057961  0.4475670204381192  1.0000
  H   H586      1.0  0.8965399097568039  0.7655199860815418  0.4898783517453858  1.0000
  H   H587      1.0  0.9371532799936461  0.7606416503287247  0.4769388821778441  1.0000
  H   H588      1.0  0.9081719159762162  0.778303460620462  0.4515747448811981  1.0000
  N   N34       1.0  0.5026301700199026  0.07420237714445399  0.4693281315669588  1.0000
  C   C421      1.0  0.518732356577492  0.09911353197143669  0.4538512831623465  1.0000
  C   C422      1.0  0.4998570629818698  0.0493464687998495  0.4467265555230006  1.0000
  C   C423      1.0  0.47007468308826666  0.08318580061977365  0.4795474900752218  1.0000
  C   C424      1.0  0.5218947447071104  0.06509008979927033  0.49717522777168394  1.0000
  H   H589      1.0  0.5057551508898013  0.10569870555122685  0.4318728596612851  1.0000
  H   H590      1.0  0.5439890771750713  0.09359168388858574  0.4474521474063444  1.0000
  H   H591      1.0  0.5198984977427228  0.11872220232744102  0.4696952876942247  1.0000
  H   H592      1.0  0.4882895446459785  0.029949448361594966  0.45776724435782534  1.0000
  H   H593      1.0  0.4852649428973994  0.05523416574073714  0.42548442258559604  1.0000
  H   H594      1.0  0.5239989951048669  0.04210151434388121  0.43843513878872653  1.0000
  H   H595      1.0  0.45703379014478385  0.06474415168473513  0.49077230620661816  1.0000
  H   H596      1.0  0.4550396422637628  0.09083375721168596  0.4593077606687921  1.0000
  H   H597      1.0  0.47116085024906024  0.10138479183644367  0.4972969152787462  1.0000
  H   H598      1.0  0.5101338136363196  0.046640423990413016  0.5097459650318076  1.0000
  H   H599      1.0  0.5252841799488642  0.08355212616632635  0.5143563294754566  1.0000
  H   H600      1.0  0.5463228459191595  0.0574164494857925  0.49022804125424546  1.0000
  N   N35       1.0  0.3402404584279832  0.03930781032682584  0.6103665303742877  1.0000
  C   C425      1.0  0.3448802051934044  0.026321539452083487  0.5785902483507228  1.0000
  C   C426      1.0  0.3629828750939664  0.025572512585254836  0.6329493024468815  1.0000
  C   C427      1.0  0.3067789952489683  0.03402498396683362  0.6205784807765792  1.0000
  C   C428      1.0  0.3463136211529024  0.0712616691193647  0.6093334758931711  1.0000
  H   H601      1.0  0.32838402502083874  0.036307064340233675  0.5607916775807611  1.0000
  H   H602      1.0  0.34028170231846033  0.0022175269205411134  0.5785346348829985  1.0000
  H   H603      1.0  0.3699872248788147  0.029734071006914053  0.5703175554748262  1.0000
  H   H604      1.0  0.36059953059553157  0.035030480757475724  0.6571391753262038  1.0000
  H   H605      1.0  0.35883135959043466  0.0014796073998510908  0.6344786610636941  1.0000
  H   H606      1.0  0.38842195185348594  0.02876458415948324  0.6256826095186807  1.0000
  H   H607      1.0  0.30131708530405554  0.010123502658459183  0.6215377088138805  1.0000
  H   H608      1.0  0.2889900943822155  0.04404181415007714  0.6040201146731909  1.0000
  H   H609      1.0  0.3025363439766271  0.043378637515076424  0.6445632699269919  1.0000
  H   H610      1.0  0.34342924992638085  0.08182659938938758  0.6329621907168577  1.0000
  H   H611      1.0  0.3296785356368021  0.08237670746320487  0.5924527415189099  1.0000
  H   H612      1.0  0.3711946856729432  0.0760784181797406  0.6014904830875932  1.0000
  N   N36       1.0  0.5754337457986581  0.8751154228664261  0.23131007882836124  1.0000
  C   C429      1.0  0.6017077965511544  0.8532419541076776  0.23173762363804912  1.0000
  C   C430      1.0  0.5479391571178782  0.8634529028449953  0.21249346337206254  1.0000
  C   C431      1.0  0.5871992102704104  0.902504953887909  0.21699706563118068  1.0000
  C   C432      1.0  0.5649475897854139  0.8811953387381785  0.2639857127203383  1.0000
  H   H613      1.0  0.6231680399420264  0.8613578230791823  0.2453156855201589  1.0000
  H   H614      1.0  0.6096927964809145  0.8475184629928048  0.20742161007076612  1.0000
  H   H615      1.0  0.5939326292227184  0.8325373178610751  0.24308046468646513  1.0000
  H   H616      1.0  0.5273468317448148  0.8790544235874345  0.2120745691687725  1.0000
  H   H617      1.0  0.5549024128712842  0.8589881020301835  0.18755035879629312  1.0000
  H   H618      1.0  0.5390479225499273  0.8423306362006646  0.22222129548476655  1.0000
  H   H619      1.0  0.5679635149306657  0.9195083550668945  0.2162403229053211  1.0000
  H   H620      1.0  0.5954189881435716  0.8985977874815333  0.19234087978324654  1.0000
  H   H621      1.0  0.6079626066009275  0.9118233435144734  0.23073051048068532  1.0000
  H   H622      1.0  0.5452092291226094  0.8976895709986007  0.26475862123766797  1.0000
  H   H623      1.0  0.5851726030754414  0.8898332231987908  0.27890721044621675  1.0000
  H   H624      1.0  0.555907237275563  0.8609678301516555  0.27548152761216305  1.0000
  N   N37       1.0  0.6462577878060302  0.6298897547544778  0.22716242130583245  1.0000
  C   C433      1.0  0.6484193012679372  0.6036908556256557  0.20644367954542614  1.0000
  C   C434      1.0  0.6310694190566315  0.65405489112897  0.2094072582186479  1.0000
  C   C435      1.0  0.6789221688047998  0.6388656317381076  0.23781979795282324  1.0000
  C   C436      1.0  0.6265432310937226  0.6230270944123295  0.25499743460560914  1.0000
  H   H625      1.0  0.6596462078007408  0.5849412958234415  0.21909705910876634  1.0000
  H   H626      1.0  0.6633310886489677  0.6081350033058106  0.1853011010559109  1.0000
  H   H627      1.0  0.6241402010516286  0.5964115380716303  0.19801264498524587  1.0000
  H   H628      1.0  0.6455765839620229  0.6602197964206241  0.18850098465494244  1.0000
  H   H629      1.0  0.606312293025991  0.6481408849922481  0.20106203982910364  1.0000
  H   H630      1.0  0.6287092894814893  0.6739542883410633  0.22450001668770267  1.0000
  H   H631      1.0  0.6781987305507848  0.6591313640896438  0.25271265022323536  1.0000
  H   H632      1.0  0.6947062313115521  0.6435427399438709  0.2174472328752239  1.0000
  H   H633      1.0  0.6907959524040468  0.6213785601463079  0.25198616759147957  1.0000
  H   H634      1.0  0.6371294553494087  0.604728283793616  0.26884893078970074  1.0000
  H   H635      1.0  0.6016318487768784  0.6165555881367967  0.24790095353113134  1.0000
  H   H636      1.0  0.6246669264633186  0.642313393776044  0.2712353352868883  1.0000
  N   N38       1.0  0.7067103330969325  0.7642576836705864  0.8743090418846583  1.0000
  C   C437      1.0  0.7038579240317304  0.7827866745461562  0.9030300641205691  1.0000
  C   C438      1.0  0.740583352691311  0.7549253661932777  0.8707209210116172  1.0000
  C   C439      1.0  0.6965397136762006  0.7811809188154539  0.8463192879873411  1.0000
  C   C440      1.0  0.6858656902261641  0.7380929046226596  0.8771669377035289  1.0000
  H   H637      1.0  0.7195693679062647  0.8025492286851722  0.9020132914552289  1.0000
  H   H638      1.0  0.7107269714561136  0.7705440956221806  0.9247205214029331  1.0000
  H   H639      1.0  0.678722728794197  0.7906052409058917  0.9062128036718207  1.0000
  H   H640      1.0  0.7435971105436262  0.7402088356263491  0.8498162238778066  1.0000
  H   H641      1.0  0.7569893252939127  0.7740643368263355  0.868128579104606  1.0000
  H   H642      1.0  0.7489898199624809  0.7425564308511895  0.8916947544192837  1.0000
  H   H643      1.0  0.7106921472002946  0.8018230229690454  0.8441945193388424  1.0000
  H   H644      1.0  0.6706962033570498  0.7874343710283771  0.8477793712135244  1.0000
  H   H645      1.0  0.6993910782153346  0.768196852461791  0.8241315914501797  1.0000
  H   H646      1.0  0.6875681673436584  0.7234499420899492  0.8560681040247177  1.0000
  H   H647      1.0  0.6600587153182036  0.7443308897509798  0.8797998903534219  1.0000
  H   H648      1.0  0.6927010664869359  0.7249250905400472  0.8981643650795436  1.0000
  N   N39       1.0  0.20827356943606867  0.2798374735541251  0.5742946061166349  1.0000
  C   C441      1.0  0.21968920763134278  0.3005318148411637  0.5990886139896042  1.0000
  C   C442      1.0  0.2240191024527376  0.28671566512249685  0.5440746490935604  1.0000
  C   C443      1.0  0.17290416327931388  0.28268720764940775  0.57048760353895  1.0000
  C   C444      1.0  0.21646739056707365  0.24953863073939503  0.5835956040175412  1.0000
  H   H649      1.0  0.20789567557349886  0.29638460845276143  0.622102538022041  1.0000
  H   H650      1.0  0.21453081041301347  0.3236065685911546  0.5925647315232255  1.0000
  H   H651      1.0  0.24608322112071207  0.298878121875789  0.6031555972364268  1.0000
  H   H652      1.0  0.2154820362594851  0.2718885378212329  0.5246695015090443  1.0000
  H   H653      1.0  0.21907227350158254  0.3096957181314411  0.536760319873918  1.0000
  H   H654      1.0  0.2506641687311994  0.28422469049058025  0.5458904544065987  1.0000
  H   H655      1.0  0.1631693227569424  0.2672596084975148  0.5522025932013191  1.0000
  H   H656      1.0  0.16598792825545094  0.3052927738300517  0.563300304710714  1.0000
  H   H657      1.0  0.1601671858292179  0.27816926131191033  0.5929702586653659  1.0000
  H   H658      1.0  0.20826662383313524  0.23327402954516877  0.5654279490456842  1.0000
  H   H659      1.0  0.20510412524849433  0.24369089894090357  0.6063943666463626  1.0000
  H   H660      1.0  0.24304335811026456  0.24668133407778736  0.5866566714955014  1.0000
  N   N40       1.0  0.6918617664623047  4.422774673851215e-05  0.6672578971228798  1.0000
  C   C445      1.0  0.6783431872915459  0.9810187677182639  0.6918974008141822  1.0000
  C   C446      1.0  0.7273407294704008  0.0013683221929816636  0.6710274214280972  1.0000
  C   C447      1.0  0.6782670202189198  0.02986591638221414  0.6705488270313669  1.0000
  C   C448      1.0  0.6834575469470455  0.9878883261011439  0.6356803282145872  1.0000
  H   H661      1.0  0.6516574707611317  0.9789268449714987  0.6895123090952302  1.0000
  H   H662      1.0  0.6836016239080471  0.9898486016107058  0.7160483620329484  1.0000
  H   H663      1.0  0.688545974774536  0.9585654935430628  0.6906862610165739  1.0000
  H   H664      1.0  0.7345125019172231  0.010057222426022916  0.6947662770257369  1.0000
  H   H665      1.0  0.7383299844131874  0.9791989814587939  0.6685680069519322  1.0000
  H   H666      1.0  0.738485210571221  0.015648387191560253  0.6529540696184485  1.0000
  H   H667      1.0  0.6880099914523427  0.04497503419768245  0.65250229842578  1.0000
  H   H668      1.0  0.6837820022103581  0.039469349597277104  0.6943343280830899  1.0000
  H   H669      1.0  0.6514900929135659  0.029572653949409666  0.6680050933719286  1.0000
  H   H670      1.0  0.69322518167885  0.0016603804109498466  0.6164330256998342  1.0000
  H   H671      1.0  0.6568611508115142  0.9862827524123208  0.6321882244707518  1.0000
  H   H672      1.0  0.693436485827027  0.9654368341401495  0.632397843451495  1.0000
  N   N41       1.0  0.17653602907728433  0.4528710152264012  0.6807997612440587  1.0000
  C   C449      1.0  0.20190019850220556  0.4344807484659422  0.6953563954130562  1.0000
  C   C450      1.0  0.15200548386183438  0.4602136857619959  0.704691287705475  1.0000
  C   C451      1.0  0.16122580517486026  0.43657133157686084  0.6541928886169746  1.0000
  C   C452      1.0  0.19113444865577536  0.4802290918547766  0.6690330100736429  1.0000
  H   H673      1.0  0.19203183421621972  0.4131864364613076  0.7035744726885671  1.0000
  H   H674      1.0  0.21343454321965857  0.445743131581011  0.7160566689636353  1.0000
  H   H675      1.0  0.22129554759997247  0.4292146101292665  0.6782220199931136  1.0000
  H   H676      1.0  0.1324855901404429  0.47421406109588593  0.6946395996642608  1.0000
  H   H677      1.0  0.14046200040572454  0.44012703035069034  0.7141740093213175  1.0000
  H   H678      1.0  0.1629370861667525  0.4724788109755826  0.725095872267085  1.0000
  H   H679      1.0  0.1502559352051599  0.41564341238692154  0.6622149892867463  1.0000
  H   H680      1.0  0.1791904927566719  0.4306797310115964  0.6358454743380749  1.0000
  H   H681      1.0  0.1418143053592495  0.44963836759315623  0.6426108749330265  1.0000
  H   H682      1.0  0.17289453944031505  0.4942531086432843  0.6570127716504983  1.0000
  H   H683      1.0  0.2107537168207426  0.4755478185573477  0.6519606931087201  1.0000
  H   H684      1.0  0.20191600209718338  0.4934883530654705  0.6887388926116135  1.0000
  N   N42       1.0  0.13839230540273856  0.6593972498785028  0.7082369200940835  1.0000
  C   C453      1.0  0.10915506743096959  0.6683036847056884  0.6904349682687471  1.0000
  C   C454      1.0  0.16640693951143604  0.6764089797841689  0.6972016503273135  1.0000
  C   C455      1.0  0.14441365637533102  0.6277830484452709  0.7030077948889961  1.0000
  C   C456      1.0  0.13372789934392593  0.6649760489168837  0.7423579552272639  1.0000
  H   H685      1.0  0.10388538155636694  0.6920909232700225  0.6938413756649352  1.0000
  H   H686      1.0  0.08755288212074473  0.6558545086266077  0.6981426771161544  1.0000
  H   H687      1.0  0.11193521151498298  0.6645014935855045  0.6645717633386395  1.0000
  H   H688      1.0  0.1889931922981841  0.6699681755649574  0.709876874750355  1.0000
  H   H689      1.0  0.17059703853406005  0.6725725907110628  0.6715455694381285  1.0000
  H   H690      1.0  0.16293596211750466  0.7003798298747064  0.7008926753595969  1.0000
  H   H691      1.0  0.16625641615693165  0.6205919182323161  0.7162723452469903  1.0000
  H   H692      1.0  0.148587050714794  0.6226210554813797  0.6776153380416535  1.0000
  H   H693      1.0  0.12398519255387179  0.6140875974956891  0.7113572087188754  1.0000
  H   H694      1.0  0.1554663308404794  0.658585125278729  0.7564279494919343  1.0000
  H   H695      1.0  0.1132365920588427  0.6518698799592553  0.7516188050691148  1.0000
  H   H696      1.0  0.12876217651078722  0.6885257649039338  0.7473461657378333  1.0000
  N   N43       1.0  0.6486125991985607  0.15469688134092008  0.8974101420614484  1.0000
  C   C457      1.0  0.6784760484008284  0.13875782776131293  0.9058190274118253  1.0000
  C   C458      1.0  0.6218488315694094  0.1335151008395293  0.8929260700667857  1.0000
  C   C459      1.0  0.6535331933564564  0.1708897285263925  0.8677538929898848  1.0000
  C   C460      1.0  0.6406091172684092  0.17562571526517454  0.9230655415410938  1.0000
  H   H697      1.0  0.6991675527468025  0.1541309177526925  0.90928479503803  1.0000
  H   H698      1.0  0.6851475006340568  0.12277069693497684  0.8869195231830086  1.0000
  H   H699      1.0  0.675640983396162  0.12628662267162577  0.9281100392564917  1.0000
  H   H700      1.0  0.5990461539554757  0.14477357174116884  0.8859072167279226  1.0000
  H   H701      1.0  0.6271552788375194  0.11734366057922224  0.8737532039298151  1.0000
  H   H702      1.0  0.6171204748388864  0.12102230197750981  0.9148419646974968  1.0000
  H   H703      1.0  0.6312272166164825  0.18273160515924358  0.8604031331026882  1.0000
  H   H704      1.0  0.6596942516841859  0.1557808932606551  0.8478733354791128  1.0000
  H   H705      1.0  0.6733214552980947  0.18732427719979677  0.8702512991358081  1.0000
  H   H706      1.0  0.6604292285027695  0.19182142914973643  0.9272939995081811  1.0000
  H   H707      1.0  0.6364484794457651  0.16418029627843736  0.9457733992909646  1.0000
  H   H708      1.0  0.618349242612694  0.18824780959980245  0.917309936921583  1.0000
  N   N44       1.0  0.9310169482147529  0.2381635713053666  0.5234600469607591  1.0000
  C   C461      1.0  0.9110158871285049  0.2624545237038212  0.5356739792706352  1.0000
  C   C462      1.0  0.909862687654574  0.21362514538657337  0.5131470869147522  1.0000
  C   C463      1.0  0.9531563220373881  0.2280172152046687  0.5487210297604654  1.0000
  C   C464      1.0  0.9499811531286165  0.24861757446045987  0.4964288089912671  1.0000
  H   H709      1.0  0.9261071807089216  0.2813483316558463  0.5439316973924141  1.0000
  H   H710      1.0  0.8965471014303003  0.2552388799319058  0.556119293727205  1.0000
  H   H711      1.0  0.8938814005707915  0.27066596598781456  0.5173839135177336  1.0000
  H   H712      1.0  0.9240023131776107  0.19477984386166705  0.5038143750430648  1.0000
  H   H713      1.0  0.8952138770937125  0.20527054794019284  0.5330653796300193  1.0000
  H   H714      1.0  0.8925483724699546  0.22040791379532254  0.4942748326104365  1.0000
  H   H715      1.0  0.9692509753931055  0.21019172495892308  0.5401951387715762  1.0000
  H   H716      1.0  0.9396035181544795  0.2192225886718169  0.5691318886236386  1.0000
  H   H717      1.0  0.9686392015348706  0.246232299367651  0.557996369648319  1.0000
  H   H718      1.0  0.9661549479988328  0.2671625284820973  0.5035663091987475  1.0000
  H   H719      1.0  0.934000729821106  0.2565382672460932  0.47698238393729325  1.0000
  H   H720      1.0  0.9653896624338061  0.23085786788076065  0.4865573242455437  1.0000
  N   N45       1.0  0.4190414165116366  0.6463808088266654  0.25907100783485026  1.0000
  C   C465      1.0  0.4472673852637679  0.6592341441955314  0.27584073170268136  1.0000
  C   C466      1.0  0.3900424906377797  0.649635306504387  0.2788147902128609  1.0000
  C   C467      1.0  0.42493874610753385  0.6149133758849245  0.2527687120348204  1.0000
  C   C468      1.0  0.4138852271188857  0.6616680622832595  0.22877914931882679  1.0000
  H   H721      1.0  0.4694567566282624  0.657461678956765  0.26138122415741405  1.0000
  H   H722      1.0  0.4521719972921434  0.6478830624056855  0.2985659233373232  1.0000
  H   H723      1.0  0.4435898716488738  0.6829332791680234  0.28122713076833106  1.0000
  H   H724      1.0  0.38488535113319383  0.6730616572648329  0.2843344217427716  1.0000
  H   H725      1.0  0.36821620924623344  0.6403484209328012  0.266758292218158  1.0000
  H   H726      1.0  0.39284298316919697  0.637989046600862  0.3016960604683791  1.0000
  H   H727      1.0  0.44667454321927513  0.6115522187025563  0.23803056537523543  1.0000
  H   H728      1.0  0.4042784597653665  0.6047064178762297  0.2397586589789405  1.0000
  H   H729      1.0  0.42861229024309155  0.6024867023527107  0.275031322933644  1.0000
  H   H730      1.0  0.39319034195158575  0.6520718656072655  0.21518227425767084  1.0000
  H   H731      1.0  0.43543656861108776  0.6598765330407413  0.2134318788230854  1.0000
  H   H732      1.0  0.40897459474154363  0.6854218328356648  0.23255471756160154  1.0000
  N   N46       1.0  0.32659804139710036  0.8383593392709053  0.6625723809417823  1.0000
  C   C469      1.0  0.33468362223291886  0.8694533683289029  0.6692216405882612  1.0000
  C   C470      1.0  0.33537704982350164  0.8203305122274034  0.690221895850698  1.0000
  C   C471      1.0  0.34482460629103073  0.8279373898315051  0.6348574781814496  1.0000
  C   C472      1.0  0.2916108213161655  0.8355928637473264  0.6559459377671881  1.0000
  H   H733      1.0  0.32835547710380547  0.8837198874188206  0.6488530045978083  1.0000
  H   H734      1.0  0.36095426474498526  0.8723447730253004  0.674240089306288  1.0000
  H   H735      1.0  0.3214923111008692  0.8780050375652139  0.6901074677964892  1.0000
  H   H736      1.0  0.3294840295281148  0.7967040054577145  0.6859326609927903  1.0000
  H   H737      1.0  0.36172287705849226  0.8218499334100751  0.6956978469652312  1.0000
  H   H738      1.0  0.32219591467174485  0.82748517439542  0.7116981865835176  1.0000
  H   H739      1.0  0.33967145869422793  0.804336545083493  0.6296703819395356  1.0000
  H   H740      1.0  0.3713554247414828  0.8301539710216381  0.6389888271634058  1.0000
  H   H741      1.0  0.33840576143735746  0.8406718789957405  0.6134064081491761  1.0000
  H   H742      1.0  0.28472606665576305  0.8124106850183027  0.650648997039264  1.0000
  H   H743      1.0  0.2841248886651496  0.8489827261858619  0.635259199077923  1.0000
  H   H744      1.0  0.2771123397586043  0.842989200833624  0.676482757720304  1.0000
  N   N47       1.0  0.4171629816840148  0.31382148890971956  0.5645879617860713  1.0000
  C   C473      1.0  0.40328464301712225  0.2870339013096717  0.5783743746888332  1.0000
  C   C474      1.0  0.4009085343142908  0.33991080192564715  0.5779693867686682  1.0000
  C   C475      1.0  0.4124268075025309  0.31306102496214555  0.5299047694111589  1.0000
  C   C476      1.0  0.4520556972263955  0.3151516327104176  0.5720894497887108  1.0000
  H   H745      1.0  0.4140383069826173  0.2668712931672847  0.5678687203625045  1.0000
  H   H746      1.0  0.37685384501665364  0.2857364139487557  0.5741405540132676  1.0000
  H   H747      1.0  0.4073697802868088  0.2862676487352969  0.6043899688013356  1.0000
  H   H748      1.0  0.41042114095172494  0.360562334857759  0.5677942582636981  1.0000
  H   H749      1.0  0.374481677050385  0.3394006202017934  0.5728667569155756  1.0000
  H   H750      1.0  0.4040304057332248  0.34118709628802796  0.6041049984250333  1.0000
  H   H751      1.0  0.42328912553835163  0.33258910696246985  0.5185818504591856  1.0000
  H   H752      1.0  0.38636282959299617  0.3129273011848334  0.5233800144472499  1.0000
  H   H753      1.0  0.4234995303441118  0.2930829829606897  0.5191952732595113  1.0000
  H   H754      1.0  0.4633434164519791  0.3352239360820113  0.5623248805429597  1.0000
  H   H755      1.0  0.46495724409630534  0.2958605776485245  0.5619665941501693  1.0000
  H   H756      1.0  0.45659710491700634  0.31515947024916  0.5980688932532382  1.0000
  N   N48       1.0  0.6650523578297431  0.0631687584221563  0.3668881330197133  1.0000
  C   C477      1.0  0.6524904187439158  0.05900471853771028  0.39905360683218927  1.0000
  C   C478      1.0  0.6615708688672255  0.09430674702235442  0.3580093925300727  1.0000
  C   C479      1.0  0.6466600977615202  0.04443599437581147  0.3443064367020978  1.0000
  C   C480      1.0  0.6995069185867281  0.054917012068972815  0.36634456563375656  1.0000
  H   H757      1.0  0.6550773400029107  0.0358502119292714  0.4066851137599577  1.0000
  H   H758      1.0  0.6264732739014635  0.064817483026689  0.40024456293701843  1.0000
  H   H759      1.0  0.665687511978072  0.07286176884693285  0.4166913893180626  1.0000
  H   H760      1.0  0.6704687027684235  0.09829099596828095  0.33373048347138734  1.0000
  H   H761      1.0  0.6359140619001646  0.10136101253921659  0.35854584422086505  1.0000
  H   H762      1.0  0.6753156045793318  0.10900371994669955  0.37452410348671933  1.0000
  H   H763      1.0  0.6205150071872768  0.049961217551217185  0.34422115330561176  1.0000
  H   H764      1.0  0.6488003982039492  0.020772397245960583  0.35037965154908657  1.0000
  H   H765      1.0  0.6553373867777902  0.04703281247108815  0.3197221022946122  1.0000
  H   H766      1.0  0.7139909423250176  0.06863266722260963  0.3832327720740711  1.0000
  H   H767      1.0  0.7098162761812982  0.0577494432563348  0.34241623532215804  1.0000
  H   H768      1.0  0.7029400615305362  0.03152277927535385  0.3730147431130846  1.0000
