data_image0
_chemical_formula_structural       FeS2FeS2FeSFeS3FeS2FeS2FeSFeS3FeS2FeS2FeSFeS3FeS2FeS2FeSFeS3FeS2FeS2FeSFeS3FeS2FeS2FeSFeS3FeS2FeS2FeSFeS3FeS2FeS2FeSFeS3FeS2FeS2FeSFeS3FeS2FeS2FeSFeS3FeS2FeS2FeSFeS3FeS2FeS2FeSFeS3FeS2FeS2FeSFeS3FeS2FeS2FeSFeS3FeS2FeS2FeSFeS3FeS2FeS2FeSFeS3C6H4C6H4C6H4C6H4C6H4C6H4C6H4C6H4C6H4C6H4C6H4C6H4C6H4C6H4C6H4C6H4C6H4C6H4C6H4C6H4C6H4C6H4C6H4C6H4C6H4C6H4C6H4C6H4C6H4C6H4C6H4C6H4NC4H12NC4H12NC4H12NC4H12NC4H12NC4H12NC4H12NC4H12NC4H12NC4H12NC4H12NC4H12NC4H12NC4H12NC4H12NC4H12NC4H12NC4H12NC4H12NC4H12NC4H12NC4H12NC4H12NC4H12NC4H12NC4H12NC4H12NC4H12NC4H12NC4H12NC4H12NC4H12
_chemical_formula_sum              "Fe64 S128 C320 H512 N32"
_cell_length_a       28.87190662031459
_cell_length_b       31.746546208723416
_cell_length_c       40.76470929393179
_cell_angle_alpha    90.13097666426913
_cell_angle_beta     90.04835529702021
_cell_angle_gamma    90.23514438072137

_space_group_name_H-M_alt    "P 1"
_space_group_IT_number       1

loop_
  _space_group_symop_operation_xyz
  'x, y, z'

loop_
  _atom_site_type_symbol
  _atom_site_label
  _atom_site_symmetry_multiplicity
  _atom_site_fract_x
  _atom_site_fract_y
  _atom_site_fract_z
  _atom_site_occupancy
  Fe  Fe1       1.0  0.6115589169852192  0.4014161709427265  0.9103112372596149  1.0000
  S   S1        1.0  0.6420470414319625  0.43833575790341106  0.9517336149417988  1.0000
  S   S2        1.0  0.664150507403813  0.37419624141880736  0.8760188528682203  1.0000
  Fe  Fe2       1.0  0.5133071669953101  0.4199862174660602  0.9316554559400139  1.0000
  S   S3        1.0  0.5357886359569224  0.45856593828022396  0.9752058533318319  1.0000
  S   S4        1.0  0.4375822201509011  0.4111075985382485  0.9202474700617314  1.0000
  Fe  Fe3       1.0  0.5876395169117858  0.48581560372338084  0.9403163713639296  1.0000
  S   S5        1.0  0.609424496312087  0.5536269864824942  0.939246825825167  1.0000
  Fe  Fe4       1.0  0.5878758621942253  0.4073187880500498  0.9824468159064368  1.0000
  S   S6        1.0  0.6113589243197012  0.38166277727637327  0.030787645808839192  1.0000
  S   S7        1.0  0.5613235858207329  0.451507848779771  0.895902666315994  1.0000
  S   S8        1.0  0.5613082915510041  0.3659301191568933  0.9420170080295919  1.0000
  Fe  Fe5       1.0  0.6613023710193776  0.7196404033746406  0.7581153402318258  1.0000
  S   S9        1.0  0.5851221080026671  0.7147833090407274  0.7480406862522534  1.0000
  S   S10       1.0  0.692259977891531  0.7822195948511783  0.7717972369750691  1.0000
  Fe  Fe6       1.0  0.6789286877820925  0.6282008965817738  0.7411095219781919  1.0000
  S   S11       1.0  0.6044646601456048  0.6153561868024514  0.7289138724494859  1.0000
  S   S12       1.0  0.7307987318437541  0.5753911637097681  0.7420230949105979  1.0000
  Fe  Fe7       1.0  0.60665860149697  0.6780143420721123  0.7037542299812787  1.0000
  S   S13       1.0  0.5752386727792982  0.6936411513075543  0.6549971904273071  1.0000
  Fe  Fe8       1.0  0.5894248454279177  0.6529651975360193  0.7742724586247546  1.0000
  S   S14       1.0  0.5327183248672516  0.6286361829561864  0.8071236433300183  1.0000
  S   S15       1.0  0.6825203712824108  0.6877531231665823  0.7116558748489872  1.0000
  S   S16       1.0  0.6639585478941616  0.6610980792247954  0.7886618451607579  1.0000
  Fe  Fe9       1.0  0.6594827869734609  0.6285243835663994  0.49080001149956143  1.0000
  S   S17       1.0  0.6785178683793726  0.6959193022037098  0.4826908218676028  1.0000
  S   S18       1.0  0.6760576471744093  0.599122475995103  0.5392538998707029  1.0000
  Fe  Fe10      1.0  0.624623614258197  0.6165715026730069  0.42129537952473683  1.0000
  S   S19       1.0  0.6426101540149068  0.6826544116022696  0.4066380072444683  1.0000
  S   S20       1.0  0.5882380755155188  0.5686529231818455  0.3893282223954315  1.0000
  Fe  Fe11      1.0  0.7077348908687803  0.67262582354704  0.43528261019029535  1.0000
  S   S21       1.0  0.7749986968842059  0.6996937304751355  0.41787073216011794  1.0000
  Fe  Fe12      1.0  0.6119162273721835  0.7005814952258597  0.45507551097199966  1.0000
  S   S22       1.0  0.5666901705847782  0.7573140484833017  0.4630084313032575  1.0000
  S   S23       1.0  0.6935346474231602  0.6044254207884104  0.4451136245758386  1.0000
  S   S24       1.0  0.5891713579680181  0.635063724620464  0.4681275640992182  1.0000
  Fe  Fe13      1.0  0.5485909201670743  0.5304780585165801  0.1649010414245167  1.0000
  S   S25       1.0  0.4957798451951509  0.4792424938951644  0.1592705901565373  1.0000
  S   S26       1.0  0.61386566331654  0.5282373968248405  0.1354665276942567  1.0000
  Fe  Fe14      1.0  0.4971178369164215  0.5729042736252261  0.22065943797408374  1.0000
  S   S27       1.0  0.4401945765912514  0.5248710709646843  0.2203855132432268  1.0000
  S   S28       1.0  0.49786984506755105  0.6272302001457202  0.25601068915823205  1.0000
  Fe  Fe15      1.0  0.4972013233645129  0.4779551037577629  0.21415202996889213  1.0000
  S   S29       1.0  0.498930948598125  0.4160680734817479  0.24030678579940737  1.0000
  Fe  Fe16      1.0  0.44408858798500656  0.5309621981420182  0.16561800531358956  1.0000
  S   S30       1.0  0.38121936047719984  0.5387202603192679  0.13373792342819607  1.0000
  S   S31       1.0  0.5540865425218287  0.5255219411539385  0.219536053610564  1.0000
  S   S32       1.0  0.4969769913718774  0.5829261967361219  0.16620106047145974  1.0000
  Fe  Fe17      1.0  0.06481816626011683  0.13219013014809944  0.684003847493914  1.0000
  S   S33       1.0  0.03324878378071783  0.18904062941530472  0.6605812169115658  1.0000
  S   S34       1.0  0.09800716439463186  0.07943620353218983  0.6556763681532893  1.0000
  Fe  Fe18      1.0  0.03703977759324917  0.16002228056282705  0.7523303347512261  1.0000
  S   S35       1.0  0.0024073642219410996  0.21882897912635768  0.7347604928940284  1.0000
  S   S36       1.0  0.030517482207924163  0.14184440787821662  0.8052044667701093  1.0000
  Fe  Fe19      1.0  0.9743371231483573  0.1776432501042457  0.6949016058571501  1.0000
  S   S37       1.0  0.8997866517493992  0.17999094621281875  0.6803313051090163  1.0000
  Fe  Fe20      1.0  0.06465526182497805  0.22497166207512193  0.7023255579099587  1.0000
  S   S38       1.0  0.09768019463546262  0.28619646219765643  0.6878296337691399  1.0000
  S   S39       1.0  0.0031850860540647563  0.11791790494574526  0.7151133121914413  1.0000
  S   S40       1.0  0.10220172049783693  0.1691854887050203  0.7230553916286894  1.0000
  Fe  Fe21      1.0  0.1732357150783259  0.09769397917285172  0.48254415472177825  1.0000
  S   S41       1.0  0.24017065673066795  0.08161904648591745  0.5076525660015065  1.0000
  S   S42       1.0  0.1143674481556587  0.13011341726070702  0.5079503822767685  1.0000
  Fe  Fe22      1.0  0.20115816442817164  0.05682324630052826  0.41829493902716025  1.0000
  S   S43       1.0  0.2700594593297891  0.03719400374496318  0.43813823502641236  1.0000
  S   S44       1.0  0.17714701669224894  0.036913310728968085  0.36801098082781025  1.0000
  Fe  Fe23      1.0  0.23139384606266913  0.018949764376509526  0.4830883463865813  1.0000
  S   S45       1.0  0.2499820363035311  0.9558967825036274  0.5035317109454668  1.0000
  Fe  Fe24      1.0  0.2722215554378911  0.1016793039822177  0.460184915640353  1.0000
  S   S46       1.0  0.33858958165500164  0.1381853927388561  0.46130611952195844  1.0000
  S   S47       1.0  0.161740323419767  0.033295431230620176  0.46179977789757654  1.0000
  S   S48       1.0  0.20619722571364676  0.12333138596851567  0.4367705671677074  1.0000
  Fe  Fe25      1.0  0.12105852683135798  0.6524023314730065  0.19291739677520628  1.0000
  S   S49       1.0  0.19588599835928838  0.6360065321056507  0.19825762123381913  1.0000
  S   S50       1.0  0.09740998096809439  0.6728815951636453  0.14269227966500422  1.0000
  Fe  Fe26      1.0  0.10110867000230384  0.6350925739366373  0.2647878254296775  1.0000
  S   S51       1.0  0.17417295587533002  0.6159203882363407  0.2755838834746878  1.0000
  S   S52       1.0  0.04920090666821043  0.6333350805368134  0.30603018515477676  1.0000
  Fe  Fe27      1.0  0.19307232095953109  0.6719499553984444  0.2452252507480718  1.0000
  S   S53       1.0  0.24953598407560748  0.7160107276175816  0.26130920191424256  1.0000
  Fe  Fe28      1.0  0.1702146890917202  0.581333534368748  0.22759512147989622  1.0000
  S   S54       1.0  0.20264268238155192  0.5175013884563935  0.2210251004462891  1.0000
  S   S55       1.0  0.1203169582216217  0.6940265531855191  0.23756694215293256  1.0000
  S   S56       1.0  0.0950018747287884  0.594960371988676  0.219256813264034  1.0000
  Fe  Fe29      1.0  0.161023990972323  0.6000975486108016  0.9201205901296197  1.0000
  S   S57       1.0  0.20865677208472785  0.5591561432295524  0.89057061170887  1.0000
  S   S58       1.0  0.10974912921018665  0.6413367556948717  0.8943847338326261  1.0000
  Fe  Fe30      1.0  0.19129513416562577  0.5636337437979435  0.9852938465672049  1.0000
  S   S59       1.0  0.24092390775797218  0.5195893459863916  0.9608969031685423  1.0000
  S   S60       1.0  0.19433296618627766  0.5529438922623333  0.039731550354463296  1.0000
  Fe  Fe31      1.0  0.2602646896247232  0.5746531731419403  0.9298623100885771  1.0000
  S   S61       1.0  0.3359482382704714  0.5867452052337073  0.9216093524378111  1.0000
  Fe  Fe32      1.0  0.1846676586502734  0.5084460765506922  0.924435352106988  1.0000
  S   S62       1.0  0.16829928873735814  0.4433226512408628  0.9069024165166902  1.0000
  S   S63       1.0  0.21500770457051357  0.6203009181131257  0.9569102433291722  1.0000
  S   S64       1.0  0.13277618900120003  0.5476177319940004  0.9511838785305864  1.0000
  Fe  Fe33      1.0  0.07521767832120774  0.5828221513214235  0.7168407485867799  1.0000
  S   S65       1.0  0.005198220099782214  0.5699812537707232  0.7386190934190869  1.0000
  S   S66       1.0  0.1359305336073009  0.6126884911403263  0.7426125337153198  1.0000
  Fe  Fe34      1.0  0.05181971020866549  0.5375544032758209  0.652851173215171  1.0000
  S   S67       1.0  0.980485726609468  0.520033413773126  0.6695376281450746  1.0000
  S   S68       1.0  0.07542317982262547  0.5159172979670416  0.603136421288247  1.0000
  Fe  Fe35      1.0  0.9783799144592938  0.5863462226318874  0.688471927010175  1.0000
  S   S69       1.0  0.9192412405485257  0.6285524129531456  0.6747265252417238  1.0000
  Fe  Fe36      1.0  0.01449655198793387  0.5050073172645686  0.7175889534179647  1.0000
  S   S70       1.0  9.205477622398206e-07  0.44680662046313563  0.7475954855322422  1.0000
  S   S71       1.0  0.04770272236556661  0.6050414825761501  0.6684838424079096  1.0000
  S   S72       1.0  0.08638507788718375  0.5167993154503386  0.6992351484387012  1.0000
  Fe  Fe37      1.0  0.08729966932410393  0.717365361963084  0.5090458501581949  1.0000
  S   S73       1.0  0.04436343430493128  0.7451050794492107  0.5495262613528709  1.0000
  S   S74       1.0  0.13952431289033052  0.6654305063303073  0.5115682930641018  1.0000
  Fe  Fe38      1.0  0.04251976709848959  0.7700768722995982  0.4561332885476267  1.0000
  S   S75       1.0  0.9940616850385274  0.8017256437715395  0.4913804032267093  1.0000
  S   S76       1.0  0.054454092295507905  0.7886213940102549  0.4036086146278  1.0000
  Fe  Fe39      1.0  0.05604212437306688  0.8068174685173332  0.5242247048576651  1.0000
  S   S77       1.0  0.06494916403154471  0.8687018208535867  0.5503906598210865  1.0000
  Fe  Fe40      1.0  0.9860934575158407  0.737589075264452  0.5137621182193213  1.0000
  S   S78       1.0  0.919935585616677  0.7104931965900757  0.5335134387794557  1.0000
  S   S79       1.0  0.10535824911647573  0.7799277834283451  0.4873500044372299  1.0000
  S   S80       1.0  0.02800471741199506  0.7051289373894281  0.475003438874324  1.0000
  Fe  Fe41      1.0  0.2776658129120885  0.0031015811366854606  0.18315570308345078  1.0000
  S   S81       1.0  0.3154615980924229  0.9690303057348564  0.14288248208202448  1.0000
  S   S82       1.0  0.22524871842577338  0.054692633848205  0.17577124259682558  1.0000
  Fe  Fe42      1.0  0.3223899262665817  0.951095497086521  0.2369587673646477  1.0000
  S   S83       1.0  0.3637306751249046  0.9130005205244276  0.20158797070857554  1.0000
  S   S84       1.0  0.3344479160997589  0.9426079476422768  0.29071156087853545  1.0000
  Fe  Fe43      1.0  0.37700102609485386  0.9742990903403783  0.17642314681660182  1.0000
  S   S85       1.0  0.450945200489704  0.988363673442249  0.16339872785740975  1.0000
  Fe  Fe44      1.0  0.2983893969375138  0.9112651647060213  0.17207934190660382  1.0000
  S   S86       1.0  0.2740828097199779  0.850615705251066  0.14978169635481897  1.0000
  S   S87       1.0  0.3407461968440301  0.013010007218099195  0.2144074994825719  1.0000
  S   S88       1.0  0.25538364767978644  0.944598580322707  0.20974807396500744  1.0000
  Fe  Fe45      1.0  0.1364430804167689  0.2656284873010852  0.016886522888558186  1.0000
  S   S89       1.0  0.20096209535490384  0.24331723384811077  0.9922059154303651  1.0000
  S   S90       1.0  0.13551295445104294  0.3330173652707617  0.03345228858449678  1.0000
  Fe  Fe46      1.0  0.0858186101394336  0.18354296515368568  0.0037946255196275036  1.0000
  S   S91       1.0  0.14572754713790514  0.15528851602944319  0.9767277913059098  1.0000
  S   S92       1.0  0.019414538765305966  0.14797056225301367  0.010920684722996787  1.0000
  Fe  Fe47      1.0  0.18766760254071158  0.18239705808686885  0.01814827403003405  1.0000
  S   S93       1.0  0.2469884015095256  0.14473206931166271  0.038281750222356026  1.0000
  Fe  Fe48      1.0  0.15266690912230252  0.21905571948296926  0.953594683474272  1.0000
  S   S94       1.0  0.1680015074323873  0.23636154464615536  0.9011955395323685  1.0000
  S   S95       1.0  0.12725199257257658  0.20705413308375295  0.04684868201882808  1.0000
  S   S96       1.0  0.08841464231961194  0.244638568396512  0.9768830152106495  1.0000
  Fe  Fe49      1.0  0.8176156494053293  0.1519963792492691  0.8985472960910084  1.0000
  S   S97       1.0  0.8250598158362741  0.08436515380160614  0.912423124416011  1.0000
  S   S98       1.0  0.8827565600273104  0.19050453481887458  0.8945767735694171  1.0000
  Fe  Fe50      1.0  0.7138006468383601  0.14434272292008835  0.8907044696308584  1.0000
  S   S99       1.0  0.712605104017853  0.07557155641331614  0.9035876854662315  1.0000
  S   S100      1.0  0.6461515606540555  0.17647600599728944  0.8810881350871039  1.0000
  Fe  Fe51      1.0  0.762062364034263  0.0950471207919965  0.9432845959559613  1.0000
  S   S101      1.0  0.7586650718911105  0.07279315943923413  0.9954253907687295  1.0000
  Fe  Fe52      1.0  0.7754097644069134  0.07171455639562785  0.8712677338812654  1.0000
  S   S102      1.0  0.7945151492628816  0.018122086290696556  0.8374963912365173  1.0000
  S   S103      1.0  0.758701990114261  0.16422517831226055  0.932949678731432  1.0000
  S   S104      1.0  0.7723834679951456  0.13904050302971874  0.8548403395938656  1.0000
  Fe  Fe53      1.0  0.65610621738124  0.2456157826342311  0.1870797763908481  1.0000
  S   S105      1.0  0.701230010100884  0.20405222373743948  0.15641893525939335  1.0000
  S   S106      1.0  0.6731469034842283  0.31396860570377205  0.19308628376472406  1.0000
  Fe  Fe54      1.0  0.5845343754182473  0.17708904056173264  0.1985611896707985  1.0000
  S   S107      1.0  0.623116143465938  0.1295807574204751  0.16863199612417862  1.0000
  S   S108      1.0  0.5143016685853896  0.16424820898311826  0.21962523147180077  1.0000
  Fe  Fe55      1.0  0.6851883653805139  0.15560325691105184  0.19501083801250113  1.0000
  S   S109      1.0  0.7393935478437884  0.11512257901472844  0.21799272898503985  1.0000
  Fe  Fe56      1.0  0.6347864579659596  0.18252691464433926  0.13326648420998782  1.0000
  S   S110      1.0  0.6181967797582661  0.18012371633884572  0.07934277630698933  1.0000
  S   S111      1.0  0.6456109213412016  0.199325787548466  0.2277652164624633  1.0000
  S   S112      1.0  0.5908129755622344  0.22783376221641802  0.1611376640953943  1.0000
  Fe  Fe57      1.0  0.5794488063127886  0.9667077753747272  0.37747973978063876  1.0000
  S   S113      1.0  0.6314993776061719  0.993314706630136  0.41281631528179297  1.0000
  S   S114      1.0  0.581623944135843  0.9014403774108846  0.3568290806135094  1.0000
  Fe  Fe58      1.0  0.528460481416629  0.04887383899460973  0.3706542186084012  1.0000
  S   S115      1.0  0.5757676509623523  0.08324594747494496  0.40519262342843243  1.0000
  S   S116      1.0  0.46664131754135235  0.07706874632116567  0.34599091053854797  1.0000
  Fe  Fe59      1.0  0.632445471806942  0.0490092881898061  0.37916737024089947  1.0000
  S   S117      1.0  0.699752338568331  0.08130061678962974  0.3683916836063418  1.0000
  Fe  Fe60      1.0  0.5699648707099921  0.024888701956313097  0.435622316904975  1.0000
  S   S118      1.0  0.5599016385219776  0.03123189921056757  0.48990595032456136  1.0000
  S   S119      1.0  0.5857170806806594  0.019708897713560436  0.34167548712066914  1.0000
  S   S120      1.0  0.5176400170879729  0.9931419617994063  0.4032878776342805  1.0000
  Fe  Fe61      1.0  0.8213125477541752  0.9809937560140893  0.6072747873161002  1.0000
  S   S121      1.0  0.745867541574361  0.9962878097954135  0.6047448678352502  1.0000
  S   S122      1.0  0.8740559590457901  0.0243355487055672  0.585227021713295  1.0000
  Fe  Fe62      1.0  0.8050833259255402  0.8991354430421759  0.6436183378860206  1.0000
  S   S123      1.0  0.7281012398435851  0.9079854315167076  0.6446981149645455  1.0000
  S   S124      1.0  0.8342578381542992  0.8386206364084009  0.6628590783697478  1.0000
  Fe  Fe63      1.0  0.7366591409911718  0.9278219728640609  0.592464919388929  1.0000
  S   S125      1.0  0.6951348828749754  0.8989284842270192  0.5514788582983526  1.0000
  Fe  Fe64      1.0  0.74542251983239  0.9750479389284398  0.657420440224931  1.0000
  S   S126      1.0  0.7063932060967513  0.012263022842289306  0.6954372242361597  1.0000
  S   S127      1.0  0.8125726956709759  0.9143202147948477  0.5903791318745124  1.0000
  S   S128      1.0  0.8221230737902098  0.9645865089336754  0.660696279504241  1.0000
  C   C1        1.0  0.591555590817041  0.9916376517619518  0.5093140862181091  1.0000
  C   C2        1.0  0.6030642218207207  0.9551883688761891  0.49197964167388686  1.0000
  C   C3        1.0  0.6332039823891987  0.925789252664754  0.5058093127251377  1.0000
  C   C4        1.0  0.652214758895118  0.9328913989261118  0.5368955625331858  1.0000
  C   C5        1.0  0.6392084142759162  0.9685171469154144  0.5548659483698443  1.0000
  C   C6        1.0  0.6084759971121879  0.9977617335646075  0.5411574483948919  1.0000
  H   H1        1.0  0.5890744627968838  0.9497837636488289  0.467740367102759  1.0000
  H   H2        1.0  0.6427888334884648  0.8983128169732707  0.4919008695023958  1.0000
  H   H3        1.0  0.6530345538802498  0.973738410581873  0.5791969816449738  1.0000
  H   H4        1.0  0.5992114474974617  0.02581094120241101  0.5547537858982743  1.0000
  C   C7        1.0  0.7098770892160599  0.08984682428073332  0.3263320618465696  1.0000
  C   C8        1.0  0.6732225507274502  0.09138262054012514  0.30381925619613154  1.0000
  C   C9        1.0  0.6819206032965421  0.09988637368976616  0.27054122063211117  1.0000
  C   C10       1.0  0.7275262172065766  0.10535118867899405  0.2595580328725062  1.0000
  C   C11       1.0  0.7641437713471055  0.10293179298803595  0.28196286270328896  1.0000
  C   C12       1.0  0.7552838063865078  0.09595035965051357  0.31533925435453874  1.0000
  H   H5        1.0  0.6382423719254672  0.08648082389763312  0.3120759986819509  1.0000
  H   H6        1.0  0.6536063762141943  0.10127379724067476  0.25320059326466643  1.0000
  H   H7        1.0  0.7993947843475266  0.10713380226715175  0.2735457377206665  1.0000
  H   H8        1.0  0.7837725757223196  0.09477602258095662  0.3325611127818892  1.0000
  C   C13       1.0  0.7198057456657363  0.10276735715241456  0.018718152296345325  1.0000
  C   C14       1.0  0.7261668447694896  0.10670479372099666  0.05266676369962142  1.0000
  C   C15       1.0  0.6955380744239444  0.13106210441859828  0.07145033362924003  1.0000
  C   C16       1.0  0.6578407558371488  0.15059232717839907  0.05636850501459544  1.0000
  C   C17       1.0  0.6507560528451414  0.1457448489745397  0.022603750519347265  1.0000
  C   C18       1.0  0.6821462508258275  0.12248357754026756  0.0036617090254391638  1.0000
  H   H9        1.0  0.7553056658763744  0.09145651354996563  0.06433860854905293  1.0000
  H   H10       1.0  0.7010963505921808  0.13449566419284645  0.09758091013540614  1.0000
  H   H11       1.0  0.620802488465149  0.15976193230275915  0.011115408515201208  1.0000
  H   H12       1.0  0.676762630258946  0.11897624705331368  0.977511782705673  1.0000
  C   C19       1.0  0.7708658080313614  0.01824142807012441  0.7977839111305094  1.0000
  C   C20       1.0  0.7882382204633717  0.9901436592415243  0.7743458792202367  1.0000
  C   C21       1.0  0.7692182150864904  0.9887333894119243  0.7426764216629821  1.0000
  C   C22       1.0  0.7326258528146958  0.015365594294043383  0.7343204932065998  1.0000
  C   C23       1.0  0.7154712077786061  0.043729573046418224  0.757744985354952  1.0000
  C   C24       1.0  0.7346283964875039  0.045273571482089325  0.7894350496153489  1.0000
  H   H13       1.0  0.8161874895079664  0.969072761748016  0.7807587693623392  1.0000
  H   H14       1.0  0.7820554892242195  0.9661940801727099  0.7250740505465288  1.0000
  H   H15       1.0  0.6870688879604051  0.06433655930301296  0.7514085384690985  1.0000
  H   H16       1.0  0.7209866808325603  0.06701466880354046  0.8074581628691824  1.0000
  C   C25       1.0  0.9816103774644938  0.1569670331136031  0.9778940531758268  1.0000
  C   C26       1.0  0.9339389308701302  0.15022789877655776  0.9815667179180182  1.0000
  C   C27       1.0  0.9034546482991818  0.15963189065870337  0.9557485528644488  1.0000
  C   C28       1.0  0.9206906492339152  0.17544606022465228  0.9261370126978752  1.0000
  C   C29       1.0  0.9685044943427414  0.1803710535218285  0.9220143757016085  1.0000
  C   C30       1.0  0.9988761388637055  0.17159488914341975  0.9479522267215648  1.0000
  H   H17       1.0  0.9204015755048589  0.13858971127176117  0.004594443496573897  1.0000
  H   H18       1.0  0.8665602026513407  0.15533559947775852  0.9590553011970301  1.0000
  H   H19       1.0  0.9820364302176434  0.1906165900905067  0.8986680504460874  1.0000
  H   H20       1.0  0.035691641064720114  0.17556399626991076  0.9446721307935921  1.0000
  C   C31       1.0  0.46790260533723765  0.03691172299209722  0.17990190933515296  1.0000
  C   C32       1.0  0.43592109452855266  0.0695794790065718  0.18329986394363768  1.0000
  C   C33       1.0  0.44984327149902215  0.10831009305390293  0.19671520844432083  1.0000
  C   C34       1.0  0.49584502712299156  0.11447303294600619  0.20640999070356544  1.0000
  C   C35       1.0  0.5275426949882285  0.08143300574396672  0.2037878624803091  1.0000
  C   C36       1.0  0.5137021852838604  0.042798205450298665  0.19021389952656653  1.0000
  H   H21       1.0  0.40075034578406393  0.06547890541605894  0.17469681745363608  1.0000
  H   H22       1.0  0.42532617582437826  0.13390197223699418  0.198563563640973  1.0000
  H   H23       1.0  0.5627803909528571  0.08565902571928306  0.2121799682671451  1.0000
  H   H24       1.0  0.53848204825381  0.01751226001231987  0.18771912881083255  1.0000
  C   C37       1.0  0.23207883067030402  0.0811866196486346  0.13823709747968085  1.0000
  C   C38       1.0  0.27168129244808187  0.07507080987224257  0.1191588063394391  1.0000
  C   C39       1.0  0.27609943083116995  0.0952183392692616  0.08873653079049326  1.0000
  C   C40       1.0  0.24114984002032336  0.12188540873421724  0.0773181055548684  1.0000
  C   C41       1.0  0.2019316251171981  0.1287971792893991  0.09671854195914359  1.0000
  C   C42       1.0  0.1973803914525955  0.10843519094538039  0.12713468492678628  1.0000
  H   H25       1.0  0.29918096162388985  0.05509327647599793  0.12787395611591523  1.0000
  H   H26       1.0  0.30665604890395315  0.08998060687194043  0.07394309576543656  1.0000
  H   H27       1.0  0.17513462615036524  0.1497160656414799  0.08833680215581145  1.0000
  H   H28       1.0  0.1668862951413186  0.11364124442673357  0.14197834114139088  1.0000
  C   C43       1.0  0.09281794347738148  0.5576673466883282  0.5777891128976123  1.0000
  C   C44       1.0  0.1265205920216499  0.5509133854372588  0.5537274605431223  1.0000
  C   C45       1.0  0.14121966590290413  0.5842617298793  0.5337112796130633  1.0000
  C   C46       1.0  0.12114951421458842  0.6241068200019224  0.5370025516568611  1.0000
  C   C47       1.0  0.08643485044325372  0.6305039287774756  0.5603765532284898  1.0000
  C   C48       1.0  0.07277556464512047  0.5974785000746883  0.5810376241009474  1.0000
  H   H29       1.0  0.1421256728382445  0.5201478011475086  0.551182582905008  1.0000
  H   H30       1.0  0.16828785080158593  0.5791468071217413  0.5158618710685204  1.0000
  H   H31       1.0  0.07100614693549145  0.6611351054488908  0.563191472050707  1.0000
  H   H32       1.0  0.04659373193265326  0.6027728647220926  0.5993292904179467  1.0000
  C   C49       1.0  0.15780944594313495  0.4131821605444596  0.9420579520052343  1.0000
  C   C50       1.0  0.15294053294487586  0.36960786303300563  0.9392747846657333  1.0000
  C   C51       1.0  0.14674554078863444  0.3451146444081481  0.9674118622412496  1.0000
  C   C52       1.0  0.1439663853529567  0.36405251705764674  0.9983889417913735  1.0000
  C   C53       1.0  0.14824945267455483  0.40777570511450306  0.0011556265994594472  1.0000
  C   C54       1.0  0.15551211328668058  0.4322841232431228  0.973030446297124  1.0000
  H   H33       1.0  0.15467716780990814  0.3545716162781157  0.9154749809013254  1.0000
  H   H34       1.0  0.14470933315251955  0.31150152352656635  0.9649242280177277  1.0000
  H   H35       1.0  0.1463342174524103  0.42269813670448075  0.024969761959432013  1.0000
  H   H36       1.0  0.1591910760369868  0.4659439626610566  0.9755083755866645  1.0000
  C   C55       1.0  0.11724098712484565  0.6389364191470965  0.851732016511797  1.0000
  C   C56       1.0  0.1614958141990377  0.6339571089249483  0.8384291270305629  1.0000
  C   C57       1.0  0.1669606713981598  0.6276174847506732  0.8046291301108844  1.0000
  C   C58       1.0  0.12815427533241253  0.6256658274274385  0.7840747785008861  1.0000
  C   C59       1.0  0.08395010075033649  0.6320842492835668  0.7971669263190766  1.0000
  C   C60       1.0  0.07853398673661327  0.6390091396507929  0.8309821468686688  1.0000
  H   H37       1.0  0.19155337352696378  0.6353407047130745  0.8541985358694725  1.0000
  H   H38       1.0  0.2012173062063606  0.6233075777720112  0.7944651489646926  1.0000
  H   H39       1.0  0.053962723129207024  0.6315795632939344  0.7812951366480243  1.0000
  H   H40       1.0  0.044271121587348805  0.6432344881681668  0.8411856397691989  1.0000
  C   C61       1.0  0.12220932764476135  0.6395368608454809  0.1130374353606971  1.0000
  C   C62       1.0  0.12064465114955758  0.6495186818138735  0.07950971579259414  1.0000
  C   C63       1.0  0.14240316418793686  0.6231802098350174  0.05631401637333644  1.0000
  C   C64       1.0  0.16610304367013415  0.5872875630967745  0.06687242559074247  1.0000
  C   C65       1.0  0.1675584868937413  0.5776369036689586  0.10024755454575462  1.0000
  C   C66       1.0  0.14488631044720693  0.6030598456995522  0.1231440646110522  1.0000
  H   H41       1.0  0.10280994439365809  0.6775723581594468  0.07149236966035732  1.0000
  H   H42       1.0  0.14103992446470248  0.6307546351405631  0.030462495794067568  1.0000
  H   H43       1.0  0.18626997948536972  0.5502608800698291  0.10838319743404146  1.0000
  H   H44       1.0  0.1447971787936733  0.5942958320312887  0.14868687969064132  1.0000
  C   C67       1.0  0.04923873821429736  0.6777010298609929  0.3320287101809888  1.0000
  C   C68       1.0  0.019437849042359234  0.6786113316822446  0.35918128213878125  1.0000
  C   C69       1.0  0.020649506838946285  0.7126720871210719  0.3812358280128145  1.0000
  C   C70       1.0  0.051140072798170344  0.7463154900276691  0.3758533712263461  1.0000
  C   C71       1.0  0.08052989169837588  0.7456593554137323  0.3485274686098068  1.0000
  C   C72       1.0  0.0800596340578501  0.7111469036352824  0.32692801352114415  1.0000
  H   H45       1.0  0.9954484807092144  0.6528529910801747  0.36319747363505067  1.0000
  H   H46       1.0  0.9974762123893186  0.7132152874497734  0.4020738976589003  1.0000
  H   H47       1.0  0.10433433873142417  0.7714951020508211  0.34436443397234423  1.0000
  H   H48       1.0  0.10367060579399003  0.7104339831072951  0.30642797453306436  1.0000
  C   C73       1.0  0.26121067864416797  0.7523474202068623  0.23014240134736003  1.0000
  C   C74       1.0  0.25607431995990904  0.7408194076823748  0.19720268332180851  1.0000
  C   C75       1.0  0.2632289888669905  0.770505908076305  0.1723983331026152  1.0000
  C   C76       1.0  0.2737255733572788  0.8122291447913147  0.1805004758907087  1.0000
  C   C77       1.0  0.27991956890666964  0.8236131623464645  0.2134135171692041  1.0000
  C   C78       1.0  0.2742897144632213  0.7935169357337248  0.2382071174633836  1.0000
  H   H49       1.0  0.2465439969400654  0.7091553697132481  0.19062869112582123  1.0000
  H   H50       1.0  0.25954168327130717  0.7613593510891157  0.1469477108631754  1.0000
  H   H51       1.0  0.28783841695149753  0.8557968222704331  0.21996148741324187  1.0000
  H   H52       1.0  0.2783318566510936  0.80261422540328  0.2636593186424906  1.0000
  C   C79       1.0  0.22079181698132688  0.010130277700254542  0.34681376960631916  1.0000
  C   C80       1.0  0.26736104694982976  0.0176031292338652  0.35426636825910357  1.0000
  C   C81       1.0  0.30217865787376436  0.9956452994935905  0.3377181575824267  1.0000
  C   C82       1.0  0.29050451545000755  0.9674747991295642  0.3126474782338768  1.0000
  C   C83       1.0  0.24401063951023336  0.9609976138083222  0.30425543542732786  1.0000
  C   C84       1.0  0.20908632074111833  0.982038504721237  0.32159452313623216  1.0000
  H   H53       1.0  0.2767890832558919  0.041334877283616844  0.37196338606748486  1.0000
  H   H54       1.0  0.3381998460398457  0.0015313318294323253  0.343626454291425  1.0000
  H   H55       1.0  0.23501657676146778  0.9393477007477867  0.2847040109068631  1.0000
  H   H56       1.0  0.17308533408838955  0.9765982907261281  0.31543025070865044  1.0000
  C   C85       1.0  0.3730363303578859  0.1261119593470288  0.4272997266552668  1.0000
  C   C86       1.0  0.3534643187342003  0.10912033511311114  0.39871788409269115  1.0000
  C   C87       1.0  0.3821840478861216  0.09544694311568014  0.3730501760404067  1.0000
  C   C88       1.0  0.43038756536965767  0.09783307934027974  0.3764071315931343  1.0000
  C   C89       1.0  0.44970061693603114  0.11542030244123147  0.4047854847067219  1.0000
  C   C90       1.0  0.4210859447119366  0.13018762551282448  0.42993130363860005  1.0000
  H   H57       1.0  0.3162541856341445  0.10625493831603605  0.39654633428320346  1.0000
  H   H58       1.0  0.36709278193285044  0.08181496756215245  0.3511400792504935  1.0000
  H   H59       1.0  0.48670065497925336  0.11783375717682665  0.4075041183270908  1.0000
  H   H60       1.0  0.43626753696214476  0.14347545300273734  0.4519478079503611  1.0000
  C   C91       1.0  0.19961137393378367  0.9316248633148769  0.5182812498713794  1.0000
  C   C92       1.0  0.16075421024460645  0.9559430192808217  0.5256676051264306  1.0000
  C   C93       1.0  0.11960592437087048  0.936487258147038  0.535761621313263  1.0000
  C   C94       1.0  0.11711840915450522  0.8926266795747432  0.5384984928469141  1.0000
  C   C95       1.0  0.15613713409494268  0.8682502521180546  0.5313958032700731  1.0000
  C   C96       1.0  0.19747735239012584  0.8877747458377994  0.5214207046019649  1.0000
  H   H61       1.0  0.16247999415243775  0.9898493086230723  0.523928076515766  1.0000
  H   H62       1.0  0.08959960213338714  0.9555082526438397  0.5408425748435047  1.0000
  H   H63       1.0  0.15476835513740683  0.8344252042250164  0.534238715040301  1.0000
  H   H64       1.0  0.22764408756492946  0.8689001799907385  0.5159958967200954  1.0000
  C   C97       1.0  0.0700996634315505  0.16743093064172662  0.8312339269402  1.0000
  C   C98       1.0  0.07117036162894208  0.1568487190601245  0.8645342661538316  1.0000
  C   C99       1.0  0.10219060571584859  0.17718106415903678  0.8858387073446382  1.0000
  C   C100      1.0  0.1319922953711521  0.20842082600432643  0.8740087707159174  1.0000
  C   C101      1.0  0.1310248057647836  0.21906413818527867  0.840673482919632  1.0000
  C   C102      1.0  0.10002846998697557  0.19861121970664639  0.8192784019083386  1.0000
  H   H65       1.0  0.04802652889078374  0.13279359418406114  0.873882822275598  1.0000
  H   H66       1.0  0.1029258845574208  0.1686970065380291  0.9114431669505003  1.0000
  H   H67       1.0  0.15395230785984682  0.2433043849478336  0.8314279816216211  1.0000
  H   H68       1.0  0.0992588215998409  0.2069908439669345  0.7935940941416711  1.0000
  C   C103      1.0  0.07191920195781076  0.330838613801601  0.7054712421075764  1.0000
  C   C104      1.0  0.048126216492048846  0.3282445496635035  0.7353068824484231  1.0000
  C   C105      1.0  0.026374044494821947  0.3640645570908116  0.7483539191222774  1.0000
  C   C106      1.0  0.028262446250844286  0.40247421620569857  0.7315276074977575  1.0000
  C   C107      1.0  0.051846778926683657  0.4049033164972887  0.7016441379951547  1.0000
  C   C108      1.0  0.07396953893267799  0.36927115473636424  0.6888065285725248  1.0000
  H   H69       1.0  0.04726799207104815  0.29888652880354327  0.7486345542084112  1.0000
  H   H70       1.0  0.008137826804323955  0.3620359555691546  0.7714663635931563  1.0000
  H   H71       1.0  0.05252758601176333  0.4340240706117698  0.6880300847988575  1.0000
  H   H72       1.0  0.09212734433905623  0.3714382204711648  0.6656417871234819  1.0000
  C   C109      1.0  0.8907260066504807  0.13862678975326892  0.6523675922691909  1.0000
  C   C110      1.0  0.8510370986894767  0.11336840793264269  0.6546191479120059  1.0000
  C   C111      1.0  0.8455918719548534  0.07841235930965795  0.6337895848008106  1.0000
  C   C112      1.0  0.8792044775308371  0.06938900795202252  0.6100741520688533  1.0000
  C   C113      1.0  0.9181648515511973  0.09549238012228733  0.6071447993782096  1.0000
  C   C114      1.0  0.9242559072442249  0.12963886564610005  0.6286175111208101  1.0000
  H   H73       1.0  0.8251088417748735  0.12001325723241862  0.6730598693207328  1.0000
  H   H74       1.0  0.8153919068746892  0.05842857647984623  0.636260019157251  1.0000
  H   H75       1.0  0.9441775598236946  0.08884355906049413  0.5887850132102634  1.0000
  H   H76       1.0  0.954716040515253  0.1492542335278757  0.6265349792943719  1.0000
  C   C115      1.0  0.09647122606341596  0.08701567442723945  0.6131824919026629  1.0000
  C   C116      1.0  0.06409651030965224  0.11411591431308943  0.5991183608989142  1.0000
  C   C117      1.0  0.06802499281642072  0.12546437883910344  0.5660537596805468  1.0000
  C   C118      1.0  0.10399144833346231  0.10917398975043535  0.5469545497889851  1.0000
  C   C119      1.0  0.13358001724233226  0.07889172166904457  0.5602299066961687  1.0000
  C   C120      1.0  0.12996189564128313  0.06792326165010731  0.593410323410496  1.0000
  H   H77       1.0  0.03636323093089189  0.1267282053608092  0.6137277850523761  1.0000
  H   H78       1.0  0.044168917747563485  0.14794829286289501  0.5555590454268666  1.0000
  H   H79       1.0  0.16041207280031955  0.06511221067531969  0.5453578425693533  1.0000
  H   H80       1.0  0.1545280250478378  0.04617244733211167  0.6040396005687808  1.0000
  C   C121      1.0  0.5478451045928469  0.38768350982553773  0.2280826492767082  1.0000
  C   C122      1.0  0.5844795105577227  0.40820768194127505  0.2122320659717249  1.0000
  C   C123      1.0  0.6235374203932127  0.38553050780992426  0.20240049260923193  1.0000
  C   C124      1.0  0.625494015031085  0.34207424806327025  0.2075406137324457  1.0000
  C   C125      1.0  0.5886970435775893  0.3213141393122404  0.2230071085509835  1.0000
  C   C126      1.0  0.5501032990984299  0.34426385944960386  0.233692462675432  1.0000
  H   H81       1.0  0.5826247768931355  0.4414365795229758  0.20700022055393033  1.0000
  H   H82       1.0  0.6516782691037666  0.40145662802838533  0.1899210520589447  1.0000
  H   H83       1.0  0.5901212534933347  0.28764533051053864  0.2268695467582872  1.0000
  H   H84       1.0  0.5216716369764981  0.32828699313836307  0.24575524492774808  1.0000
  C   C127      1.0  0.3306258333515991  0.5296723694079093  0.156369911118358  1.0000
  C   C128      1.0  0.2903500345438684  0.5518170162596311  0.14859190288737192  1.0000
  C   C129      1.0  0.2507401086335537  0.5472841590785451  0.16806698631352104  1.0000
  C   C130      1.0  0.25108458470485345  0.5205618613091989  0.19524494392757866  1.0000
  C   C131      1.0  0.2907915416380319  0.49713916153024623  0.20229218439725552  1.0000
  C   C132      1.0  0.3306941627003677  0.5019313661060517  0.1829933339744779  1.0000
  H   H85       1.0  0.29005238501877517  0.5735093804052379  0.12817857455351941  1.0000
  H   H86       1.0  0.21988952119618568  0.5645615440121402  0.16207764681995976  1.0000
  H   H87       1.0  0.29106557135280886  0.4760437196322932  0.2231157001119014  1.0000
  H   H88       1.0  0.3613698410457977  0.4839143299801507  0.18862063362084963  1.0000
  C   C133      1.0  0.8160140805272809  0.7005651053783689  0.4495952986950291  1.0000
  C   C134      1.0  0.8048868345342208  0.6847007489257452  0.4806186629308108  1.0000
  C   C135      1.0  0.8365411699602658  0.688442926547636  0.5065499101927782  1.0000
  C   C136      1.0  0.8799939571095102  0.706817974272175  0.5012386680270823  1.0000
  C   C137      1.0  0.8915151998270069  0.7219483307942473  0.4700707069879834  1.0000
  C   C138      1.0  0.8594054120431454  0.7190978580787789  0.4443292570455922  1.0000
  H   H89       1.0  0.7719373286091582  0.6694374947940269  0.48471263622894584  1.0000
  H   H90       1.0  0.8272107749718723  0.6770153408963521  0.5306183833679791  1.0000
  H   H91       1.0  0.9250556592942061  0.7360774593858729  0.4657223354695725  1.0000
  H   H92       1.0  0.8682132306157999  0.7312577212683172  0.4203310939092346  1.0000
  C   C139      1.0  0.57116811116465  0.7973822296656161  0.433477245915568  1.0000
  C   C140      1.0  0.5578402200124462  0.838527186808111  0.4415570521853509  1.0000
  C   C141      1.0  0.561736808952173  0.8709560883357628  0.4183191096213663  1.0000
  C   C142      1.0  0.5777422757276801  0.8619836451679973  0.3866917445822373  1.0000
  C   C143      1.0  0.5905197826825913  0.8208340050809347  0.3785474344850201  1.0000
  C   C144      1.0  0.5877546788524851  0.788742621369362  0.4019849454152067  1.0000
  H   H93       1.0  0.5450352130516967  0.8454573918085695  0.4659239234306982  1.0000
  H   H94       1.0  0.5516370609159322  0.9026832399148705  0.4246868774448661  1.0000
  H   H95       1.0  0.602850062059307  0.8138282271004224  0.3540656094456558  1.0000
  H   H96       1.0  0.5976803780026582  0.7573035005533825  0.39526400901965614  1.0000
  C   C145      1.0  0.561631453952862  0.5863865479937372  0.3532048650252422  1.0000
  C   C146      1.0  0.5343324399667888  0.5581969246561205  0.3350537046545658  1.0000
  C   C147      1.0  0.5149875141713208  0.5705046887998907  0.30500580204908534  1.0000
  C   C148      1.0  0.5213401203405417  0.6116862295950941  0.2937239041840576  1.0000
  C   C149      1.0  0.5468314828753292  0.640492269747245  0.3125900431976507  1.0000
  C   C150      1.0  0.5675427337837443  0.627667123595078  0.34206415030236004  1.0000
  H   H97       1.0  0.5284958548234497  0.5266502107664077  0.3441641910901888  1.0000
  H   H98       1.0  0.49479292524208773  0.5482695563271627  0.29072464856270097  1.0000
  H   H99       1.0  0.5519861256621648  0.6723199740525599  0.30379398659390416  1.0000
  H   H100      1.0  0.5886767815271264  0.6495534131467915  0.3557187509629884  1.0000
  C   C151      1.0  0.6013239866011778  0.6654326477294527  0.6230138136773793  1.0000
  C   C152      1.0  0.6345351326913441  0.6346748597856061  0.6297560051820035  1.0000
  C   C153      1.0  0.6571988100683966  0.6140926809062263  0.6039050035186029  1.0000
  C   C154      1.0  0.6469838950108033  0.6245133296327022  0.571342721668649  1.0000
  C   C155      1.0  0.6139809713375411  0.6554641199310745  0.5646258733797483  1.0000
  C   C156      1.0  0.5908935744896517  0.6756508494006785  0.5904520764423493  1.0000
  H   H101      1.0  0.6428116354161315  0.6267195285496007  0.6548641156577618  1.0000
  H   H102      1.0  0.6827336860637729  0.5901663475732637  0.6091365875257369  1.0000
  H   H103      1.0  0.6059687742228811  0.6636174907431885  0.5395387601979937  1.0000
  H   H104      1.0  0.5652076822108478  0.6994285063407173  0.5851954659507467  1.0000
  C   C157      1.0  0.7349660158739966  0.7975022331286735  0.7435658281027843  1.0000
  C   C158      1.0  0.7634730953379767  0.7677062707753314  0.7283235817227113  1.0000
  C   C159      1.0  0.7954604555835997  0.780425176119194  0.7043134850966593  1.0000
  C   C160      1.0  0.7988111771239664  0.8229534122830074  0.6955574781241894  1.0000
  C   C161      1.0  0.7714021295967278  0.8527946130176144  0.7115728579371745  1.0000
  C   C162      1.0  0.7395201480891698  0.8400732439243764  0.7354637786242706  1.0000
  H   H105      1.0  0.7612065417692241  0.734915591470571  0.7352639559410891  1.0000
  H   H106      1.0  0.8168853110466372  0.7572028160790855  0.6922720100925456  1.0000
  H   H107      1.0  0.7745603671513379  0.8857941380091289  0.7054619281985612  1.0000
  H   H108      1.0  0.7173928646922307  0.8630967747661658  0.7468946356442253  1.0000
  C   C163      1.0  0.7828440785935908  0.5886693816482564  0.7220770743396675  1.0000
  C   C164      1.0  0.8237233179433706  0.5671346824027769  0.7297251418010624  1.0000
  C   C165      1.0  0.8658065614615529  0.5789354686567252  0.7150056115978608  1.0000
  C   C166      1.0  0.866957816508628  0.6123026511185481  0.6926421662923828  1.0000
  C   C167      1.0  0.8259310186631104  0.6329461931624563  0.6842751925370102  1.0000
  C   C168      1.0  0.7839764380599807  0.6209408501688174  0.6988096399095773  1.0000
  H   H109      1.0  0.8230267175337531  0.5418984485198668  0.7474979910720155  1.0000
  H   H110      1.0  0.8973728850221302  0.5626630463651704  0.7213904319366156  1.0000
  H   H111      1.0  0.8263996364357248  0.6582584474275052  0.6666107126949709  1.0000
  H   H112      1.0  0.7524496721964439  0.6362743886249514  0.691601303979116  1.0000
  C   C169      1.0  0.6111505421048368  0.42195772217035793  0.0602239204490882  1.0000
  C   C170      1.0  0.5742642439174197  0.4503718970751107  0.06191818417325279  1.0000
  C   C171      1.0  0.5742317538232004  0.482304113156493  0.08579017378672893  1.0000
  C   C172      1.0  0.6116427371116765  0.4864227864364449  0.10741724465561601  1.0000
  C   C173      1.0  0.6485973601229887  0.4581710693045373  0.1055690777954344  1.0000
  C   C174      1.0  0.6479666324201059  0.4255154646344072  0.0823790779301865  1.0000
  H   H113      1.0  0.5452268320351354  0.4471887427000732  0.04536169471302354  1.0000
  H   H114      1.0  0.5456402365060655  0.5041883236335697  0.08714856661764404  1.0000
  H   H115      1.0  0.6775072452971762  0.4612371271556991  0.12235028217401689  1.0000
  H   H116      1.0  0.6764233882328103  0.4034578948754973  0.08130533686416119  1.0000
  C   C175      1.0  0.40993504201794445  0.46021315512827926  0.9186472671606286  1.0000
  C   C176      1.0  0.36254603774554184  0.4624363021376878  0.9116438576470646  1.0000
  C   C177      1.0  0.33996390169067875  0.5014600955961844  0.9116594832487435  1.0000
  C   C178      1.0  0.3647317575229962  0.5383562419940706  0.918702590392285  1.0000
  C   C179      1.0  0.4123560901011158  0.5363153541459602  0.9247942691424125  1.0000
  C   C180      1.0  0.4348460050841944  0.4972574981330261  0.9248543481318825  1.0000
  H   H117      1.0  0.3432501016412466  0.4340623195903339  0.9063153610891627  1.0000
  H   H118      1.0  0.3033848225885411  0.5029200728518467  0.9061412796721101  1.0000
  H   H119      1.0  0.43176164252560184  0.5647364450128582  0.9302123704632934  1.0000
  H   H120      1.0  0.47139802487613724  0.4957671626835305  0.9300464436112393  1.0000
  C   C181      1.0  0.6589974480839003  0.319196872642533  0.8748978803700341  1.0000
  C   C182      1.0  0.615589174803488  0.30014160464090023  0.8785209455190304  1.0000
  C   C183      1.0  0.6117122004176124  0.25613965408505074  0.8788420796110465  1.0000
  C   C184      1.0  0.651347299877061  0.23110610645823373  0.8763539837748393  1.0000
  C   C185      1.0  0.6948375522837705  0.2501170298636129  0.8725826518564672  1.0000
  C   C186      1.0  0.6985739039306952  0.29419952964503215  0.8714765767965351  1.0000
  H   H121      1.0  0.5848529741962385  0.31929301428264617  0.8806036729694531  1.0000
  H   H122      1.0  0.578074927267272  0.24145763582992102  0.881756131471266  1.0000
  H   H123      1.0  0.725556476908437  0.2308546485278515  0.8707559838269503  1.0000
  H   H124      1.0  0.7322054111997454  0.308902325904119  0.8686836132852424  1.0000
  C   C187      1.0  0.5860495016982167  0.5774940129030024  0.9043271811632829  1.0000
  C   C188      1.0  0.6094853548539033  0.610787443954308  0.8891037334766977  1.0000
  C   C189      1.0  0.5930983180039062  0.6269566623394498  0.8592714034009344  1.0000
  C   C190      1.0  0.5531127320758219  0.610066284179695  0.8448797548906426  1.0000
  C   C191      1.0  0.5290883929839014  0.5775592088239379  0.8606403426661867  1.0000
  C   C192      1.0  0.5455433897823869  0.5613560324560454  0.8902969156521978  1.0000
  H   H125      1.0  0.6407903296807825  0.6234921289591703  0.8999505626022998  1.0000
  H   H126      1.0  0.6110609978671707  0.652842464857194  0.8476885622106667  1.0000
  H   H127      1.0  0.49824732696359  0.564207054447464  0.8496838989142529  1.0000
  H   H128      1.0  0.5269407113070135  0.5362115915010349  0.9022476890809923  1.0000
  N   N1        1.0  0.5506627263216061  0.06315887576360901  0.08990117889042182  1.0000
  C   C193      1.0  0.5269324090460737  0.09701665277856653  0.10824281530814317  1.0000
  C   C194      1.0  0.5512402571290234  0.07375026420660435  0.05461171846204582  1.0000
  C   C195      1.0  0.5258069192510325  0.02286215812344472  0.09481633513748822  1.0000
  C   C196      1.0  0.5987410145111884  0.05905643506865088  0.10195321592880369  1.0000
  H   H129      1.0  0.5442759797527784  0.12803032331295805  0.10460350839845822  1.0000
  H   H130      1.0  0.5269801694748993  0.0907744408575728  0.1350029787176017  1.0000
  H   H131      1.0  0.4901652836461903  0.10025820655846052  0.10046994599647285  1.0000
  H   H132      1.0  0.5155140925542719  0.07636838357848852  0.044573111588458225  1.0000
  H   H133      1.0  0.5690392470052952  0.10441803795135884  0.05027250541031125  1.0000
  H   H134      1.0  0.5699739831054681  0.049524634681332946  0.04002015869967912  1.0000
  H   H135      1.0  0.5418419328658731  0.996863337772074  0.08049484748079228  1.0000
  H   H136      1.0  0.48876128185917894  0.025101381716108984  0.08739920923245692  1.0000
  H   H137      1.0  0.5262133006940599  0.013301531950411949  0.12105770131867954  1.0000
  H   H138      1.0  0.6181110436294275  0.08921371367889064  0.09948345876212095  1.0000
  H   H139      1.0  0.6182556602506079  0.03474156092956582  0.08799268186059117  1.0000
  H   H140      1.0  0.5996490352800977  0.05016898351293486  0.12835419111017798  1.0000
  N   N2        1.0  0.9242064319404378  0.5854936073298384  0.5762223541592127  1.0000
  C   C197      1.0  0.8996152156845085  0.5950184891106158  0.5453117004521142  1.0000
  C   C198      1.0  0.9468335811628922  0.624202101080352  0.5885649129249538  1.0000
  C   C199      1.0  0.9597136289136811  0.5529666108125568  0.570188152421892  1.0000
  C   C200      1.0  0.8907064618437923  0.5700451066329929  0.6009030221058358  1.0000
  H   H141      1.0  0.8721816744655829  0.6189859233101208  0.5492851656294793  1.0000
  H   H142      1.0  0.8826557841669898  0.5664852085106383  0.5348091260889019  1.0000
  H   H143      1.0  0.923600700186664  0.6080927208806687  0.5264586177683518  1.0000
  H   H144      1.0  0.9658012305222543  0.6181785560217304  0.6118567567483456  1.0000
  H   H145      1.0  0.9720658894237358  0.637036349217554  0.5704522696474098  1.0000
  H   H146      1.0  0.9209077627422287  0.6492306589852964  0.5935334101325184  1.0000
  H   H147      1.0  0.9789855536016391  0.5451810054626648  0.5930684612595419  1.0000
  H   H148      1.0  0.9858363066096222  0.5637377131325829  0.5519121763966389  1.0000
  H   H149      1.0  0.944046700387296  0.5232166728260753  0.5608442861731645  1.0000
  H   H150      1.0  0.9082371830520756  0.562100168728079  0.6244205276702806  1.0000
  H   H151      1.0  0.8721605436294195  0.5413311062764593  0.5922244421438859  1.0000
  H   H152      1.0  0.8641767193817775  0.5943120967752981  0.6067841804976926  1.0000
  N   N3        1.0  0.007673599670759534  0.9806200979677125  0.6095824668944108  1.0000
  C   C201      1.0  0.9908145720767686  0.008807582039407347  0.6358764665867483  1.0000
  C   C202      1.0  0.05541116711709804  0.9670787971241319  0.6172360681166558  1.0000
  C   C203      1.0  0.007260599517264321  0.003309751819379203  0.5779488353669069  1.0000
  C   C204      1.0  0.9771114070224689  0.9432478726740382  0.6072128637665066  1.0000
  H   H153      1.0  0.9540382216623137  0.017702036101715057  0.6318645776964094  1.0000
  H   H154      1.0  0.011412605233590112  0.038486751204747094  0.6370553871992751  1.0000
  H   H155      1.0  0.9930162832488149  0.9936129191212932  0.6603808358717341  1.0000
  H   H156      1.0  0.07947667202329134  0.994494346004092  0.618928823817976  1.0000
  H   H157      1.0  0.05708092846825652  0.9502444828187947  0.64110230389613  1.0000
  H   H158      1.0  0.06907848087278334  0.9453025415435504  0.5981448753643731  1.0000
  H   H159      1.0  0.01782615500844864  0.9824295851148676  0.5573654559443487  1.0000
  H   H160      1.0  0.03126100292755529  0.03081371363341856  0.5782849583499947  1.0000
  H   H161      1.0  0.9720702758264598  0.015322439187701153  0.5720772602649264  1.0000
  H   H162      1.0  0.9894310024859063  0.9209890178878531  0.5879206625675341  1.0000
  H   H163      1.0  0.9409809497147088  0.9524097606788913  0.6008029345727228  1.0000
  H   H164      1.0  0.9758066171691513  0.9257887960309183  0.6308206156098397  1.0000
  N   N4        1.0  0.474540082432014  0.9694812430036506  0.2777478241998845  1.0000
  C   C205      1.0  0.47078295520005997  0.9606880076568345  0.3132488952726172  1.0000
  C   C206      1.0  0.4441346449078399  0.005193324826851863  0.26924724837368114  1.0000
  C   C207      1.0  0.4602539233010308  0.9317530501507625  0.2589256519573963  1.0000
  C   C208      1.0  0.5229766050830421  0.9802915203623823  0.2694950540168469  1.0000
  H   H165      1.0  0.4935874650706369  0.9341174434568684  0.32069765633499014  1.0000
  H   H166      1.0  0.43456771758641766  0.9522385899993607  0.3201486245166964  1.0000
  H   H167      1.0  0.4809111332882608  0.9886415617683145  0.328119197366671  1.0000
  H   H168      1.0  0.45463643222939976  0.03451226594608037  0.2823450690306192  1.0000
  H   H169      1.0  0.44494919740680394  0.011836162302229168  0.24251937386706776  1.0000
  H   H170      1.0  0.4075375376180629  0.998634306281146  0.27600598945170857  1.0000
  H   H171      1.0  0.4829837258195321  0.904417695879142  0.2643838536989706  1.0000
  H   H172      1.0  0.4616610827419599  0.9375918904573164  0.23197981898479536  1.0000
  H   H173      1.0  0.424106419211746  0.922257368309657  0.2649472901373392  1.0000
  H   H174      1.0  0.5275227080869331  0.9840596061689704  0.24257697998398625  1.0000
  H   H175      1.0  0.5474008088927387  0.9554004584176852  0.277845944390133  1.0000
  H   H176      1.0  0.533713626892452  0.010463371674035438  0.28117420740441473  1.0000
  N   N5        1.0  0.3393090323053546  0.5668376495108355  0.03440836345455223  1.0000
  C   C209      1.0  0.3727371233509561  0.5875747765351116  0.05673102726603218  1.0000
  C   C210      1.0  0.3050405837338908  0.5980526624091732  0.023066076607856312  1.0000
  C   C211      1.0  0.31520347869988635  0.5324912378111007  0.0520144761196033  1.0000
  C   C212      1.0  0.3641554513802956  0.5492692668729559  0.005810454947745347  1.0000
  H   H177      1.0  0.39943222377204296  0.5650088159386849  0.06552222033046438  1.0000
  H   H178      1.0  0.35514821454991974  0.6003332395058262  0.07892864114594665  1.0000
  H   H179      1.0  0.39104468684563265  0.614092817420974  0.04444662016868194  1.0000
  H   H180      1.0  0.2793200455803138  0.5833308535869169  0.0063015932524217435  1.0000
  H   H181      1.0  0.2851795842482205  0.6116931156495131  0.043940006299510115  1.0000
  H   H182      1.0  0.3217814902538215  0.6243353770649941  0.009410952532739714  1.0000
  H   H183      1.0  0.2906008077392649  0.5153963754156177  0.03560855203077651  1.0000
  H   H184      1.0  0.29451847555035454  0.5448971358730399  0.07290773336207301  1.0000
  H   H185      1.0  0.34013612269418336  0.5092758318596623  0.06222243542184058  1.0000
  H   H186      1.0  0.39058770741765303  0.5257879673746895  0.013368554443041303  1.0000
  H   H187      1.0  0.38209996686439346  0.5744095254085662  0.9915895698498464  1.0000
  H   H188      1.0  0.3399012878926915  0.5332056509568185  0.9885575954039475  1.0000
  N   N6        1.0  0.5561427519647236  0.17431385106724745  0.31547897022745836  1.0000
  C   C213      1.0  0.5444027887628282  0.21014123211641414  0.29396494860994293  1.0000
  C   C214      1.0  0.5490201680675942  0.13436098681590816  0.29743198950093863  1.0000
  C   C215      1.0  0.5258379216058121  0.1750013511190456  0.3446698008092884  1.0000
  C   C216      1.0  0.6051351561681788  0.17769461040683032  0.32583335792776685  1.0000
  H   H189      1.0  0.507803585814773  0.20816396908377174  0.28537196226657907  1.0000
  H   H190      1.0  0.5664360757944346  0.2105410806227172  0.27161613357779796  1.0000
  H   H191      1.0  0.5491578805852554  0.24086732990742085  0.30670524248894737  1.0000
  H   H192      1.0  0.5125479281043779  0.1310677351271699  0.28878646959999293  1.0000
  H   H193      1.0  0.5717353301099727  0.13247287342335168  0.2754112910446089  1.0000
  H   H194      1.0  0.5564351813692858  0.10665307895958719  0.313165016267469  1.0000
  H   H195      1.0  0.48866077459979973  0.17165714489516035  0.3376918489619133  1.0000
  H   H196      1.0  0.5298164608821997  0.20479503236589738  0.3588118846838442  1.0000
  H   H197      1.0  0.5338498015173373  0.14848577229434856  0.3614642022845418  1.0000
  H   H198      1.0  0.6289978991059124  0.17651899302033103  0.3043599420966688  1.0000
  H   H199      1.0  0.6150188395169277  0.15143051170203758  0.3425030199525747  1.0000
  H   H200      1.0  0.612039700550011  0.20771910005218913  0.33909857795657117  1.0000
  N   N7        1.0  0.5364238641022716  0.33498256443969093  0.117449609641777  1.0000
  C   C217      1.0  0.585756132851697  0.32292885055792303  0.1151884278038944  1.0000
  C   C218      1.0  0.5115548650918099  0.30506965507940753  0.13895158494577742  1.0000
  C   C219      1.0  0.515446722980455  0.33425933105245803  0.08437101447889123  1.0000
  C   C220      1.0  0.5328371846740404  0.37780306796525975  0.1314041688641919  1.0000
  H   H201      1.0  0.6054942638473838  0.3447811845178093  0.09908963853648026  1.0000
  H   H202      1.0  0.5899235296150024  0.2906289313362519  0.10493730485588249  1.0000
  H   H203      1.0  0.6028854265531718  0.32359981651836633  0.13966903775031048  1.0000
  H   H204      1.0  0.4745235006609928  0.31390313551301885  0.14189089030894456  1.0000
  H   H205      1.0  0.5126185933674053  0.2724586282104506  0.12890026801752388  1.0000
  H   H206      1.0  0.5271434681749791  0.30437975501200853  0.163977914194441  1.0000
  H   H207      1.0  0.47795433712867336  0.3421345667830406  0.0852425043054817  1.0000
  H   H208      1.0  0.5189921099693416  0.30272181682512  0.07266115270530692  1.0000
  H   H209      1.0  0.5324377000723399  0.3575569060183209  0.0679133505170657  1.0000
  H   H210      1.0  0.5467625417939261  0.3789299863451223  0.15674196212843983  1.0000
  H   H211      1.0  0.49626969814132404  0.38861653661979273  0.13247798767501642  1.0000
  H   H212      1.0  0.5528906007148995  0.40108689220365523  0.11683507988163744  1.0000
  N   N8        1.0  0.7382953551117541  0.043756762887231515  0.4966475521859477  1.0000
  C   C221      1.0  0.7822043406369789  0.053410400189106255  0.5139084583383603  1.0000
  C   C222      1.0  0.739539821460668  0.06172162081015763  0.46318423936345654  1.0000
  C   C223      1.0  0.6991440676962215  0.06217108965308338  0.5150342079685586  1.0000
  C   C224      1.0  0.7321170769282322  0.9975973165986769  0.4945147978336778  1.0000
  H   H213      1.0  0.8125633482728746  0.03981109109257197  0.5008765535171674  1.0000
  H   H214      1.0  0.7824118637399056  0.040313598972965485  0.5392739292312857  1.0000
  H   H215      1.0  0.7881012871292963  0.08797566560091273  0.5160741434825388  1.0000
  H   H216      1.0  0.7069004745054475  0.05497023939199441  0.4494568886554964  1.0000
  H   H217      1.0  0.7440059792239174  0.09655725717630936  0.4637551141916483  1.0000
  H   H218      1.0  0.7685263131387601  0.04851836986591951  0.4484392039243285  1.0000
  H   H219      1.0  0.6654836356575746  0.055941088997306876  0.5024664292163434  1.0000
  H   H220      1.0  0.7028654357391665  0.09692069131322567  0.5175822420567897  1.0000
  H   H221      1.0  0.6965957115934409  0.04872033146592857  0.5402014339630102  1.0000
  H   H222      1.0  0.6989262954843891  0.9892320137581091  0.4821225333700328  1.0000
  H   H223      1.0  0.7315027693497996  0.9829702945172057  0.5193400398188142  1.0000
  H   H224      1.0  0.7607054724297854  0.9826183714601532  0.4804888700136601  1.0000
  N   N9        1.0  0.2875086407482004  0.33055654931899037  0.912897187460133  1.0000
  C   C225      1.0  0.29000783588147816  0.29628725900950803  0.8883312205436834  1.0000
  C   C226      1.0  0.3347805264667736  0.3420194807860517  0.9238318910762514  1.0000
  C   C227      1.0  0.2600636303851225  0.3160188498229932  0.9413098633765442  1.0000
  C   C228      1.0  0.26503384128217466  0.3677485077707885  0.8981265762123818  1.0000
  H   H225      1.0  0.25478737791623307  0.2867125361081404  0.8797369566718275  1.0000
  H   H226      1.0  0.30646122966226663  0.2676133614175531  0.8987704105647221  1.0000
  H   H227      1.0  0.31044110403155134  0.30596640615169335  0.8664527687438336  1.0000
  H   H228      1.0  0.35284686803651466  0.3147796496823181  0.9351690044649539  1.0000
  H   H229      1.0  0.35664413121620653  0.35304552277762435  0.9030039449289586  1.0000
  H   H230      1.0  0.33422515575282574  0.36790193331099985  0.9423199903089569  1.0000
  H   H231      1.0  0.25543953509323614  0.3414689329721956  0.9598597530706464  1.0000
  H   H232      1.0  0.27682605540797534  0.288859643583808  0.9537307249596252  1.0000
  H   H233      1.0  0.22491563307508788  0.30529822329028056  0.9335922475716157  1.0000
  H   H234      1.0  0.261229789745012  0.3938336103229305  0.9162699466050398  1.0000
  H   H235      1.0  0.2296954361548964  0.3599966356125255  0.8889505231470913  1.0000
  H   H236      1.0  0.2853481755371554  0.3801954791193076  0.8770623835557051  1.0000
  N   N10       1.0  0.6342021187397534  0.4751125786511917  0.3017395042519644  1.0000
  C   C229      1.0  0.6416600193569983  0.5183464544249667  0.28929806183979595  1.0000
  C   C230      1.0  0.6396153957953756  0.47491728330062244  0.3378068326265717  1.0000
  C   C231      1.0  0.6684356364629198  0.4464445871641978  0.2866819835970613  1.0000
  C   C232      1.0  0.5870213017220851  0.4606921152647049  0.29307557308541676  1.0000
  H   H237      1.0  0.6387147124513849  0.5196189635352814  0.2620900013781088  1.0000
  H   H238      1.0  0.676585739848642  0.5305747647825285  0.2960505782478577  1.0000
  H   H239      1.0  0.6158082783925498  0.5407070934400289  0.2995595400964235  1.0000
  H   H240      1.0  0.6140827643973551  0.49615683830006474  0.349825057083205  1.0000
  H   H241      1.0  0.6343152219178403  0.4428413326215869  0.34811823973972056  1.0000
  H   H242      1.0  0.6746644853315874  0.4860568165459666  0.345353017004754  1.0000
  H   H243      1.0  0.7045504167287228  0.4563144133970499  0.2925484061730273  1.0000
  H   H244      1.0  0.6649310172714104  0.4457438904896964  0.25943700322372304  1.0000
  H   H245      1.0  0.6637519153748226  0.4134833774677598  0.29541103061074075  1.0000
  H   H246      1.0  0.5600012534602223  0.48117440441463594  0.30394698761680683  1.0000
  H   H247      1.0  0.5802605963391699  0.4278941999718893  0.30146662851501027  1.0000
  H   H248      1.0  0.5815783114491319  0.46110047423848  0.2661712699674957  1.0000
  N   N11       1.0  0.10235113246915595  0.4964519754401156  0.8221221879272913  1.0000
  C   C233      1.0  0.08745660216797901  0.5191457022903124  0.8519971687452179  1.0000
  C   C234      1.0  0.1526280768734145  0.5027902848355029  0.8173088552365019  1.0000
  C   C235      1.0  0.07708315578516234  0.512854176932812  0.7933780574030739  1.0000
  C   C236      1.0  0.09222928366385674  0.45101848630337876  0.8256772864845251  1.0000
  H   H249      1.0  0.049581201844863365  0.5157108322955998  0.8562274856873879  1.0000
  H   H250      1.0  0.0949974350210343  0.5534523237662027  0.8501668893400307  1.0000
  H   H251      1.0  0.10573825189455777  0.5073824997957743  0.874212067233636  1.0000
  H   H252      1.0  0.16126890761905455  0.5368864592672375  0.8148122219471169  1.0000
  H   H253      1.0  0.1727965486953793  0.49032024565053944  0.8384527709963245  1.0000
  H   H254      1.0  0.16494948087901573  0.4867568793913757  0.7946473768270222  1.0000
  H   H255      1.0  0.08504867730271459  0.5466276288382818  0.7891028404286478  1.0000
  H   H256      1.0  0.038903547359628865  0.509825346297236  0.7964680753004076  1.0000
  H   H257      1.0  0.08650298394876388  0.4955206326383781  0.7706036640514679  1.0000
  H   H258      1.0  0.054424941397628546  0.44532856659220627  0.8288176548476478  1.0000
  H   H259      1.0  0.11049997198372896  0.43753587321154147  0.847286247329153  1.0000
  H   H260      1.0  0.10324372808689652  0.43306950039176556  0.8035140508494005  1.0000
  N   N12       1.0  0.6753918039831313  0.26544918129525136  0.9843600684133984  1.0000
  C   C237      1.0  0.6590556266787504  0.23523110292517802  0.9592631736278688  1.0000
  C   C238      1.0  0.7182266377274575  0.2492631985629733  0.9996534577483269  1.0000
  C   C239      1.0  0.6393731830289868  0.2707449445539094  0.009772308941406127  1.0000
  C   C240      1.0  0.6848868403023589  0.3065072533481177  0.9685930020635165  1.0000
  H   H261      1.0  0.6265749135620364  0.2460482083241267  0.9472950481648419  1.0000
  H   H262      1.0  0.6522035200649328  0.2036103298420219  0.9697554701116173  1.0000
  H   H263      1.0  0.6853730727340045  0.2308274577142728  0.9397064571818059  1.0000
  H   H264      1.0  0.7316612910578797  0.27125834115219305  0.018740833275648905  1.0000
  H   H265      1.0  0.712162915432242  0.21823257018352288  0.011707500692852868  1.0000
  H   H266      1.0  0.7460712993683543  0.2445717723478265  0.9811201241096184  1.0000
  H   H267      1.0  0.6311086180814064  0.2403035353711729  0.022015755933863845  1.0000
  H   H268      1.0  0.6067389258350422  0.28334560195366165  0.9991183048377167  1.0000
  H   H269      1.0  0.650796811778068  0.29321534921863934  0.02920432388242311  1.0000
  H   H270      1.0  0.7122355116686228  0.3037643725348748  0.9494497931233716  1.0000
  H   H271      1.0  0.696283017440201  0.33056060324408365  0.9868434743644511  1.0000
  H   H272      1.0  0.6534514762496035  0.31901982861106787  0.9561800760554388  1.0000
  N   N13       1.0  0.10699378008985683  0.05238972981884871  0.04257764280262588  1.0000
  C   C241      1.0  0.09535676388630199  0.013229504765273958  0.060327192038314825  1.0000
  C   C242      1.0  0.08231081929114237  0.05298481181496184  0.010769944601451309  1.0000
  C   C243      1.0  0.15755044999419088  0.054326940094865606  0.03687914994266461  1.0000
  C   C244      1.0  0.0926571134439893  0.08906907110595652  0.06244393337585419  1.0000
  H   H273      1.0  0.11342103796176128  0.011895224931553594  0.08447299461199131  1.0000
  H   H274      1.0  0.1056998328370482  0.9848807549971749  0.04602709448641851  1.0000
  H   H275      1.0  0.05743300569966214  0.010942488255623717  0.06506738693369152  1.0000
  H   H276      1.0  0.09040469751800262  0.08206680198101712  0.996692670566912  1.0000
  H   H277      1.0  0.09177066226355657  0.025607490200583616  0.9951176147937262  1.0000
  H   H278      1.0  0.04400139494719979  0.05259366566399892  0.014197186655561023  1.0000
  H   H279      1.0  0.1678453275665961  0.08414744255415973  0.02446485768973461  1.0000
  H   H280      1.0  0.16956966275820617  0.02782890677254035  0.021197260564246978  1.0000
  H   H281      1.0  0.1772744719769328  0.0529785872411237  0.0603479569537424  1.0000
  H   H282      1.0  0.054483440333905175  0.08939648753334084  0.06646862830243294  1.0000
  H   H283      1.0  0.1015036653673751  0.11906656681891792  0.049905794101050116  1.0000
  H   H284      1.0  0.10994918672935139  0.08944090842368979  0.08684157093875311  1.0000
  N   N14       1.0  0.936918242934444  0.7530294445400749  0.6359231646049788  1.0000
  C   C245      1.0  0.9742499320615217  0.7235753401772533  0.6266913725316247  1.0000
  C   C246      1.0  0.891441963748127  0.7342415219858238  0.6276625324473785  1.0000
  C   C247      1.0  0.942877623164307  0.7928955017574632  0.6176846487357958  1.0000
  C   C248      1.0  0.9390225929448579  0.7612875951870743  0.6716126762278357  1.0000
  H   H285      1.0  0.9714956363099434  0.6934974514733613  0.6405529350681408  1.0000
  H   H286      1.0  0.009089187349212047  0.7371482191108312  0.631997791105748  1.0000
  H   H287      1.0  0.972995156898816  0.7159945668332874  0.6000339088534498  1.0000
  H   H288      1.0  0.8883386743765638  0.7278985964448043  0.6008807065723695  1.0000
  H   H289      1.0  0.8859828722155356  0.7039596407760323  0.6408209082889994  1.0000
  H   H290      1.0  0.8625991741376309  0.7556370697747192  0.6346586734128036  1.0000
  H   H291      1.0  0.915320117882538  0.8159271419469105  0.6241012500783354  1.0000
  H   H292      1.0  0.9411785030587727  0.7875102525088001  0.5906624434140726  1.0000
  H   H293      1.0  0.9769194124747371  0.8079303028293423  0.6231582018902161  1.0000
  H   H294      1.0  0.9729156076145778  0.7752631561110631  0.6788879492164837  1.0000
  H   H295      1.0  0.9342182954027635  0.7316812121140734  0.6859405549624147  1.0000
  H   H296      1.0  0.9113847916460469  0.7835130676245762  0.6794749993866678  1.0000
  N   N15       1.0  0.15026507371520936  0.8957933437251987  0.41353970699635334  1.0000
  C   C249      1.0  0.16118666425795025  0.9357163936418227  0.43054139157051047  1.0000
  C   C250      1.0  0.1855426215173769  0.8877930638822672  0.38803804490558397  1.0000
  C   C251      1.0  0.10405873003233236  0.8987982474059003  0.39807592642118095  1.0000
  C   C252      1.0  0.15022764071275277  0.8610341945560861  0.43758308128282236  1.0000
  H   H297      1.0  0.13548907433412527  0.9425473674130156  0.4502005473788181  1.0000
  H   H298      1.0  0.16124850326392204  0.9627582248065607  0.4131625169558048  1.0000
  H   H299      1.0  0.1959297693410344  0.9347191687521718  0.4424192367903747  1.0000
  H   H300      1.0  0.17828347840453684  0.8578864368904899  0.37462018115793894  1.0000
  H   H301      1.0  0.18653575581253956  0.913722336110267  0.36966095712279673  1.0000
  H   H302      1.0  0.2208310969883541  0.8854528125258802  0.39890241992881237  1.0000
  H   H303      1.0  0.07647467437482702  0.9038610855408954  0.41674398702182824  1.0000
  H   H304      1.0  0.09497064123718446  0.8693337622990919  0.3845830998171233  1.0000
  H   H305      1.0  0.10251138972590824  0.9253656300123068  0.38031975301485677  1.0000
  H   H306      1.0  0.12392305621635669  0.8663126921293918  0.45715036566756817  1.0000
  H   H307      1.0  0.18442632622047883  0.8580110824962176  0.4499727835691729  1.0000
  H   H308      1.0  0.14185440015811904  0.8303278730405891  0.4256587234380614  1.0000
  N   N16       1.0  0.7214039309233291  0.8175581421129773  0.4551334236667656  1.0000
  C   C253      1.0  0.7115388964757233  0.7963520292972784  0.4235438786957655  1.0000
  C   C254      1.0  0.7353073951211428  0.8617017349908999  0.44902435837795873  1.0000
  C   C255      1.0  0.7593006490039967  0.7953463263544076  0.4722014519157038  1.0000
  C   C256      1.0  0.6793638216167539  0.8169939445197139  0.47577965169848213  1.0000
  H   H309      1.0  0.6994862349373703  0.7633883217099656  0.4273393577081632  1.0000
  H   H310      1.0  0.7430126888365471  0.7945977215744364  0.40780871673177704  1.0000
  H   H311      1.0  0.6841575507332085  0.8130317378439615  0.40947028655955714  1.0000
  H   H312      1.0  0.7423532418828074  0.8786868852145587  0.47247423533809263  1.0000
  H   H313      1.0  0.7671568501004388  0.8633362661368326  0.4336832926416071  1.0000
  H   H314      1.0  0.7075172357026455  0.8792044026057698  0.43590275527295597  1.0000
  H   H315      1.0  0.7679991235330981  0.8106283692679866  0.4960296853852064  1.0000
  H   H316      1.0  0.7913802414201566  0.7944768667843347  0.45703818084241427  1.0000
  H   H317      1.0  0.7497827448716652  0.7620418276128447  0.4773357802320874  1.0000
  H   H318      1.0  0.6856589376375961  0.8320197554253668  0.5000909236525692  1.0000
  H   H319      1.0  0.6668935471916319  0.7844291893790714  0.48036296640182147  1.0000
  H   H320      1.0  0.6503897906587983  0.8339148068956578  0.46372569706386935  1.0000
  N   N17       1.0  0.4106846994160872  0.015343076879781092  0.4842292042618537  1.0000
  C   C257      1.0  0.4437863697584439  0.9804334453003548  0.48879065254399257  1.0000
  C   C258      1.0  0.4330121451584263  0.0555322463377712  0.49379998984317763  1.0000
  C   C259      1.0  0.3692650599417196  0.008157368857332647  0.5048354301998763  1.0000
  C   C260      1.0  0.39661910303514825  0.01737193375518964  0.44940795559276253  1.0000
  H   H321      1.0  0.4279335012959292  0.9495120669856962  0.48229772715033864  1.0000
  H   H322      1.0  0.45605292894060995  0.9786208242398688  0.514657816507901  1.0000
  H   H323      1.0  0.47509539546402985  0.9847267536841467  0.4732117745168936  1.0000
  H   H324      1.0  0.4634986460262756  0.06265911723427187  0.47798791605662233  1.0000
  H   H325      1.0  0.4085412726185848  0.08241622445614993  0.49164324312304575  1.0000
  H   H326      1.0  0.44563591902973004  0.0546707603358918  0.5195886645953378  1.0000
  H   H327      1.0  0.3436153017299205  0.034040378963482665  0.501946724936752  1.0000
  H   H328      1.0  0.3784321360929028  0.006339151124283626  0.531307344458331  1.0000
  H   H329      1.0  0.3512036160366901  0.9782565690039521  0.4981375110526464  1.0000
  H   H330      1.0  0.37112568780720134  0.04293405129605765  0.44538743478288934  1.0000
  H   H331      1.0  0.3801597728192976  0.987424681588386  0.4411207882220035  1.0000
  H   H332      1.0  0.4266658158878928  0.023997250311325265  0.4331078452595984  1.0000
  N   N18       1.0  0.39026069762180626  0.6221952205350142  0.8275976487872841  1.0000
  C   C261      1.0  0.40786862991211775  0.5836635677558898  0.8115233772198804  1.0000
  C   C262      1.0  0.39690422901197525  0.6585905804909223  0.805501562013191  1.0000
  C   C263      1.0  0.41598125558511617  0.6296666567875872  0.8584595730606925  1.0000
  C   C264      1.0  0.340419064901461  0.6168042595482672  0.8349158818020073  1.0000
  H   H333      1.0  0.38872744940413684  0.5766930865740971  0.788424120851286  1.0000
  H   H334      1.0  0.40454875170099985  0.5557458249874626  0.8278751648211403  1.0000
  H   H335      1.0  0.4451334837827208  0.5869963229292854  0.8049976177994315  1.0000
  H   H336      1.0  0.3841797172003919  0.6882443052186936  0.8169146155546559  1.0000
  H   H337      1.0  0.43428631622053027  0.6633167796127325  0.799502465646258  1.0000
  H   H338      1.0  0.37813130977148884  0.6540926363557822  0.7818790629379522  1.0000
  H   H339      1.0  0.4019577616303251  0.6571218679570138  0.872194773465963  1.0000
  H   H340      1.0  0.4533229327477905  0.6360181923572398  0.853704709825153  1.0000
  H   H341      1.0  0.41383231005787724  0.6019610595105238  0.8750291742437611  1.0000
  H   H342      1.0  0.3196693027890578  0.6123657131637337  0.8121325413599138  1.0000
  H   H343      1.0  0.3262311813131388  0.644614251204481  0.8481739838653206  1.0000
  H   H344      1.0  0.3342685604932336  0.5888554548436294  0.8508184848711571  1.0000
  N   N19       1.0  0.12409388833248337  0.6200623866785141  0.416997053841933  1.0000
  C   C265      1.0  0.13406997011726518  0.6657233834616232  0.4153297436089879  1.0000
  C   C266      1.0  0.1194318790286375  0.6028004500173328  0.3834247757232987  1.0000
  C   C267      1.0  0.08040267598089446  0.6131956436952612  0.4351426966182749  1.0000
  C   C268      1.0  0.16240440447215534  0.5985820641569002  0.434147534154856  1.0000
  H   H345      1.0  0.13687014047803703  0.679929028988419  0.4402839133770964  1.0000
  H   H346      1.0  0.10618446252110991  0.682774152562805  0.40218990126263504  1.0000
  H   H347      1.0  0.16699449494008387  0.6722568355239389  0.40212189478466104  1.0000
  H   H348      1.0  0.1137781831240896  0.5681191846092548  0.38363230445000857  1.0000
  H   H349      1.0  0.08937513016853173  0.6167756237369223  0.37042491794511656  1.0000
  H   H350      1.0  0.15063554140125524  0.6094733125422528  0.3682557409401161  1.0000
  H   H351      1.0  0.0832072787210163  0.6247711933588912  0.46088965167462354  1.0000
  H   H352      1.0  0.07104697456708899  0.5792051885063467  0.43617668818855687  1.0000
  H   H353      1.0  0.051046090184947664  0.6301741998385627  0.42338624674451003  1.0000
  H   H354      1.0  0.19568147018058515  0.6023797344439226  0.4207299872357337  1.0000
  H   H355      1.0  0.15538031405176092  0.5642741919727978  0.43685149515333727  1.0000
  H   H356      1.0  0.16757145129168494  0.6117071966109421  0.4592492377040785  1.0000
  N   N20       1.0  0.6756130047717137  0.9184586672935108  0.8196909299854948  1.0000
  C   C269      1.0  0.6835728430905715  0.8725049884618871  0.8194960512661615  1.0000
  C   C270      1.0  0.7107847010194076  0.9392395690951867  0.8406076228797914  1.0000
  C   C271      1.0  0.6289189576000659  0.9273394808683907  0.8327495879146773  1.0000
  C   C272      1.0  0.6791692761240302  0.9348024514239516  0.7858635271766914  1.0000
  H   H357      1.0  0.6575505814315216  0.855771720725604  0.8039883510508322  1.0000
  H   H358      1.0  0.681482976127467  0.8588942666960901  0.8445672871160715  1.0000
  H   H359      1.0  0.7183849076242361  0.8645773113829985  0.8094776171738935  1.0000
  H   H360      1.0  0.7464845578037249  0.9339123574342391  0.8311131679161369  1.0000
  H   H361      1.0  0.705502641195808  0.9739586992299691  0.8416344883224008  1.0000
  H   H362      1.0  0.7097608954690621  0.9273555581273876  0.8662426477093393  1.0000
  H   H363      1.0  0.6219145051206657  0.9618348104960738  0.8331588938519485  1.0000
  H   H364      1.0  0.6250524138037316  0.9154703487433051  0.8582781109075953  1.0000
  H   H365      1.0  0.6015549348264096  0.9121118113447798  0.8174729820304119  1.0000
  H   H366      1.0  0.672964743865454  0.9693596845797511  0.7849702880035119  1.0000
  H   H367      1.0  0.6536913509098162  0.9193899019206945  0.7691552309515604  1.0000
  H   H368      1.0  0.7142067436958386  0.9291930276824019  0.7754659048900892  1.0000
  N   N21       1.0  0.3560422984410222  0.6324252745221218  0.23390646993899963  1.0000
  C   C273      1.0  0.36692180762197907  0.599693815012512  0.2584116224898038  1.0000
  C   C274      1.0  0.3656173036200043  0.6745580889125365  0.24793543747844604  1.0000
  C   C275      1.0  0.30666450552237906  0.6291349703066806  0.2249395667723135  1.0000
  C   C276      1.0  0.3846439428441751  0.6262399281569451  0.20425083931995558  1.0000
  H   H369      1.0  0.4042253000895393  0.6003753273451652  0.2652619294571014  1.0000
  H   H370      1.0  0.35873143939920543  0.5676276782527198  0.24882892935104145  1.0000
  H   H371      1.0  0.34641788420209135  0.6041441395920041  0.2812432256999495  1.0000
  H   H372      1.0  0.4028263570408086  0.6780726360711187  0.2547713547231053  1.0000
  H   H373      1.0  0.35704136583500884  0.7000195291938651  0.23019162252973405  1.0000
  H   H374      1.0  0.344407107112945  0.6804182538646668  0.2702729292671054  1.0000
  H   H375      1.0  0.297032572832576  0.6535880927305442  0.20674681242680434  1.0000
  H   H376      1.0  0.28390137450678327  0.6331979702115507  0.24672604793562533  1.0000
  H   H377      1.0  0.29840184876049075  0.5978733179819228  0.2140303427808587  1.0000
  H   H378      1.0  0.37673717170325327  0.6501857076174344  0.18517437555944108  1.0000
  H   H379      1.0  0.3784754713879048  0.594712237530486  0.19309796288367187  1.0000
  H   H380      1.0  0.42221792241466266  0.6288286498405892  0.2099846725734797  1.0000
  N   N22       1.0  0.6753481804203655  0.5626744057269966  0.03077217414936073  1.0000
  C   C277      1.0  0.6635573308821228  0.5702229947053326  0.06554508069679388  1.0000
  C   C278      1.0  0.6534623527432764  0.5229625209412948  0.01960256809879879  1.0000
  C   C279      1.0  0.726171843195232  0.5594043556186274  0.027329518986221935  1.0000
  C   C280      1.0  0.6582909851624584  0.5980416451192205  0.010623980156593715  1.0000
  H   H381      1.0  0.6773973128847033  0.5448762794426577  0.08158371805701892  1.0000
  H   H382      1.0  0.6253635008862154  0.5711628034262908  0.06936350891148324  1.0000
  H   H383      1.0  0.6781519368734015  0.6005287775927722  0.07469997213651314  1.0000
  H   H384      1.0  0.615015306972046  0.524361902899858  0.021477469522640957  1.0000
  H   H385      1.0  0.6618898819098181  0.5162345319634759  0.9934863433030324  1.0000
  H   H386      1.0  0.6651664636077643  0.49562079195162945  0.03446187947060442  1.0000
  H   H387      1.0  0.740106533269176  0.5329655273254957  0.04225563377295405  1.0000
  H   H388      1.0  0.7438281203888812  0.5888419859567294  0.035539130583436496  1.0000
  H   H389      1.0  0.7362267171964134  0.553577807248276  0.0013359365243199584  1.0000
  H   H390      1.0  0.6686367814642374  0.5943825516420579  0.9844689374100908  1.0000
  H   H391      1.0  0.6722710082379328  0.6288036262054102  0.01932476566297603  1.0000
  H   H392      1.0  0.6197653723155513  0.5998485012384078  0.011081466532604667  1.0000
  N   N23       1.0  0.8867355733731885  0.11550830210449103  0.7906050744865878  1.0000
  C   C281      1.0  0.9078813754370616  0.1423324507155226  0.765134047273333  1.0000
  C   C282      1.0  0.9090891510289228  0.0736970035801412  0.7905584221589247  1.0000
  C   C283      1.0  0.8368195159548151  0.11060456749033779  0.7836058952884022  1.0000
  C   C284      1.0  0.8931592916713579  0.13539694242265404  0.8231210982591625  1.0000
  H   H393      1.0  0.8913455452045759  0.17388270106546583  0.7641658728519338  1.0000
  H   H394      1.0  0.9042486263625845  0.12783383054698846  0.7403572987377711  1.0000
  H   H395      1.0  0.9453415945552552  0.14734804881042032  0.7700222171064548  1.0000
  H   H396      1.0  0.8933124140098053  0.052585592928998  0.8093637437743768  1.0000
  H   H397      1.0  0.9053691561814683  0.05778989640772525  0.7663397267993255  1.0000
  H   H398      1.0  0.946835508530848  0.0763915848674872  0.796091238968306  1.0000
  H   H399      1.0  0.8306588095066195  0.09417654237119777  0.759804511752499  1.0000
  H   H400      1.0  0.8189745225561571  0.14156979948036064  0.782634889703895  1.0000
  H   H401      1.0  0.8196452029060156  0.09181549875991823  0.8029890667095881  1.0000
  H   H402      1.0  0.87814894192028  0.1156911136648409  0.8430720725493003  1.0000
  H   H403      1.0  0.8762727893575825  0.1667871613199404  0.824408306280026  1.0000
  H   H404      1.0  0.9305452230155057  0.14001826639297993  0.8290597289249197  1.0000
  N   N24       1.0  0.009174518851463365  0.30380377721702845  0.8992108415286789  1.0000
  C   C285      1.0  0.03924149104793795  0.269222842227595  0.887730640090172  1.0000
  C   C286      1.0  0.9897721461257329  0.3260306029427843  0.8705273106274168  1.0000
  C   C287      1.0  0.03676867445525289  0.333580145947948  0.9192877528462625  1.0000
  C   C288      1.0  0.9709759993232824  0.28632201890798903  0.9192068507913156  1.0000
  H   H405      1.0  0.020290202075169628  0.24692219415013486  0.8713481895979627  1.0000
  H   H406      1.0  0.05297856748305274  0.25053520103575244  0.9086150823013834  1.0000
  H   H407      1.0  0.06965216998734491  0.28130182654454555  0.8738080139554668  1.0000
  H   H408      1.0  0.968569315971758  0.30431441230317674  0.8550351761756406  1.0000
  H   H409      1.0  0.9670009090353421  0.35247507166440656  0.8782213870107468  1.0000
  H   H410      1.0  0.017709693966077467  0.3391954230251926  0.8547179842318724  1.0000
  H   H411      1.0  0.01532747869596629  0.3601489526998564  0.9284692969165584  1.0000
  H   H412      1.0  0.06605523846333328  0.3472195807400663  0.9050379364519876  1.0000
  H   H413      1.0  0.05195822424270258  0.317748496787521  0.9411013011306089  1.0000
  H   H414      1.0  0.9481652951385648  0.3115292609495437  0.9289921693468413  1.0000
  H   H415      1.0  0.984349068705716  0.26814573188193785  0.940562472761193  1.0000
  H   H416      1.0  0.9486965623612369  0.26452238705574044  0.9045738215873932  1.0000
  N   N25       1.0  0.22519533854647134  0.10249640212218111  0.27231434605857  1.0000
  C   C289      1.0  0.2636414657163386  0.07280760593818902  0.26663531086311587  1.0000
  C   C290      1.0  0.22713350020318823  0.13637641210066442  0.24752010738425592  1.0000
  C   C291      1.0  0.2294441638035356  0.12091350049801171  0.30554269318855615  1.0000
  C   C292      1.0  0.18059977192930377  0.07971655134838462  0.2694287734331412  1.0000
  H   H417      1.0  0.2635464933892473  0.04706677633519729  0.2850126763158754  1.0000
  H   H418      1.0  0.2979538962898949  0.0887882571152141  0.26805703306573503  1.0000
  H   H419      1.0  0.260817712869585  0.0577889908882776  0.2420341388316545  1.0000
  H   H420      1.0  0.198560011711286  0.15937413390947194  0.25095834186916616  1.0000
  H   H421      1.0  0.26051590098182964  0.15396578765050656  0.24875487025901466  1.0000
  H   H422      1.0  0.2239674110400387  0.12338907837262605  0.22217839205137674  1.0000
  H   H423      1.0  0.2280305206626796  0.09612321712027393  0.3247952196876397  1.0000
  H   H424      1.0  0.20079776058087062  0.14328153494073864  0.3107928898965151  1.0000
  H   H425      1.0  0.2628414126677192  0.13809224751517235  0.30867461739458524  1.0000
  H   H426      1.0  0.15068112101628595  0.1011827048553684  0.2731060235748696  1.0000
  H   H427      1.0  0.17769543806455101  0.05434552381082147  0.2881253635563156  1.0000
  H   H428      1.0  0.17677648778706057  0.06473752958079902  0.2447853241041921  1.0000
  N   N26       1.0  0.12436119499651954  0.7988655093971052  0.1628853988310355  1.0000
  C   C293      1.0  0.15349429543198911  0.772059121316823  0.14164015016403064  1.0000
  C   C294      1.0  0.08076085719019743  0.7764287681820847  0.1705941658256521  1.0000
  C   C295      1.0  0.11381707566827104  0.8385373740481444  0.1455660762795437  1.0000
  C   C296      1.0  0.1494679603352458  0.8085171171462587  0.1936535465722716  1.0000
  H   H429      1.0  0.185287363695676  0.7890928464669941  0.13361603967421068  1.0000
  H   H430      1.0  0.13455143667471248  0.7617624298001953  0.1191832275828973  1.0000
  H   H431      1.0  0.16444853401374515  0.742862007030293  0.15457641776139233  1.0000
  H   H432      1.0  0.061510806275972385  0.7675157070336129  0.1479031681487762  1.0000
  H   H433      1.0  0.08762702900790709  0.7466148996332173  0.1839588895894933  1.0000
  H   H434      1.0  0.05747793904863041  0.7957997194680625  0.1861947563278463  1.0000
  H   H435      1.0  0.0950825486555984  0.8323167496694001  0.12215789404285449  1.0000
  H   H436      1.0  0.14620556496131676  0.8561474675297813  0.1394665449353862  1.0000
  H   H437      1.0  0.09192860012658843  0.8596176673862694  0.1608646522839272  1.0000
  H   H438      1.0  0.12780004918276955  0.8271033468795763  0.21091886884319783  1.0000
  H   H439      1.0  0.18141484718425338  0.8271983975118551  0.18880104922842966  1.0000
  H   H440      1.0  0.16020699247995784  0.7792466694109842  0.2065857124385113  1.0000
  N   N27       1.0  0.9239494270113012  0.3104359606022457  0.6749992104332814  1.0000
  C   C297      1.0  0.9190703180073294  0.29821542333909673  0.7097976839467214  1.0000
  C   C298      1.0  0.8803673310754422  0.3008804736773913  0.6573688595065084  1.0000
  C   C299      1.0  0.9622687566958787  0.2864672181296155  0.6599552956003858  1.0000
  C   C300      1.0  0.9341503094241913  0.3560303504985695  0.6729213819990711  1.0000
  H   H441      1.0  0.9514228554916585  0.30481163581498316  0.7237999552560881  1.0000
  H   H442      1.0  0.9112779021367802  0.2639534110945359  0.7122248442231628  1.0000
  H   H443      1.0  0.8905417850357871  0.3157721362285031  0.7219668794741206  1.0000
  H   H444      1.0  0.8717519740840138  0.2666157813984212  0.6586562907035423  1.0000
  H   H445      1.0  0.8506373984698548  0.3184066599117132  0.6680402778541329  1.0000
  H   H446      1.0  0.8828812719893632  0.30935242155993226  0.6309529173702837  1.0000
  H   H447      1.0  0.9677563278660857  0.29553934444672575  0.6339009964089921  1.0000
  H   H448      1.0  0.9551361594880166  0.25200962196755683  0.660432052940348  1.0000
  H   H449      1.0  0.995513630086876  0.29195125258210886  0.6731552285202995  1.0000
  H   H450      1.0  0.9670377862985393  0.364010252978973  0.6857788959395893  1.0000
  H   H451      1.0  0.9063482174285811  0.37522392274303057  0.6844490285328715  1.0000
  H   H452      1.0  0.9379903666394822  0.36650635796940595  0.6470292802935497  1.0000
  N   N28       1.0  0.685980385456101  0.776980601743044  0.624807042693546  1.0000
  C   C301      1.0  0.6456142344241051  0.7752531346224747  0.6024886447639384  1.0000
  C   C302      1.0  0.7021310624922571  0.7338069652704114  0.6317575616390206  1.0000
  C   C303      1.0  0.672345200457935  0.7975916766976764  0.655883531308965  1.0000
  C   C304      1.0  0.7237633130313514  0.8011952568213795  0.6091779775288404  1.0000
  H   H453      1.0  0.6338327148363619  0.8073977030632079  0.5955753185996583  1.0000
  H   H454      1.0  0.6157039118262804  0.7589944157924959  0.6142397393446554  1.0000
  H   H455      1.0  0.653712916627061  0.7577826707773268  0.5795017499115406  1.0000
  H   H456      1.0  0.7326553097071082  0.7339751193984791  0.6484841672517915  1.0000
  H   H457      1.0  0.674540814443534  0.7150322681781089  0.6438802269941373  1.0000
  H   H458      1.0  0.711696698203735  0.7166589767171647  0.6089070713044537  1.0000
  H   H459      1.0  0.7019456255780792  0.7996037472178315  0.6733066918292019  1.0000
  H   H460      1.0  0.6441604377973813  0.7796926398253428  0.6684344773829629  1.0000
  H   H461      1.0  0.6596859885419537  0.8301881970261205  0.6516515478453583  1.0000
  H   H462      1.0  0.7123050662926653  0.8335206830626144  0.602629801549765  1.0000
  H   H463      1.0  0.7356755321106909  0.7857889634804293  0.5861705019496573  1.0000
  H   H464      1.0  0.7541893876850462  0.8043872426094024  0.6258289922872712  1.0000
  N   N29       1.0  0.470900152562673  0.6801383490507383  0.41156850448204335  1.0000
  C   C305      1.0  0.4792866914140082  0.6344982460582451  0.40749349475578606  1.0000
  C   C306      1.0  0.4702048911123594  0.6909003432868674  0.44688762403791765  1.0000
  C   C307      1.0  0.4259488643037461  0.6912189318943017  0.39659950536364613  1.0000
  C   C308      1.0  0.5082506268928358  0.7040897396532315  0.3952240684871126  1.0000
  H   H465      1.0  0.47917952515969064  0.6251598286419625  0.3811468175748026  1.0000
  H   H466      1.0  0.4525672767971891  0.6152789692037736  0.4202770609696153  1.0000
  H   H467      1.0  0.5136001512303027  0.6252543890150356  0.41764750802328177  1.0000
  H   H468      1.0  0.46524093873584915  0.7253352202826835  0.45085379624983885  1.0000
  H   H469      1.0  0.4421373015870165  0.6738837233771228  0.4601069061716372  1.0000
  H   H470      1.0  0.5034866471739872  0.6826807977298547  0.45901846279166314  1.0000
  H   H471      1.0  0.4186665538020951  0.7254875360005459  0.3993378948808764  1.0000
  H   H472      1.0  0.39692621311843457  0.6736106591457856  0.4082701253261212  1.0000
  H   H473      1.0  0.4255152856155394  0.6837933270932011  0.3698755957879278  1.0000
  H   H474      1.0  0.5425389414721065  0.6965535004635438  0.40607872281844964  1.0000
  H   H475      1.0  0.5032637676580504  0.7386916379207276  0.39797567739229  1.0000
  H   H476      1.0  0.510055465394621  0.6968329747733719  0.3685307663814543  1.0000
  N   N30       1.0  0.6591985022077628  0.5054834888151122  0.8166393912381545  1.0000
  C   C309      1.0  0.6361345401365844  0.5399818706799803  0.7986970246097009  1.0000
  C   C310      1.0  0.6570513147707142  0.5139140376625214  0.852268267227394  1.0000
  C   C311      1.0  0.7081395429416306  0.5029064677396061  0.8062243298693768  1.0000
  C   C312      1.0  0.635494181032897  0.46514675519730186  0.8094020764415294  1.0000
  H   H477      1.0  0.6381143017087192  0.5352133595874096  0.7716460939629275  1.0000
  H   H478      1.0  0.652854626968582  0.5708707399751247  0.8040435261743678  1.0000
  H   H479      1.0  0.598929709756791  0.5427300977734071  0.8055181583842786  1.0000
  H   H480      1.0  0.6736955688458001  0.48828441584421484  0.8666489000645128  1.0000
  H   H481      1.0  0.674534611345197  0.5441413907298344  0.8587359716429387  1.0000
  H   H482      1.0  0.620597459544379  0.5162754254786623  0.8607555129647442  1.0000
  H   H483      1.0  0.7268084207291549  0.5331763265630975  0.8107291130482406  1.0000
  H   H484      1.0  0.7109962720653589  0.4963876298756075  0.7794292564207023  1.0000
  H   H485      1.0  0.7268479902462994  0.4775203876710897  0.8194847843445328  1.0000
  H   H486      1.0  0.652114933829584  0.4384089165020448  0.822570989473601  1.0000
  H   H487      1.0  0.6363094764302614  0.4578131433223105  0.7826956543129224  1.0000
  H   H488      1.0  0.5985443379074536  0.4659508634172942  0.8171794686829816  1.0000
  N   N31       1.0  0.1413543539821971  0.4457015424286064  0.11846123197228738  1.0000
  C   C313      1.0  0.177711745202505  0.4672808778211324  0.1378766273153839  1.0000
  C   C314      1.0  0.12549635557958072  0.47363557954189284  0.09176868576712002  1.0000
  C   C315      1.0  0.1018439698628899  0.4353447265249309  0.14006933797937476  1.0000
  C   C316      1.0  0.16022418444554298  0.4065389130350875  0.10412561849368387  1.0000
  H   H489      1.0  0.16438876802517544  0.49671125568241153  0.149403852187438  1.0000
  H   H490      1.0  0.2080063871539921  0.47604440047130625  0.12240813338096355  1.0000
  H   H491      1.0  0.19066006549630865  0.4471513577453848  0.15823575811878426  1.0000
  H   H492      1.0  0.15454161134547828  0.48244925328516003  0.0751454302415552  1.0000
  H   H493      1.0  0.09846775930392493  0.4581502298642485  0.07636626645676095  1.0000
  H   H494      1.0  0.1106059122129539  0.5034334190454084  0.10154847539600678  1.0000
  H   H495      1.0  0.07372404765317042  0.41894120578961114  0.1262848341769051  1.0000
  H   H496      1.0  0.08681027505236183  0.46429555229446456  0.15124961490647915  1.0000
  H   H497      1.0  0.11264946542118204  0.4144111528934351  0.1605581478559504  1.0000
  H   H498      1.0  0.18949002356896671  0.413223818725309  0.0871066312498341  1.0000
  H   H499      1.0  0.13343398307117038  0.3891779772789622  0.08969675539459146  1.0000
  H   H500      1.0  0.1731013802977044  0.38476523237548255  0.12340989685544031  1.0000
  N   N32       1.0  0.17805503812551882  0.20768405128682488  0.6067469523902935  1.0000
  C   C317      1.0  0.13262820660531127  0.21126835763616347  0.5902735745725559  1.0000
  C   C318      1.0  0.21421209874812153  0.2267054903660798  0.5857623489069148  1.0000
  C   C319      1.0  0.18879943502131336  0.16277369373908684  0.6122607646673384  1.0000
  C   C320      1.0  0.17646793364650604  0.22989110122150655  0.6386443538514344  1.0000
  H   H501      1.0  0.10467513013222751  0.1965644156683527  0.6051662995160458  1.0000
  H   H502      1.0  0.13272417037737272  0.19527800536867648  0.5658822478982274  1.0000
  H   H503      1.0  0.12298805104843402  0.24475556860338032  0.5862248561206053  1.0000
  H   H504      1.0  0.24902579384327073  0.22457832680464948  0.5973821804693267  1.0000
  H   H505      1.0  0.21614802610439554  0.21046356351328163  0.5615094781691135  1.0000
  H   H506      1.0  0.2070806225874009  0.2605959897359853  0.5810263847311474  1.0000
  H   H507      1.0  0.18898938602873905  0.14476590502126782  0.5887745373051825  1.0000
  H   H508      1.0  0.16276863533653163  0.14769499154290153  0.6286594926012395  1.0000
  H   H509      1.0  0.22326541405347045  0.15871256235446346  0.6240208714487662  1.0000
  H   H510      1.0  0.21011982816958263  0.22797628126360556  0.6518572925067376  1.0000
  H   H511      1.0  0.14950530980789778  0.21614979360992584  0.6550401467779237  1.0000
  H   H512      1.0  0.16795450188572736  0.263861028140034  0.6356057854701326  1.0000
