data_image0
_chemical_formula_structural       CSFeSHFeSFeSHCSC2HSH3CH3NH3C6H4C3HC2SH4C2H5CH2CHNH5FeH3CH3SHCHNCHFeCHCHSH6CHCNCSHC2H2CH5C3FeH2C2NCH3CHCH4CH6CH2CH2SH2SCFeHCHFeSCH4FeCH3CNHC4SCSHCHCH2SH2SC2HSC2FeSCHNCFe2CH2CHCHCH4SHCHC2H4CHSHCH2SHS2H2SFeNC2HSH2CHCHCHCFeNHFeH2CH2CFeS2FeS2FeSFeS3HFeS2CH2C7H4CHCH2C6H4C2HNC4H13CH7CH2CHNH7SHCNC4H2SH3CH3C3SH3FeS2FeS2FeSFeS4H3C2FeS2CH2C6H4C6H4C2HNCH2FeNH2NC4H9CHCHSHCHCH3CSHSHC3H2CHCH5C2HCH6CH5SNCH4CHFeHCHCHSCH4CH2SNHC4HNH2CSH2CHSHCH3CHCH7CFe2SH2CH2CH3NCH2CSHSCHC2HCFeHCH2CHC2HCFeS2FeS2FeSFeS3FeS2C2H4C6H4C4HC6H5C4SCH3CH3CH4C2H2CNC4H12NC4H10NH6CHCNH5NCH12CSFeS2FeS2FeSFeS4CFeS2HFeH3CH3FeCH2C6H5CH2C7H4C7H3NC4H12NC4H9NH4CNHCH3CH2C2HCHS2CH2CSFeHSC2H2SH3SH4CHCHSFeSFeS2C2HFeS2FeS2FeSFeS3HSH3CHSC7H4C2FeH2C6H4C2NC2HC3H4S2HCH3NSHCH4SCH2CH3SCH2CNHSC2H2NCHC4H5CH2C3H13FeH2FeH2SHCSFeSFeHCHSHFeS2FeS2FeSFeCS2H3CFeH3CSH4CH2C6HFeH2C6H6CHSCH2C3HCH2CHC2FeHNH2SHSCH2C2Fe2CNC4H7SNSH2C3H2FeH4CH2C2HSHSNCH3SHFeS2FeS2FeSFeS3HCS2H2C6H4C4H3C6H5C2H3CH2C2H6C2H5CN2SFeH5CH4C2NH2CH3CH4NC4H6CHCH4C2H2CH3CH4FeS2FeS2FeSFeS3CFeS2H2CHSH2C6H4C4H4CHNC7H3NS2H4CH3SH2CFeH2CH6C2H3CH5CH2CH7SC2HCNHCHFeSNH4CHC2HCH5C2HFeS2HCHS2FeS2FeS2FeSFeS3FeS2H2CHC2H4C6H5C6H4C3H3CHSH3NC2NCHSNHC2FeHCHCH5NC2H6CHCHCH2CH6FeC2HCHCHC2HFeH2SH6C2NH3CH3CH2CH3FeH2FeS2CFeS2FeSCFeS2FeSFeS3FeS2HSHCHC2NSC6H5CH3CHC7H6CSNH2FeH2NC2FeHCHSCH6CHCSCSNC4H12FeCH3SC3H2CSCH3FeC2HSH4C2H2CHSC3H3CHFe2S2HSFeSFeS3H3FeS2H2CHC6H4C3H3C2HC3H4CHCH4C2H3CHNH2SH5NC3H4C3SFeS2HCFeSFeHS2H5CHFeS2H2CHNH2CH3C6H4C3HCH2SHC6H3CH2SH3FeHNH3NS2HCHC2H2CH4SFeSC4HNHCH3CH2S2CHFeHC2HCHSH2CFe2SFeHSFeSFeS2FeS2FeS2Fe2S3FeHFeHFeCS2H2CHC4HCHCHC4HCH2CHC6H4C3H2CH2SNC2HCH2CHSH9CH2CHCHSNH4SC2HCSH12FeH3CH3FeCNC4HC2HNH3CH2CHCH2CHCSCH2CH8CHNHSCFeS2FeSFeH2S2FeS2CFeSFeS3HCFeH3FeSHCSCH2C4HC2HCSC7H6C7H4SHFeHCH6NCSFeCH5S2CHFe2HCHCH2NCHCHCH2C3HSHCH4NHCSH6SH3CNH4FeCSHCHC2HCHNFeS2H2CH3FeSC2HCH4SHCH2SC2H3NC4H5CHCH4C3SHC2H2FeS2FeS2FeH2CH8FeCSHSC2SC2H2SH2CHC3H5SHNC4H2SC3FeSCSFeC2NCHCHSHSH4CHCHCH2CHSCHC4H3
_chemical_formula_sum              "C720 S288 Fe144 H1152 N72"
_cell_length_a       71.4711
_cell_length_b       71.3084
_cell_length_c       37.5468
_cell_angle_alpha    90.8047
_cell_angle_beta     90.8172
_cell_angle_gamma    111.783

_space_group_name_H-M_alt    "P 1"
_space_group_IT_number       1

loop_
  _space_group_symop_operation_xyz
  'x, y, z'

loop_
  _atom_site_type_symbol
  _atom_site_label
  _atom_site_symmetry_multiplicity
  _atom_site_fract_x
  _atom_site_fract_y
  _atom_site_fract_z
  _atom_site_occupancy
  C   C1        1.0  0.27085  0.38087  0.07023  1.0000
  S   S1        1.0  0.13343  0.44202  0.31392  1.0000
  Fe  Fe1       1.0  0.18978  0.47047  0.29238  1.0000
  S   S2        1.0  0.17671  0.43779  0.30585  1.0000
  H   H1        1.0  0.26032  0.34062  0.07352  1.0000
  Fe  Fe2       1.0  0.15105  0.43587  0.26853  1.0000
  S   S3        1.0  0.14300  0.40951  0.22792  1.0000
  Fe  Fe3       1.0  0.16055  0.44693  0.34994  1.0000
  S   S4        1.0  0.16376  0.43387  0.40431  1.0000
  H   H2        1.0  0.26963  0.38222  0.04083  1.0000
  C   C2        1.0  0.05809  0.35860  0.05833  1.0000
  S   S5        1.0  0.27654  0.43605  0.30153  1.0000
  C   C3        1.0  0.21294  0.43046  0.37190  1.0000
  C   C4        1.0  0.24597  0.45585  0.38392  1.0000
  H   H3        1.0  0.18522  0.43672  0.22547  1.0000
  S   S6        1.0  0.11201  0.40089  0.06535  1.0000
  H   H4        1.0  0.07573  0.33466  0.08751  1.0000
  H   H5        1.0  0.03888  0.32433  0.09270  1.0000
  H   H6        1.0  0.05604  0.34492  0.04158  1.0000
  C   C5        1.0  0.07768  0.34894  0.10225  1.0000
  H   H7        1.0  0.04283  0.33529  0.13696  1.0000
  H   H8        1.0  0.24600  0.34641  0.03869  1.0000
  H   H9        1.0  0.06521  0.37156  0.14648  1.0000
  N   N1        1.0  0.22420  0.44992  0.39045  1.0000
  H   H10       1.0  0.19645  0.42548  0.37632  1.0000
  H   H11       1.0  0.17463  0.42482  0.47418  1.0000
  H   H12       1.0  0.28742  0.47939  0.29296  1.0000
  C   C6        1.0  0.13464  0.40764  0.18264  1.0000
  C   C7        1.0  0.12734  0.42153  0.16771  1.0000
  C   C8        1.0  0.12075  0.41931  0.13172  1.0000
  C   C9        1.0  0.12151  0.40334  0.11005  1.0000
  C   C10       1.0  0.12905  0.38959  0.12484  1.0000
  C   C11       1.0  0.13544  0.39168  0.16096  1.0000
  H   H13       1.0  0.12651  0.43382  0.18402  1.0000
  H   H14       1.0  0.11490  0.43002  0.12065  1.0000
  H   H15       1.0  0.12983  0.37726  0.10861  1.0000
  H   H16       1.0  0.14104  0.38084  0.17222  1.0000
  C   C12       1.0  0.26259  0.45071  0.28964  1.0000
  C   C13       1.0  0.23802  0.47326  0.28060  1.0000
  C   C14       1.0  0.19310  0.43276  0.20291  1.0000
  H   H17       1.0  0.20700  0.43130  0.21400  1.0000
  C   C15       1.0  0.22955  0.45221  0.27968  1.0000
  C   C16       1.0  0.24177  0.44096  0.28431  1.0000
  S   S7        1.0  0.09947  0.34547  0.01717  1.0000
  H   H18       1.0  0.22862  0.46215  0.44393  1.0000
  H   H19       1.0  0.21354  0.44453  0.27610  1.0000
  H   H20       1.0  0.23502  0.42463  0.28482  1.0000
  H   H21       1.0  0.25165  0.44398  0.39233  1.0000
  C   C17       1.0  0.15865  0.44119  0.44757  1.0000
  C   C18       1.0  0.14714  0.45312  0.45269  1.0000
  H   H22       1.0  0.20047  0.42773  0.13453  1.0000
  H   H23       1.0  0.14133  0.45848  0.42984  1.0000
  H   H24       1.0  0.07702  0.38631  0.10913  1.0000
  H   H25       1.0  0.04492  0.36296  0.05293  1.0000
  H   H26       1.0  0.07169  0.37107  0.04883  1.0000
  C   C19       1.0  0.06325  0.37363  0.11751  1.0000
  H   H27       1.0  0.05034  0.37863  0.11404  1.0000
  H   H28       1.0  0.02821  0.34267  0.10459  1.0000
  C   C20       1.0  0.04169  0.33858  0.10827  1.0000
  H   H29       1.0  0.27475  0.39626  0.08215  1.0000
  N   N2        1.0  0.06017  0.35494  0.09659  1.0000
  H   H30       1.0  0.18298  0.41762  0.19256  1.0000
  H   H31       1.0  0.21788  0.41826  0.38124  1.0000
  H   H32       1.0  0.16928  0.45151  0.18079  1.0000
  H   H33       1.0  0.20422  0.44320  0.43466  1.0000
  H   H34       1.0  0.24081  0.35418  0.13575  1.0000
  Fe  Fe4       1.0  0.14976  0.47486  0.30035  1.0000
  H   H35       1.0  0.08013  0.34667  0.13096  1.0000
  H   H36       1.0  0.23796  0.38798  0.08879  1.0000
  H   H37       1.0  0.09178  0.36073  0.09282  1.0000
  C   C21       1.0  0.22057  0.44771  0.42909  1.0000
  H   H38       1.0  0.22374  0.44266  0.15712  1.0000
  H   H39       1.0  0.23316  0.37388  0.04751  1.0000
  H   H40       1.0  0.16955  0.43399  0.14641  1.0000
  S   S8        1.0  0.29009  0.35414  0.01172  1.0000
  H   H41       1.0  0.25503  0.47019  0.39824  1.0000
  C   C22       1.0  0.27132  0.47180  0.28877  1.0000
  H   H42       1.0  0.23373  0.33463  0.07831  1.0000
  N   N3        1.0  0.19776  0.44813  0.17495  1.0000
  C   C23       1.0  0.24785  0.34608  0.06817  1.0000
  H   H43       1.0  0.21511  0.43159  0.34268  1.0000
  Fe  Fe5       1.0  0.11024  0.37951  0.01811  1.0000
  C   C24       1.0  0.17876  0.44863  0.15973  1.0000
  H   H44       1.0  0.21418  0.48013  0.17030  1.0000
  C   C25       1.0  0.20996  0.46816  0.19065  1.0000
  H   H45       1.0  0.22075  0.36201  0.08697  1.0000
  S   S9        1.0  0.16525  0.46830  0.25285  1.0000
  H   H46       1.0  0.26738  0.36027  0.13045  1.0000
  H   H47       1.0  0.22575  0.48068  0.38959  1.0000
  H   H48       1.0  0.20102  0.46194  0.38215  1.0000
  H   H49       1.0  0.25803  0.38012  0.13706  1.0000
  H   H50       1.0  0.28391  0.37632  0.07571  1.0000
  H   H51       1.0  0.22557  0.43592  0.44022  1.0000
  C   C26       1.0  0.20919  0.44291  0.14655  1.0000
  H   H52       1.0  0.20160  0.47278  0.21161  1.0000
  C   C27       1.0  0.23523  0.37282  0.07679  1.0000
  N   N4        1.0  0.25211  0.36621  0.08476  1.0000
  C   C28       1.0  0.25463  0.36513  0.12374  1.0000
  S   S10       1.0  0.17565  0.47999  0.33870  1.0000
  H   H53       1.0  0.22412  0.46819  0.20350  1.0000
  C   C29       1.0  0.16592  0.43426  0.47773  1.0000
  C   C30       1.0  0.01506  0.29863  0.99961  1.0000
  H   H54       1.0  0.24920  0.45832  0.35514  1.0000
  H   H55       1.0  0.21916  0.46735  0.34768  1.0000
  C   C31       1.0  0.21726  0.46566  0.37692  1.0000
  H   H56       1.0  0.30796  0.43595  0.47699  1.0000
  H   H57       1.0  0.18160  0.46065  0.13965  1.0000
  H   H58       1.0  0.21271  0.45405  0.12476  1.0000
  H   H59       1.0  0.99331  0.27332  0.02640  1.0000
  H   H60       1.0  0.02780  0.29798  0.01467  1.0000
  C   C32       1.0  0.99533  0.28456  0.00623  1.0000
  C   C33       1.0  0.25899  0.48308  0.28421  1.0000
  C   C34       1.0  0.14260  0.45763  0.48749  1.0000
  Fe  Fe6       1.0  0.31038  0.44884  0.29869  1.0000
  H   H61       1.0  0.21503  0.38619  0.99087  1.0000
  H   H62       1.0  0.17759  0.37408  0.98985  1.0000
  C   C35       1.0  0.05882  0.35720  0.87957  1.0000
  C   C36       1.0  0.03888  0.37295  0.91018  1.0000
  N   N5        1.0  0.05127  0.37387  0.87857  1.0000
  C   C37       1.0  0.03888  0.37185  0.84583  1.0000
  H   H63       1.0  0.04777  0.37430  0.93534  1.0000
  H   H64       1.0  0.03285  0.38526  0.91043  1.0000
  H   H65       1.0  0.04623  0.34218  0.87991  1.0000
  C   C38       1.0  0.16183  0.43924  0.51255  1.0000
  H   H66       1.0  0.03286  0.38416  0.84424  1.0000
  C   C39       1.0  0.06851  0.39344  0.87872  1.0000
  H   H67       1.0  0.07821  0.39552  0.90307  1.0000
  H   H68       1.0  0.06344  0.40641  0.87783  1.0000
  H   H69       1.0  0.07835  0.39461  0.85544  1.0000
  H   H70       1.0  0.27262  0.43900  0.61376  1.0000
  C   C40       1.0  0.01828  0.31315  0.97315  1.0000
  H   H71       1.0  0.00319  0.32426  0.93326  1.0000
  H   H72       1.0  0.06832  0.35738  0.85625  1.0000
  H   H73       1.0  0.04784  0.37254  0.82150  1.0000
  H   H74       1.0  0.02578  0.35720  0.84480  1.0000
  H   H75       1.0  0.06811  0.35827  0.90403  1.0000
  H   H76       1.0  0.09033  0.36662  0.57072  1.0000
  C   C41       1.0  0.14992  0.45078  0.51764  1.0000
  H   H77       1.0  0.02587  0.35827  0.91109  1.0000
  H   H78       1.0  0.21210  0.32790  0.95403  1.0000
  C   C42       1.0  0.09159  0.37741  0.59318  1.0000
  H   H79       1.0  0.07613  0.37675  0.59902  1.0000
  H   H80       1.0  0.09569  0.39513  0.52928  1.0000
  S   S11       1.0  0.12155  0.40423  0.89102  1.0000
  H   H81       1.0  0.28427  0.41833  0.78759  1.0000
  H   H82       1.0  0.09725  0.37190  0.61711  1.0000
  S   S12       1.0  0.08821  0.37990  0.97486  1.0000
  C   C43       1.0  0.00120  0.31330  0.95386  1.0000
  Fe  Fe7       1.0  0.07806  0.34593  0.97209  1.0000
  H   H83       1.0  0.08182  0.40545  0.55810  1.0000
  C   C44       1.0  0.09698  0.40508  0.55304  1.0000
  H   H84       1.0  0.26576  0.45108  0.79465  1.0000
  Fe  Fe8       1.0  0.15587  0.45424  0.61596  1.0000
  S   S13       1.0  0.14633  0.33481  0.96782  1.0000
  C   C45       1.0  0.30672  0.45021  0.75096  1.0000
  H   H85       1.0  0.30418  0.38054  0.83426  1.0000
  H   H86       1.0  0.30649  0.43197  0.81358  1.0000
  H   H87       1.0  0.25962  0.42622  0.57406  1.0000
  H   H88       1.0  0.28644  0.43359  0.57835  1.0000
  Fe  Fe9       1.0  0.18986  0.45292  0.66447  1.0000
  C   C46       1.0  0.21634  0.35793  0.97248  1.0000
  H   H89       1.0  0.12498  0.38848  0.55306  1.0000
  H   H90       1.0  0.14020  0.34979  0.84643  1.0000
  H   H91       1.0  0.28026  0.47112  0.51651  1.0000
  C   C47       1.0  0.29187  0.43240  0.80382  1.0000
  N   N6        1.0  0.10510  0.39813  0.58451  1.0000
  H   H92       1.0  0.11613  0.42764  0.60914  1.0000
  C   C48       1.0  0.13355  0.42230  0.82679  1.0000
  C   C49       1.0  0.98148  0.29924  0.96051  1.0000
  C   C50       1.0  0.24098  0.45716  0.67312  1.0000
  C   C51       1.0  0.12281  0.40407  0.84366  1.0000
  S   S14       1.0  0.13492  0.38402  0.97879  1.0000
  C   C52       1.0  0.17834  0.36240  0.87316  1.0000
  S   S15       1.0  0.17523  0.45682  0.71522  1.0000
  H   H93       1.0  0.24928  0.43111  0.67542  1.0000
  C   C53       1.0  0.97828  0.28456  0.98668  1.0000
  H   H94       1.0  0.16754  0.43379  0.53538  1.0000
  C   C54       1.0  0.13486  0.42325  0.78938  1.0000
  H   H95       1.0  0.09149  0.41180  0.62257  1.0000
  H   H96       1.0  0.15849  0.39575  0.90500  1.0000
  S   S16       1.0  0.21577  0.44211  0.66302  1.0000
  H   H97       1.0  0.18412  0.39718  0.90774  1.0000
  H   H98       1.0  0.18456  0.39765  0.84088  1.0000
  S   S17       1.0  0.14248  0.45578  0.56074  1.0000
  C   C55       1.0  0.16817  0.38657  0.90502  1.0000
  C   C56       1.0  0.25467  0.44745  0.67656  1.0000
  H   H99       1.0  0.11319  0.40746  0.63932  1.0000
  S   S18       1.0  0.24335  0.36743  0.97450  1.0000
  C   C57       1.0  0.12535  0.39826  0.57663  1.0000
  C   C58       1.0  0.17333  0.34415  0.97074  1.0000
  Fe  Fe10      1.0  0.14696  0.43411  0.69098  1.0000
  S   S19       1.0  0.18482  0.47827  0.63566  1.0000
  C   C59       1.0  0.12518  0.40598  0.76813  1.0000
  H   H100      1.0  0.13601  0.41376  0.57069  1.0000
  N   N7        1.0  0.16473  0.37376  0.87246  1.0000
  C   C60       1.0  0.10652  0.41181  0.61525  1.0000
  Fe  Fe11      1.0  0.12346  0.35025  0.97506  1.0000
  Fe  Fe12      1.0  0.11192  0.38114  0.93536  1.0000
  C   C61       1.0  0.27793  0.45649  0.52937  1.0000
  H   H101      1.0  0.16457  0.37719  0.92925  1.0000
  H   H102      1.0  0.17627  0.35268  0.84885  1.0000
  C   C62       1.0  0.11336  0.38665  0.82253  1.0000
  H   H103      1.0  0.13187  0.39287  0.59962  1.0000
  C   C63       1.0  0.14359  0.35938  0.87110  1.0000
  H   H104      1.0  0.13294  0.36746  0.87179  1.0000
  C   C64       1.0  0.20471  0.33807  0.96171  1.0000
  H   H105      1.0  0.29092  0.45221  0.52222  1.0000
  H   H106      1.0  0.15877  0.39553  0.83974  1.0000
  H   H107      1.0  0.30862  0.47023  0.57652  1.0000
  H   H108      1.0  0.30118  0.38296  0.76848  1.0000
  S   S20       1.0  0.29754  0.39608  0.96942  1.0000
  H   H109      1.0  0.10697  0.42064  0.54571  1.0000
  C   C65       1.0  0.20627  0.37080  0.98245  1.0000
  H   H110      1.0  0.14025  0.34909  0.89423  1.0000
  C   C66       1.0  0.27532  0.45866  0.68037  1.0000
  C   C67       1.0  0.11444  0.38766  0.78498  1.0000
  H   H111      1.0  0.29893  0.43658  0.73378  1.0000
  H   H112      1.0  0.26665  0.43778  0.75404  1.0000
  H   H113      1.0  0.19445  0.37272  0.87500  1.0000
  H   H114      1.0  0.17544  0.35234  0.89656  1.0000
  C   C68       1.0  0.28260  0.47973  0.68063  1.0000
  H   H115      1.0  0.16599  0.37750  0.81561  1.0000
  S   S21       1.0  0.12567  0.40683  0.72069  1.0000
  H   H116      1.0  0.26041  0.47830  0.56502  1.0000
  C   C69       1.0  0.16872  0.38665  0.84078  1.0000
  H   H117      1.0  0.10688  0.37421  0.76881  1.0000
  H   H118      1.0  0.14306  0.43748  0.77693  1.0000
  S   S22       1.0  0.10111  0.34745  0.92987  1.0000
  H   H119      1.0  0.14087  0.43591  0.84275  1.0000
  S   S23       1.0  0.29118  0.35517  0.92431  1.0000
  S   S24       1.0  0.16191  0.42874  0.64153  1.0000
  H   H120      1.0  0.28553  0.45087  0.68302  1.0000
  H   H121      1.0  0.10500  0.37249  0.83496  1.0000
  S   S25       1.0  0.13802  0.45735  0.66324  1.0000
  Fe  Fe13      1.0  0.27437  0.36446  0.96782  1.0000
  N   N8        1.0  0.27643  0.45806  0.56843  1.0000
  C   C70       1.0  0.25905  0.46370  0.57703  1.0000
  C   C71       1.0  0.27524  0.45108  0.77141  1.0000
  H   H122      1.0  0.26412  0.44478  0.51746  1.0000
  S   S26       1.0  0.04306  0.33144  0.96322  1.0000
  H   H123      1.0  0.24455  0.45196  0.56756  1.0000
  H   H124      1.0  0.17466  0.31589  0.95240  1.0000
  C   C72       1.0  0.27363  0.43836  0.58431  1.0000
  H   H125      1.0  0.25791  0.46550  0.60628  1.0000
  C   C73       1.0  0.18341  0.33128  0.96085  1.0000
  H   H126      1.0  0.27711  0.46487  0.75592  1.0000
  C   C74       1.0  0.18497  0.36399  0.98173  1.0000
  H   H127      1.0  0.13328  0.46648  0.49102  1.0000
  C   C75       1.0  0.29512  0.47371  0.58304  1.0000
  Fe  Fe14      1.0  0.16736  0.47993  0.68434  1.0000
  N   N9        1.0  0.29496  0.45062  0.78273  1.0000
  H   H128      1.0  0.30942  0.46376  0.73444  1.0000
  Fe  Fe15      1.0  0.30910  0.34759  0.96867  1.0000
  H   H129      1.0  0.29481  0.47491  0.61251  1.0000
  H   H130      1.0  0.28258  0.43183  0.82759  1.0000
  C   C76       1.0  0.24800  0.47828  0.67486  1.0000
  H   H131      1.0  0.30887  0.48289  0.78920  1.0000
  H   H132      1.0  0.29774  0.46978  0.82885  1.0000
  C   C77       1.0  0.30614  0.46888  0.80457  1.0000
  Fe  Fe16      1.0  0.15861  0.62957  0.36047  1.0000
  S   S27       1.0  0.18972  0.62923  0.36322  1.0000
  S   S28       1.0  0.13626  0.62259  0.40530  1.0000
  Fe  Fe17      1.0  0.16213  0.64113  0.28083  1.0000
  S   S29       1.0  0.19393  0.64228  0.27816  1.0000
  S   S30       1.0  0.14341  0.64720  0.23582  1.0000
  Fe  Fe18      1.0  0.18235  0.61368  0.30948  1.0000
  S   S31       1.0  0.19365  0.58926  0.29296  1.0000
  Fe  Fe19      1.0  0.19852  0.65775  0.33191  1.0000
  S   S32       1.0  0.22515  0.68407  0.35389  1.0000
  S   S33       1.0  0.15027  0.61150  0.30902  1.0000
  S   S34       1.0  0.16766  0.65914  0.33242  1.0000
  H   H133      1.0  0.15381  0.69115  0.13489  1.0000
  Fe  Fe20      1.0  0.13074  0.64802  0.02255  1.0000
  S   S35       1.0  0.14693  0.63796  0.06708  1.0000
  S   S36       1.0  0.11623  0.67111  0.02619  1.0000
  C   C78       1.0  0.16592  0.70568  0.12778  1.0000
  H   H134      1.0  0.27884  0.72365  0.20450  1.0000
  H   H135      1.0  0.13152  0.69825  0.09082  1.0000
  C   C79       1.0  0.28371  0.71534  0.29474  1.0000
  C   C80       1.0  0.14558  0.64585  0.18891  1.0000
  C   C81       1.0  0.13137  0.64968  0.16686  1.0000
  C   C82       1.0  0.13176  0.64770  0.12948  1.0000
  C   C83       1.0  0.14630  0.64167  0.11379  1.0000
  C   C84       1.0  0.16064  0.63804  0.13581  1.0000
  C   C85       1.0  0.16042  0.64027  0.17315  1.0000
  H   H136      1.0  0.11976  0.65389  0.17881  1.0000
  H   H137      1.0  0.12051  0.65036  0.11291  1.0000
  H   H138      1.0  0.17199  0.63344  0.12384  1.0000
  H   H139      1.0  0.17162  0.63755  0.18968  1.0000
  C   C86       1.0  0.13795  0.61729  0.45093  1.0000
  H   H140      1.0  0.17426  0.68308  0.47276  1.0000
  C   C87       1.0  0.11993  0.61029  0.46957  1.0000
  H   H141      1.0  0.17020  0.62607  0.45530  1.0000
  H   H142      1.0  0.10579  0.60759  0.45556  1.0000
  C   C88       1.0  0.17702  0.56382  0.29506  1.0000
  C   C89       1.0  0.18437  0.54842  0.28842  1.0000
  C   C90       1.0  0.17147  0.52802  0.28960  1.0000
  C   C91       1.0  0.15104  0.52290  0.29686  1.0000
  C   C92       1.0  0.14364  0.53831  0.30313  1.0000
  C   C93       1.0  0.15663  0.55872  0.30261  1.0000
  H   H143      1.0  0.20011  0.55223  0.28255  1.0000
  H   H144      1.0  0.17729  0.51625  0.28466  1.0000
  H   H145      1.0  0.12789  0.53440  0.30908  1.0000
  H   H146      1.0  0.15087  0.57042  0.30834  1.0000
  C   C94       1.0  0.24714  0.69627  0.32978  1.0000
  C   C95       1.0  0.24962  0.68990  0.29535  1.0000
  H   H147      1.0  0.23736  0.67783  0.28225  1.0000
  N   N10       1.0  0.12977  0.58085  0.21297  1.0000
  C   C96       1.0  0.15090  0.59389  0.22156  1.0000
  C   C97       1.0  0.12257  0.58884  0.18170  1.0000
  C   C98       1.0  0.11701  0.58063  0.24374  1.0000
  C   C99       1.0  0.12863  0.56008  0.20500  1.0000
  H   H148      1.0  0.15704  0.58806  0.24449  1.0000
  H   H149      1.0  0.15220  0.60953  0.22872  1.0000
  H   H150      1.0  0.16088  0.59490  0.19860  1.0000
  H   H151      1.0  0.10686  0.57909  0.17376  1.0000
  H   H152      1.0  0.12262  0.60424  0.18746  1.0000
  H   H153      1.0  0.13226  0.59005  0.15821  1.0000
  H   H154      1.0  0.10093  0.57107  0.23810  1.0000
  H   H155      1.0  0.11767  0.59614  0.25064  1.0000
  H   H156      1.0  0.12191  0.57459  0.26784  1.0000
  H   H157      1.0  0.13804  0.55969  0.18185  1.0000
  H   H158      1.0  0.11288  0.54973  0.19867  1.0000
  H   H159      1.0  0.13408  0.55370  0.22814  1.0000
  H   H160      1.0  0.24332  0.63520  0.36151  1.0000
  C   C100      1.0  0.28094  0.72205  0.32865  1.0000
  H   H161      1.0  0.26564  0.49942  0.28468  1.0000
  H   H162      1.0  0.14276  0.72487  0.10077  1.0000
  H   H163      1.0  0.23778  0.59973  0.30870  1.0000
  H   H164      1.0  0.19534  0.72895  0.08483  1.0000
  H   H165      1.0  0.27815  0.64777  0.33955  1.0000
  H   H166      1.0  0.15181  0.66077  0.47498  1.0000
  H   H167      1.0  0.22850  0.62128  0.26656  1.0000
  C   C101      1.0  0.26801  0.69925  0.27802  1.0000
  H   H168      1.0  0.27120  0.66345  0.30949  1.0000
  H   H169      1.0  0.26322  0.60922  0.29329  1.0000
  C   C102      1.0  0.16531  0.69429  0.06685  1.0000
  H   H170      1.0  0.28260  0.64660  0.29266  1.0000
  N   N11       1.0  0.16393  0.71059  0.09013  1.0000
  H   H171      1.0  0.17980  0.69210  0.07096  1.0000
  H   H172      1.0  0.27003  0.69415  0.25162  1.0000
  H   H173      1.0  0.26089  0.71751  0.37273  1.0000
  H   H174      1.0  0.27864  0.72974  0.15822  1.0000
  H   H175      1.0  0.24275  0.64790  0.26608  1.0000
  H   H176      1.0  0.25832  0.61074  0.33994  1.0000
  H   H177      1.0  0.25377  0.63049  0.25042  1.0000
  S   S37       1.0  0.13450  0.49742  0.29774  1.0000
  H   H178      1.0  0.14201  0.71573  0.05582  1.0000
  C   C103      1.0  0.26279  0.71242  0.34621  1.0000
  N   N12       1.0  0.25161  0.63213  0.30741  1.0000
  C   C104      1.0  0.23777  0.63518  0.33368  1.0000
  C   C105      1.0  0.27180  0.64816  0.31245  1.0000
  C   C106      1.0  0.24386  0.63301  0.27100  1.0000
  C   C107      1.0  0.25286  0.61210  0.31256  1.0000
  H   H179      1.0  0.22263  0.62294  0.33127  1.0000
  H   H180      1.0  0.23578  0.64980  0.32993  1.0000
  S   S38       1.0  0.22245  0.48736  0.27914  1.0000
  H   H181      1.0  0.16488  0.71760  0.14621  1.0000
  H   H182      1.0  0.16416  0.69757  0.03818  1.0000
  H   H183      1.0  0.15301  0.67962  0.07211  1.0000
  C   C108      1.0  0.15619  0.62069  0.46950  1.0000
  H   H184      1.0  0.18057  0.70402  0.13318  1.0000
  H   H185      1.0  0.00729  0.57344  0.99074  1.0000
  H   H186      1.0  0.25708  0.72675  0.18510  1.0000
  C   C109      1.0  0.14419  0.71244  0.08420  1.0000
  C   C110      1.0  0.18022  0.72988  0.08159  1.0000
  C   C111      1.0  0.27384  0.73265  0.18513  1.0000
  S   S39       1.0  0.30670  0.72700  0.27312  1.0000
  H   H187      1.0  0.04230  0.59923  0.99227  1.0000
  H   H188      1.0  0.29293  0.73447  0.34171  1.0000
  H   H189      1.0  0.17881  0.73405  0.05348  1.0000
  Fe  Fe21      1.0  0.16027  0.62297  0.61305  1.0000
  S   S40       1.0  0.19276  0.62998  0.60247  1.0000
  S   S41       1.0  0.13630  0.60662  0.57162  1.0000
  Fe  Fe22      1.0  0.16858  0.64055  0.68999  1.0000
  S   S42       1.0  0.20192  0.64832  0.68460  1.0000
  S   S43       1.0  0.15993  0.65464  0.73882  1.0000
  Fe  Fe23      1.0  0.19797  0.65946  0.63061  1.0000
  S   S44       1.0  0.21706  0.68992  0.60989  1.0000
  Fe  Fe24      1.0  0.19327  0.61795  0.65728  1.0000
  S   S45       1.0  0.21028  0.59715  0.66399  1.0000
  S   S46       1.0  0.16518  0.65348  0.63699  1.0000
  S   S47       1.0  0.16019  0.60905  0.66673  1.0000
  S   S48       1.0  0.16322  0.50699  0.70994  1.0000
  H   H190      1.0  0.27493  0.68366  0.67233  1.0000
  H   H191      1.0  0.13452  0.68166  0.50320  1.0000
  H   H192      1.0  0.09327  0.64450  0.87155  1.0000
  C   C112      1.0  0.04715  0.60717  0.85898  1.0000
  C   C113      1.0  0.99637  0.61514  0.97691  1.0000
  Fe  Fe25      1.0  0.12545  0.64486  0.94067  1.0000
  S   S49       1.0  0.12520  0.62498  0.89225  1.0000
  S   S50       1.0  0.11166  0.66852  0.94003  1.0000
  C   C114      1.0  0.26849  0.69395  0.66142  1.0000
  H   H193      1.0  0.98373  0.61979  0.97291  1.0000
  H   H194      1.0  0.20497  0.59324  0.75141  1.0000
  C   C115      1.0  0.14997  0.64588  0.78107  1.0000
  C   C116      1.0  0.14039  0.62533  0.78807  1.0000
  C   C117      1.0  0.13295  0.61918  0.82231  1.0000
  C   C118      1.0  0.13489  0.63349  0.84974  1.0000
  C   C119      1.0  0.14427  0.65402  0.84260  1.0000
  C   C120      1.0  0.15173  0.66014  0.80842  1.0000
  H   H195      1.0  0.13837  0.61426  0.76696  1.0000
  H   H196      1.0  0.12547  0.60327  0.82752  1.0000
  H   H197      1.0  0.14580  0.66519  0.86340  1.0000
  H   H198      1.0  0.15897  0.67609  0.80318  1.0000
  C   C121      1.0  0.17603  0.53164  0.69504  1.0000
  C   C122      1.0  0.19398  0.53681  0.67638  1.0000
  C   C123      1.0  0.20441  0.55699  0.66688  1.0000
  C   C124      1.0  0.19667  0.57191  0.67519  1.0000
  C   C125      1.0  0.17844  0.56661  0.69293  1.0000
  C   C126      1.0  0.16829  0.54659  0.70323  1.0000
  H   H199      1.0  0.20010  0.52538  0.67022  1.0000
  H   H200      1.0  0.21856  0.56104  0.65323  1.0000
  H   H201      1.0  0.17239  0.57798  0.69949  1.0000
  H   H202      1.0  0.15441  0.54261  0.71772  1.0000
  C   C127      1.0  0.24083  0.69947  0.63117  1.0000
  C   C128      1.0  0.24907  0.68631  0.64599  1.0000
  H   H203      1.0  0.24068  0.67018  0.64483  1.0000
  N   N13       1.0  0.15036  0.55525  0.58794  1.0000
  C   C129      1.0  0.13792  0.61064  0.52511  1.0000
  H   H204      1.0  0.30779  0.73024  0.60353  1.0000
  H   H205      1.0  0.14768  0.54961  0.53127  1.0000
  Fe  Fe26      1.0  0.13638  0.68584  0.98021  1.0000
  N   N14       1.0  0.16082  0.67765  0.52450  1.0000
  H   H206      1.0  0.22074  0.61904  0.76155  1.0000
  H   H207      1.0  0.19710  0.58717  0.81549  1.0000
  N   N15       1.0  0.19117  0.60941  0.78412  1.0000
  C   C130      1.0  0.19749  0.60290  0.81789  1.0000
  C   C131      1.0  0.19178  0.63027  0.78855  1.0000
  C   C132      1.0  0.17041  0.59572  0.77444  1.0000
  C   C133      1.0  0.20494  0.60873  0.75555  1.0000
  H   H208      1.0  0.18741  0.60333  0.84002  1.0000
  H   H209      1.0  0.21312  0.61287  0.82593  1.0000
  H   H210      1.0  0.18701  0.63565  0.76359  1.0000
  H   H211      1.0  0.18152  0.63140  0.80986  1.0000
  H   H212      1.0  0.20721  0.64109  0.79567  1.0000
  H   H213      1.0  0.16500  0.60050  0.74948  1.0000
  H   H214      1.0  0.15966  0.59557  0.79574  1.0000
  H   H215      1.0  0.16947  0.57990  0.77013  1.0000
  H   H216      1.0  0.20043  0.61335  0.72965  1.0000
  C   C134      1.0  0.15591  0.53766  0.59557  1.0000
  H   H217      1.0  0.04188  0.63305  0.90703  1.0000
  C   C135      1.0  0.14897  0.66022  0.54606  1.0000
  H   H218      1.0  0.27365  0.71225  0.57727  1.0000
  S   S51       1.0  0.15532  0.72036  0.98275  1.0000
  H   H219      1.0  0.12385  0.54466  0.61990  1.0000
  C   C136      1.0  0.25190  0.72033  0.63244  1.0000
  H   H220      1.0  0.29749  0.48888  0.57242  1.0000
  C   C137      1.0  0.15620  0.61759  0.50677  1.0000
  H   H221      1.0  0.17668  0.69493  0.57062  1.0000
  H   H222      1.0  0.15782  0.65075  0.55280  1.0000
  H   H223      1.0  0.14234  0.52358  0.59814  1.0000
  C   C138      1.0  0.16885  0.57352  0.58519  1.0000
  S   S52       1.0  0.30431  0.72360  0.68018  1.0000
  H   H224      1.0  0.13428  0.56476  0.54761  1.0000
  S   S53       1.0  0.05826  0.64400  0.98308  1.0000
  H   H225      1.0  0.18897  0.70310  0.52898  1.0000
  C   C139      1.0  0.11989  0.60673  0.50611  1.0000
  C   C140      1.0  0.17970  0.68961  0.54405  1.0000
  C   C141      1.0  0.27970  0.71474  0.66221  1.0000
  H   H226      1.0  0.06680  0.65171  0.90545  1.0000
  H   H227      1.0  0.12467  0.53803  0.55496  1.0000
  C   C142      1.0  0.13794  0.55816  0.61707  1.0000
  H   H228      1.0  0.04248  0.61297  0.83440  1.0000
  C   C143      1.0  0.06873  0.61502  0.91140  1.0000
  H   H229      1.0  0.03344  0.60024  0.87528  1.0000
  H   H230      1.0  0.08718  0.62087  0.84844  1.0000
  H   H231      1.0  0.27434  0.50590  0.67912  1.0000
  H   H232      1.0  0.05243  0.59491  0.85093  1.0000
  H   H233      1.0  0.07997  0.62709  0.92793  1.0000
  C   C144      1.0  0.26885  0.48956  0.67868  1.0000
  C   C145      1.0  0.08091  0.63237  0.85680  1.0000
  H   H234      1.0  0.14625  0.56092  0.64309  1.0000
  C   C146      1.0  0.05528  0.63925  0.88978  1.0000
  H   H235      1.0  0.16524  0.53492  0.57411  1.0000
  H   H236      1.0  0.17781  0.57694  0.61055  1.0000
  H   H237      1.0  0.18915  0.68047  0.54900  1.0000
  H   H238      1.0  0.17877  0.57177  0.56389  1.0000
  H   H239      1.0  0.05552  0.60765  0.92850  1.0000
  H   H240      1.0  0.17025  0.62048  0.52114  1.0000
  C   C147      1.0  0.27127  0.72798  0.64824  1.0000
  H   H241      1.0  0.07555  0.60373  0.90463  1.0000
  H   H242      1.0  0.16479  0.53994  0.62097  1.0000
  H   H243      1.0  0.07731  0.63908  0.83233  1.0000
  H   H244      1.0  0.05078  0.64603  0.86625  1.0000
  H   H245      1.0  0.16519  0.58700  0.57886  1.0000
  S   S54       1.0  0.15115  0.66303  0.97755  1.0000
  N   N16       1.0  0.06302  0.62346  0.87919  1.0000
  C   C148      1.0  0.13874  0.55172  0.55395  1.0000
  H   H246      1.0  0.10570  0.60128  0.51984  1.0000
  H   H247      1.0  0.19906  0.72606  0.97471  1.0000
  H   H248      1.0  0.24545  0.73055  0.62128  1.0000
  H   H249      1.0  0.17507  0.66107  0.49416  1.0000
  C   C149      1.0  0.03325  0.62442  0.98310  1.0000
  H   H250      1.0  0.13349  0.57133  0.61221  1.0000
  Fe  Fe27      1.0  0.09294  0.65130  0.98576  1.0000
  H   H251      1.0  0.14441  0.66512  0.57169  1.0000
  C   C150      1.0  0.01632  0.62979  0.97762  1.0000
  H   H252      1.0  0.01861  0.64552  0.97410  1.0000
  C   C151      1.0  0.99274  0.59459  0.98161  1.0000
  H   H253      1.0  0.14499  0.69617  0.54319  1.0000
  S   S55       1.0  0.10647  0.62742  0.98549  1.0000
  C   C152      1.0  0.28018  0.71464  0.55024  1.0000
  H   H254      1.0  0.28310  0.70081  0.54291  1.0000
  H   H255      1.0  0.26844  0.71572  0.53148  1.0000
  H   H256      1.0  0.23748  0.48588  0.67218  1.0000
  H   H257      1.0  0.15734  0.70363  0.50145  1.0000
  C   C153      1.0  0.16570  0.67035  0.49012  1.0000
  H   H258      1.0  0.13497  0.65032  0.53165  1.0000
  H   H259      1.0  0.27371  0.72893  0.73541  1.0000
  S   S56       1.0  0.30877  0.49381  0.68183  1.0000
  N   N17       1.0  0.29881  0.73292  0.54951  1.0000
  H   H260      1.0  0.28262  0.72835  0.78027  1.0000
  C   C154      1.0  0.14890  0.69036  0.51781  1.0000
  C   C155      1.0  0.30748  0.73495  0.51360  1.0000
  C   C156      1.0  0.00969  0.58916  0.98688  1.0000
  C   C157      1.0  0.02968  0.60385  0.98768  1.0000
  H   H261      1.0  0.30713  0.80510  0.47869  1.0000
  N   N18       1.0  0.28249  0.75439  0.19484  1.0000
  H   H262      1.0  0.28176  0.78238  0.17604  1.0000
  H   H263      1.0  0.29098  0.82452  0.17589  1.0000
  C   C158      1.0  0.30730  0.82569  0.12744  1.0000
  S   S57       1.0  0.28677  0.84580  0.02241  1.0000
  H   H264      1.0  0.25909  0.76091  0.16722  1.0000
  H   H265      1.0  0.28200  0.77378  0.23890  1.0000
  C   C159      1.0  0.27566  0.75752  0.23063  1.0000
  H   H266      1.0  0.29646  0.82892  0.11074  1.0000
  S   S58       1.0  0.30565  0.77736  0.30678  1.0000
  H   H267      1.0  0.28046  0.74897  0.25109  1.0000
  C   C160      1.0  0.30421  0.82312  0.16437  1.0000
  H   H268      1.0  0.30675  0.88987  0.05163  1.0000
  H   H269      1.0  0.17980  0.74254  0.09879  1.0000
  H   H270      1.0  0.25897  0.75243  0.23153  1.0000
  C   C161      1.0  0.30472  0.76140  0.19507  1.0000
  H   H271      1.0  0.28121  0.76460  0.14146  1.0000
  C   C162      1.0  0.27580  0.76601  0.16866  1.0000
  H   H272      1.0  0.30694  0.86552  0.09824  1.0000
  H   H273      1.0  0.19438  0.79335  0.99028  1.0000
  H   H274      1.0  0.31029  0.75265  0.21391  1.0000
  H   H275      1.0  0.16357  0.76255  0.98936  1.0000
  H   H276      1.0  0.29975  0.74219  0.74703  1.0000
  H   H277      1.0  0.25563  0.76390  0.78678  1.0000
  H   H278      1.0  0.28665  0.74951  0.58438  1.0000
  C   C163      1.0  0.29408  0.75094  0.55822  1.0000
  Fe  Fe28      1.0  0.30329  0.86590  0.97737  1.0000
  Fe  Fe29      1.0  0.27045  0.82143  0.98068  1.0000
  S   S59       1.0  0.28432  0.84298  0.93571  1.0000
  H   H279      1.0  0.29398  0.75970  0.81815  1.0000
  H   H280      1.0  0.30800  0.76482  0.55982  1.0000
  C   C164      1.0  0.29462  0.76847  0.79361  1.0000
  H   H281      1.0  0.29179  0.78226  0.80154  1.0000
  H   H282      1.0  0.29696  0.83029  0.84136  1.0000
  C   C165      1.0  0.30779  0.82628  0.82638  1.0000
  H   H283      1.0  0.27963  0.74406  0.64954  1.0000
  H   H284      1.0  0.30769  0.87857  0.85371  1.0000
  H   H285      1.0  0.25746  0.74134  0.80434  1.0000
  N   N19       1.0  0.27992  0.75641  0.76607  1.0000
  C   C166      1.0  0.21587  0.75859  0.97864  1.0000
  H   H286      1.0  0.28385  0.75343  0.53779  1.0000
  H   H287      1.0  0.29705  0.73697  0.49299  1.0000
  C   C167      1.0  0.28413  0.73816  0.75686  1.0000
  S   S60       1.0  0.23636  0.80147  0.98391  1.0000
  H   H288      1.0  0.27068  0.76009  0.71261  1.0000
  S   S61       1.0  0.29436  0.80788  0.98045  1.0000
  C   C168      1.0  0.21481  0.77788  0.98297  1.0000
  H   H289      1.0  0.29459  0.82830  0.77505  1.0000
  C   C169      1.0  0.17883  0.74191  0.98185  1.0000
  C   C170      1.0  0.25929  0.75042  0.77985  1.0000
  H   H290      1.0  0.23043  0.75746  0.97549  1.0000
  C   C171      1.0  0.19800  0.74071  0.97817  1.0000
  Fe  Fe30      1.0  0.30882  0.83033  0.93764  1.0000
  H   H291      1.0  0.27909  0.78280  0.73994  1.0000
  C   C172      1.0  0.30644  0.82508  0.78876  1.0000
  H   H292      1.0  0.29697  0.77319  0.72255  1.0000
  H   H293      1.0  0.24783  0.74117  0.75978  1.0000
  C   C173      1.0  0.28167  0.76861  0.73389  1.0000
  H   H294      1.0  0.31033  0.77354  0.78383  1.0000
  C   C174      1.0  0.19566  0.77878  0.98695  1.0000
  C   C175      1.0  0.17804  0.76116  0.98639  1.0000
  H   H295      1.0  0.31005  0.88150  0.90132  1.0000
  C   C176      1.0  0.51621  0.22919  0.30969  1.0000
  Fe  Fe31      1.0  0.49251  0.14211  0.30545  1.0000
  S   S62       1.0  0.47160  0.11128  0.32153  1.0000
  S   S63       1.0  0.48515  0.16942  0.31811  1.0000
  Fe  Fe32      1.0  0.52442  0.12697  0.27994  1.0000
  S   S64       1.0  0.50629  0.09511  0.29440  1.0000
  S   S65       1.0  0.55461  0.13663  0.25345  1.0000
  Fe  Fe33      1.0  0.48022  0.10096  0.26906  1.0000
  S   S66       1.0  0.45817  0.07718  0.23158  1.0000
  Fe  Fe34      1.0  0.49953  0.10852  0.34523  1.0000
  S   S67       1.0  0.50610  0.09822  0.39961  1.0000
  S   S68       1.0  0.49893  0.13221  0.25161  1.0000
  S   S69       1.0  0.51983  0.14004  0.33205  1.0000
  Fe  Fe35      1.0  0.42800  0.06245  0.01758  1.0000
  S   S70       1.0  0.39404  0.04933  0.01740  1.0000
  S   S71       1.0  0.44999  0.08033  0.06218  1.0000
  C   C177      1.0  0.48151  0.20804  0.18801  1.0000
  C   C178      1.0  0.46682  0.10285  0.47430  1.0000
  H   H296      1.0  0.53744  0.11566  0.17927  1.0000
  H   H297      1.0  0.53420  0.08956  0.24325  1.0000
  H   H298      1.0  0.48502  0.21131  0.15943  1.0000
  H   H299      1.0  0.59931  0.20884  0.27712  1.0000
  C   C179      1.0  0.45534  0.07877  0.18470  1.0000
  C   C180      1.0  0.44049  0.06275  0.16595  1.0000
  C   C181      1.0  0.43833  0.06304  0.12853  1.0000
  C   C182      1.0  0.45125  0.07927  0.10940  1.0000
  C   C183      1.0  0.46599  0.09535  0.12821  1.0000
  C   C184      1.0  0.46792  0.09521  0.16563  1.0000
  H   H300      1.0  0.43067  0.04995  0.18045  1.0000
  H   H301      1.0  0.42695  0.05054  0.11448  1.0000
  H   H302      1.0  0.47600  0.10801  0.11367  1.0000
  H   H303      1.0  0.47920  0.10775  0.17970  1.0000
  C   C185      1.0  0.49437  0.09980  0.44032  1.0000
  C   C186      1.0  0.52633  0.23059  0.27771  1.0000
  C   C187      1.0  0.47600  0.10258  0.44136  1.0000
  C   C188      1.0  0.61863  0.06983  0.38708  1.0000
  H   H304      1.0  0.46863  0.10401  0.41673  1.0000
  C   C189      1.0  0.60130  0.11570  0.30675  1.0000
  C   C190      1.0  0.58138  0.10871  0.31854  1.0000
  C   C191      1.0  0.56709  0.11535  0.30272  1.0000
  C   C192      1.0  0.57255  0.12876  0.27451  1.0000
  C   C193      1.0  0.59247  0.13583  0.26270  1.0000
  C   C194      1.0  0.60689  0.12943  0.27897  1.0000
  H   H305      1.0  0.57696  0.09811  0.34005  1.0000
  H   H306      1.0  0.55182  0.10992  0.31223  1.0000
  H   H307      1.0  0.59679  0.14620  0.24084  1.0000
  H   H308      1.0  0.62221  0.13483  0.26966  1.0000
  H   H309      1.0  0.55354  0.09567  0.21105  1.0000
  C   C195      1.0  0.52467  0.21294  0.25878  1.0000
  C   C196      1.0  0.51253  0.19392  0.27152  1.0000
  C   C197      1.0  0.50184  0.19264  0.30294  1.0000
  C   C198      1.0  0.50378  0.21028  0.32200  1.0000
  S   S72       1.0  0.61842  0.10634  0.32684  1.0000
  C   C199      1.0  0.57597  0.17777  0.31593  1.0000
  H   H310      1.0  0.51087  0.18031  0.25652  1.0000
  H   H311      1.0  0.49556  0.20936  0.34633  1.0000
  H   H312      1.0  0.61444  0.10420  0.40629  1.0000
  C   C200      1.0  0.58860  0.21206  0.29520  1.0000
  H   H313      1.0  0.60628  0.05578  0.45218  1.0000
  H   H314      1.0  0.59469  0.07323  0.43940  1.0000
  H   H315      1.0  0.63258  0.11100  0.44258  1.0000
  C   C201      1.0  0.47042  0.21849  0.24263  1.0000
  H   H316      1.0  0.45978  0.22840  0.15804  1.0000
  H   H317      1.0  0.64043  0.10948  0.39773  1.0000
  H   H318      1.0  0.48403  0.21889  0.25783  1.0000
  H   H319      1.0  0.61358  0.08000  0.47441  1.0000
  C   C202      1.0  0.55644  0.19884  0.32399  1.0000
  C   C203      1.0  0.60917  0.07204  0.44806  1.0000
  H   H320      1.0  0.45243  0.10463  0.47475  1.0000
  H   H321      1.0  0.53935  0.06964  0.22099  1.0000
  C   C204      1.0  0.62825  0.10231  0.41697  1.0000
  N   N20       1.0  0.41041  0.11283  0.07328  1.0000
  C   C205      1.0  0.39926  0.09078  0.07442  1.0000
  C   C206      1.0  0.39591  0.12312  0.07028  1.0000
  C   C207      1.0  0.42360  0.11760  0.04208  1.0000
  C   C208      1.0  0.42287  0.11973  0.10615  1.0000
  H   H322      1.0  0.38941  0.08651  0.09797  1.0000
  H   H323      1.0  0.40976  0.08250  0.07584  1.0000
  H   H324      1.0  0.38944  0.08515  0.05020  1.0000
  H   H325      1.0  0.40373  0.13979  0.06837  1.0000
  H   H326      1.0  0.38611  0.11789  0.04594  1.0000
  H   H327      1.0  0.38582  0.12007  0.09355  1.0000
  H   H328      1.0  0.43148  0.13417  0.03911  1.0000
  H   H329      1.0  0.41479  0.11151  0.01711  1.0000
  H   H330      1.0  0.43531  0.11084  0.04411  1.0000
  H   H331      1.0  0.43163  0.13629  0.10604  1.0000
  H   H332      1.0  0.43385  0.11205  0.10900  1.0000
  H   H333      1.0  0.41343  0.11632  0.13031  1.0000
  N   N21       1.0  0.52331  0.08383  0.18892  1.0000
  C   C209      1.0  0.52940  0.07746  0.15479  1.0000
  C   C210      1.0  0.50322  0.06924  0.19841  1.0000
  C   C211      1.0  0.52239  0.10407  0.18517  1.0000
  C   C212      1.0  0.53823  0.08464  0.21720  1.0000
  H   H334      1.0  0.54445  0.08823  0.14673  1.0000
  H   H335      1.0  0.51840  0.07667  0.13291  1.0000
  H   H336      1.0  0.53030  0.06225  0.15666  1.0000
  H   H337      1.0  0.49157  0.06829  0.17767  1.0000
  H   H338      1.0  0.50327  0.05378  0.20172  1.0000
  H   H339      1.0  0.49799  0.07365  0.22384  1.0000
  H   H340      1.0  0.51734  0.10906  0.21020  1.0000
  H   H341      1.0  0.51168  0.10420  0.16346  1.0000
  H   H342      1.0  0.58483  0.22451  0.28337  1.0000
  H   H343      1.0  0.56331  0.20368  0.35097  1.0000
  N   N22       1.0  0.47497  0.22338  0.20481  1.0000
  H   H344      1.0  0.53232  0.21406  0.23378  1.0000
  H   H345      1.0  0.49534  0.20765  0.20153  1.0000
  H   H346      1.0  0.51772  0.09541  0.47205  1.0000
  H   H347      1.0  0.54209  0.18567  0.32723  1.0000
  H   H348      1.0  0.56980  0.18187  0.24702  1.0000
  H   H349      1.0  0.44433  0.20847  0.18600  1.0000
  C   C213      1.0  0.45669  0.22359  0.18617  1.0000
  H   H350      1.0  0.58633  0.17357  0.29847  1.0000
  C   C214      1.0  0.56017  0.18672  0.26516  1.0000
  N   N23       1.0  0.62500  0.08079  0.42157  1.0000
  H   H351      1.0  0.46493  0.22952  0.25583  1.0000
  H   H352      1.0  0.61596  0.05351  0.38939  1.0000
  H   H353      1.0  0.45864  0.20318  0.24557  1.0000
  H   H354      1.0  0.55654  0.19875  0.25166  1.0000
  H   H355      1.0  0.55238  0.21137  0.31335  1.0000
  N   N24       1.0  0.57029  0.19384  0.30011  1.0000
  C   C215      1.0  0.50360  0.09772  0.47259  1.0000
  H   H356      1.0  0.54582  0.17350  0.26801  1.0000
  H   H357      1.0  0.46968  0.19264  0.18955  1.0000
  H   H358      1.0  0.59668  0.21783  0.32102  1.0000
  H   H359      1.0  0.60451  0.07111  0.37649  1.0000
  H   H360      1.0  0.58360  0.18250  0.34239  1.0000
  H   H361      1.0  0.56254  0.16373  0.31962  1.0000
  H   H362      1.0  0.45089  0.23434  0.19946  1.0000
  H   H363      1.0  0.51829  0.16424  0.47700  1.0000
  H   H364      1.0  0.63026  0.07614  0.36651  1.0000
  H   H365      1.0  0.64225  0.06301  0.43739  1.0000
  H   H366      1.0  0.49583  0.14209  0.47794  1.0000
  H   H367      1.0  0.49447  0.16541  0.46353  1.0000
  C   C216      1.0  0.50197  0.15872  0.48305  1.0000
  S   S73       1.0  0.61578  0.12895  0.71923  1.0000
  Fe  Fe36      1.0  0.47886  0.10342  0.60230  1.0000
  S   S74       1.0  0.51213  0.11910  0.61172  1.0000
  S   S75       1.0  0.46436  0.10204  0.54741  1.0000
  Fe  Fe37      1.0  0.47092  0.09555  0.68318  1.0000
  S   S76       1.0  0.50370  0.11134  0.69777  1.0000
  S   S77       1.0  0.44631  0.07853  0.72211  1.0000
  Fe  Fe38      1.0  0.50339  0.13430  0.65765  1.0000
  S   S78       1.0  0.52163  0.16735  0.66717  1.0000
  Fe  Fe39      1.0  0.50908  0.09458  0.65055  1.0000
  S   S79       1.0  0.53010  0.07767  0.65181  1.0000
  S   S80       1.0  0.47009  0.12007  0.64658  1.0000
  S   S81       1.0  0.47638  0.07742  0.63755  1.0000
  S   S82       1.0  0.42946  0.08415  0.97399  1.0000
  C   C217      1.0  0.36649  0.12426  0.97414  1.0000
  Fe  Fe40      1.0  0.42854  0.06006  0.93434  1.0000
  S   S83       1.0  0.39467  0.04694  0.92971  1.0000
  S   S84       1.0  0.45203  0.07244  0.89120  1.0000
  H   H368      1.0  0.50600  0.15730  0.57326  1.0000
  Fe  Fe41      1.0  0.39582  0.02661  0.97547  1.0000
  H   H369      1.0  0.52461  0.15869  0.54061  1.0000
  H   H370      1.0  0.47355  0.15875  0.55490  1.0000
  H   H371      1.0  0.52404  0.19185  0.52165  1.0000
  C   C218      1.0  0.38653  0.16050  0.97281  1.0000
  H   H372      1.0  0.46242  0.02030  0.75974  1.0000
  H   H373      1.0  0.48554  0.07449  0.73661  1.0000
  H   H374      1.0  0.46869  0.02376  0.69419  1.0000
  Fe  Fe42      1.0  0.40493  0.21979  0.97076  1.0000
  C   C219      1.0  0.50815  0.15382  0.54497  1.0000
  H   H375      1.0  0.55327  0.14458  0.68488  1.0000
  H   H376      1.0  0.46930  0.13993  0.52053  1.0000
  C   C220      1.0  0.44782  0.07802  0.76936  1.0000
  C   C221      1.0  0.46543  0.08922  0.78861  1.0000
  C   C222      1.0  0.46635  0.08736  0.82586  1.0000
  C   C223      1.0  0.44962  0.07460  0.84445  1.0000
  C   C224      1.0  0.43186  0.06370  0.82534  1.0000
  C   C225      1.0  0.43102  0.06536  0.78798  1.0000
  H   H377      1.0  0.47839  0.09927  0.77484  1.0000
  H   H378      1.0  0.48014  0.09591  0.84043  1.0000
  H   H379      1.0  0.41892  0.05368  0.83923  1.0000
  H   H380      1.0  0.41733  0.05659  0.77334  1.0000
  H   H381      1.0  0.50851  0.07302  0.72054  1.0000
  C   C226      1.0  0.40394  0.15582  0.96907  1.0000
  H   H382      1.0  0.46500  0.04731  0.69585  1.0000
  H   H383      1.0  0.50187  0.09664  0.53008  1.0000
  C   C227      1.0  0.50753  0.18582  0.52621  1.0000
  C   C228      1.0  0.59211  0.11319  0.70181  1.0000
  C   C229      1.0  0.57476  0.11465  0.71644  1.0000
  C   C230      1.0  0.55572  0.10400  0.70090  1.0000
  C   C231      1.0  0.55388  0.09128  0.67131  1.0000
  C   C232      1.0  0.57116  0.08927  0.65734  1.0000
  C   C233      1.0  0.59031  0.10046  0.67223  1.0000
  H   H384      1.0  0.57611  0.12428  0.73963  1.0000
  H   H385      1.0  0.54248  0.10538  0.71221  1.0000
  H   H386      1.0  0.56978  0.07937  0.63453  1.0000
  H   H387      1.0  0.60364  0.09931  0.66071  1.0000
  C   C234      1.0  0.49454  0.21100  0.62167  1.0000
  C   C235      1.0  0.51245  0.21836  0.64193  1.0000
  C   C236      1.0  0.52064  0.20484  0.65603  1.0000
  C   C237      1.0  0.51084  0.18398  0.65015  1.0000
  C   C238      1.0  0.49286  0.17669  0.63010  1.0000
  C   C239      1.0  0.48474  0.19017  0.61587  1.0000
  C   C240      1.0  0.43968  0.23375  0.55544  1.0000
  H   H388      1.0  0.53451  0.21058  0.67164  1.0000
  H   H389      1.0  0.48516  0.16068  0.62556  1.0000
  H   H390      1.0  0.47074  0.18445  0.60061  1.0000
  N   N25       1.0  0.41166  0.11176  0.86365  1.0000
  C   C241      1.0  0.42048  0.10249  0.89076  1.0000
  C   C242      1.0  0.41597  0.10585  0.82771  1.0000
  C   C243      1.0  0.42055  0.13400  0.86803  1.0000
  C   C244      1.0  0.38961  0.10468  0.86828  1.0000
  H   H391      1.0  0.41696  0.10613  0.91816  1.0000
  H   H392      1.0  0.43718  0.10776  0.88879  1.0000
  H   H393      1.0  0.41455  0.08573  0.88763  1.0000
  H   H394      1.0  0.41015  0.11309  0.80646  1.0000
  H   H395      1.0  0.43248  0.11020  0.82388  1.0000
  H   H396      1.0  0.40889  0.08921  0.82317  1.0000
  H   H397      1.0  0.41420  0.14153  0.84804  1.0000
  H   H398      1.0  0.43720  0.13986  0.86484  1.0000
  H   H399      1.0  0.41754  0.13896  0.89488  1.0000
  H   H400      1.0  0.38585  0.10916  0.89499  1.0000
  H   H401      1.0  0.38246  0.08791  0.86614  1.0000
  H   H402      1.0  0.38232  0.11110  0.84796  1.0000
  N   N26       1.0  0.57914  0.16573  0.65936  1.0000
  C   C245      1.0  0.56662  0.15858  0.69106  1.0000
  C   C246      1.0  0.59671  0.18417  0.66905  1.0000
  C   C247      1.0  0.56702  0.17030  0.63100  1.0000
  C   C248      1.0  0.58623  0.14988  0.64644  1.0000
  H   H403      1.0  0.56073  0.17006  0.70116  1.0000
  H   H404      1.0  0.57535  0.15523  0.71317  1.0000
  H   H405      1.0  0.60615  0.18114  0.69045  1.0000
  H   H406      1.0  0.60654  0.18998  0.64581  1.0000
  H   H407      1.0  0.59190  0.19642  0.67906  1.0000
  H   H408      1.0  0.55332  0.15681  0.62398  1.0000
  H   H409      1.0  0.57580  0.17534  0.60638  1.0000
  H   H410      1.0  0.57344  0.13526  0.64119  1.0000
  H   H411      1.0  0.59480  0.15424  0.62143  1.0000
  N   N27       1.0  0.49859  0.16370  0.52019  1.0000
  H   H412      1.0  0.49376  0.01829  0.73486  1.0000
  H   H413      1.0  0.51292  0.04066  0.71836  1.0000
  H   H414      1.0  0.50853  0.03813  0.76539  1.0000
  H   H415      1.0  0.47691  0.04054  0.78985  1.0000
  C   C249      1.0  0.49632  0.06673  0.74017  1.0000
  N   N28       1.0  0.48602  0.04468  0.73514  1.0000
  H   H416      1.0  0.48784  0.04625  0.67805  1.0000
  C   C250      1.0  0.50095  0.03496  0.73865  1.0000
  H   H417      1.0  0.45876  0.04385  0.75976  1.0000
  H   H418      1.0  0.56175  0.18249  0.63971  1.0000
  H   H419      1.0  0.59651  0.14707  0.66634  1.0000
  C   C251      1.0  0.47647  0.04027  0.69923  1.0000
  H   H420      1.0  0.41595  0.13195  0.96508  1.0000
  H   H421      1.0  0.50152  0.13711  0.54149  1.0000
  C   C252      1.0  0.47608  0.10076  0.50653  1.0000
  C   C253      1.0  0.47037  0.03695  0.76234  1.0000
  H   H422      1.0  0.50061  0.19379  0.50811  1.0000
  C   C254      1.0  0.40250  0.13530  0.96806  1.0000
  H   H423      1.0  0.50324  0.07080  0.76732  1.0000
  S   S85       1.0  0.43863  0.23191  0.96906  1.0000
  S   S86       1.0  0.37971  0.09293  0.96998  1.0000
  C   C255      1.0  0.38361  0.11934  0.97064  1.0000
  H   H424      1.0  0.50531  0.19007  0.55403  1.0000
  H   H425      1.0  0.46908  0.16417  0.50956  1.0000
  C   C256      1.0  0.47669  0.15639  0.52658  1.0000
  S   S87       1.0  0.48454  0.22749  0.60187  1.0000
  Fe  Fe43      1.0  0.39608  0.07059  0.97192  1.0000
  H   H426      1.0  0.41844  0.16800  0.96699  1.0000
  S   S88       1.0  0.43017  0.03924  0.97799  1.0000
  C   C257      1.0  0.49462  0.09837  0.50553  1.0000
  C   C258      1.0  0.36794  0.14445  0.97539  1.0000
  H   H427      1.0  0.63702  0.99885  0.88265  1.0000
  H   H428      1.0  0.63771  0.02888  0.91781  1.0000
  S   S89       1.0  0.38112  0.99114  0.97767  1.0000
  H   H429      1.0  0.35437  0.14767  0.97822  1.0000
  H   H430      1.0  0.46349  0.22205  0.51449  1.0000
  H   H431      1.0  0.43533  0.21705  0.55495  1.0000
  S   S90       1.0  0.38631  0.18560  0.97494  1.0000
  H   H432      1.0  0.63798  0.02992  0.85153  1.0000
  H   H433      1.0  0.35182  0.11231  0.97607  1.0000
  H   H434      1.0  0.52009  0.23445  0.64649  1.0000
  H   H435      1.0  0.42900  0.21693  0.48993  1.0000
  C   C259      1.0  0.43304  0.23356  0.49213  1.0000
  H   H436      1.0  0.63379  0.41482  0.21469  1.0000
  C   C260      1.0  0.35725  0.48439  0.16233  1.0000
  H   H437      1.0  0.43058  0.30961  0.00954  1.0000
  S   S91       1.0  0.36724  0.46052  0.29276  1.0000
  Fe  Fe44      1.0  0.34172  0.43644  0.26309  1.0000
  S   S92       1.0  0.34666  0.41477  0.22227  1.0000
  Fe  Fe45      1.0  0.34816  0.45314  0.34175  1.0000
  S   S93       1.0  0.36513  0.45689  0.39499  1.0000
  S   S94       1.0  0.32645  0.45743  0.24702  1.0000
  C   C261      1.0  0.62325  0.40240  0.37264  1.0000
  C   C262      1.0  0.41501  0.31951  0.06824  1.0000
  H   H438      1.0  0.48718  0.25533  0.21587  1.0000
  Fe  Fe46      1.0  0.52889  0.31990  0.28682  1.0000
  S   S95       1.0  0.49683  0.31016  0.30563  1.0000
  S   S96       1.0  0.54616  0.35356  0.28224  1.0000
  Fe  Fe47      1.0  0.52643  0.27683  0.27773  1.0000
  S   S97       1.0  0.49454  0.26437  0.29560  1.0000
  S   S98       1.0  0.54007  0.25433  0.26031  1.0000
  Fe  Fe48      1.0  0.48972  0.28731  0.26006  1.0000
  S   S99       1.0  0.46159  0.27683  0.22345  1.0000
  Fe  Fe49      1.0  0.50492  0.28818  0.33929  1.0000
  S   S100      1.0  0.49771  0.27614  0.39573  1.0000
  S   S101      1.0  0.52118  0.29845  0.23950  1.0000
  S   S102      1.0  0.53736  0.29934  0.32307  1.0000
  H   H439      1.0  0.59745  0.40898  0.20470  1.0000
  S   S103      1.0  0.46171  0.26825  0.05349  1.0000
  H   H440      1.0  0.40503  0.28203  0.04333  1.0000
  H   H441      1.0  0.36269  0.45527  0.20082  1.0000
  H   H442      1.0  0.64174  0.44704  0.13499  1.0000
  C   C263      1.0  0.44222  0.31306  0.09809  1.0000
  H   H443      1.0  0.42370  0.33608  0.06859  1.0000
  S   S104      1.0  0.32451  0.42657  0.31368  1.0000
  C   C264      1.0  0.44048  0.31326  0.03388  1.0000
  C   C265      1.0  0.46182  0.27452  0.17618  1.0000
  C   C266      1.0  0.47973  0.28175  0.15726  1.0000
  C   C267      1.0  0.47934  0.27939  0.11987  1.0000
  C   C268      1.0  0.46111  0.26960  0.10083  1.0000
  C   C269      1.0  0.44320  0.26200  0.11981  1.0000
  C   C270      1.0  0.44356  0.26467  0.15719  1.0000
  H   H444      1.0  0.49390  0.28942  0.17135  1.0000
  H   H445      1.0  0.49329  0.28536  0.10553  1.0000
  H   H446      1.0  0.42908  0.25408  0.10576  1.0000
  H   H447      1.0  0.43892  0.24005  0.46585  1.0000
  C   C271      1.0  0.50003  0.28920  0.43714  1.0000
  C   C272      1.0  0.49651  0.30718  0.44057  1.0000
  Fe  Fe50      1.0  0.43777  0.25552  0.00885  1.0000
  H   H448      1.0  0.49356  0.31428  0.41699  1.0000
  H   H449      1.0  0.61560  0.44290  0.12793  1.0000
  C   C273      1.0  0.61485  0.38177  0.27499  1.0000
  C   C274      1.0  0.60531  0.36076  0.27800  1.0000
  C   C275      1.0  0.58415  0.35170  0.27936  1.0000
  C   C276      1.0  0.57247  0.36366  0.27742  1.0000
  C   C277      1.0  0.58201  0.38457  0.27337  1.0000
  C   C278      1.0  0.60309  0.39357  0.27220  1.0000
  H   H450      1.0  0.61431  0.35148  0.27991  1.0000
  H   H451      1.0  0.57690  0.33554  0.28241  1.0000
  H   H452      1.0  0.57302  0.39386  0.27172  1.0000
  H   H453      1.0  0.61015  0.40964  0.26917  1.0000
  C   C279      1.0  0.33761  0.41202  0.17738  1.0000
  C   C280      1.0  0.34091  0.39781  0.15448  1.0000
  N   N29       1.0  0.42849  0.30804  0.06656  1.0000
  C   C281      1.0  0.49129  0.24346  0.20249  1.0000
  C   C282      1.0  0.64087  0.45472  0.47333  1.0000
  H   H454      1.0  0.32310  0.44135  0.41706  1.0000
  C   C283      1.0  0.33491  0.39607  0.11818  1.0000
  C   C284      1.0  0.33270  0.44567  0.44069  1.0000
  C   C285      1.0  0.35364  0.45362  0.43731  1.0000
  H   H455      1.0  0.60572  0.42989  0.36886  1.0000
  H   H456      1.0  0.62926  0.45788  0.16545  1.0000
  H   H457      1.0  0.60794  0.39395  0.43765  1.0000
  H   H458      1.0  0.59016  0.42174  0.16947  1.0000
  S   S105      1.0  0.64143  0.39304  0.27575  1.0000
  S   S106      1.0  0.40408  0.24241  0.01343  1.0000
  H   H459      1.0  0.40446  0.31585  0.04470  1.0000
  C   C286      1.0  0.32415  0.44267  0.47477  1.0000
  H   H460      1.0  0.64021  0.44171  0.21509  1.0000
  H   H461      1.0  0.36549  0.45300  0.13586  1.0000
  H   H462      1.0  0.58910  0.37496  0.34618  1.0000
  N   N30       1.0  0.37612  0.48063  0.16710  1.0000
  S   S107      1.0  0.64129  0.45808  0.40016  1.0000
  H   H463      1.0  0.62871  0.39160  0.38630  1.0000
  C   C287      1.0  0.32589  0.40886  0.10433  1.0000
  H   H464      1.0  0.58716  0.40214  0.43072  1.0000
  H   H465      1.0  0.42962  0.25887  0.17157  1.0000
  H   H466      1.0  0.33786  0.38531  0.10077  1.0000
  H   H467      1.0  0.62409  0.39998  0.34349  1.0000
  S   S108      1.0  0.31990  0.40910  0.05835  1.0000
  C   C288      1.0  0.58887  0.37877  0.37495  1.0000
  H   H468      1.0  0.45286  0.30496  0.09691  1.0000
  H   H469      1.0  0.57297  0.37631  0.38129  1.0000
  C   C289      1.0  0.41620  0.28620  0.06584  1.0000
  H   H470      1.0  0.40770  0.28140  0.09082  1.0000
  H   H471      1.0  0.43378  0.30869  0.12327  1.0000
  H   H472      1.0  0.37862  0.47526  0.11112  1.0000
  S   S109      1.0  0.33281  0.47476  0.32996  1.0000
  C   C290      1.0  0.32235  0.42286  0.12734  1.0000
  H   H473      1.0  0.61478  0.39404  0.16337  1.0000
  H   H474      1.0  0.38211  0.46481  0.46612  1.0000
  C   C291      1.0  0.63763  0.42827  0.19746  1.0000
  N   N31       1.0  0.60259  0.39976  0.38316  1.0000
  H   H475      1.0  0.42579  0.27714  0.06239  1.0000
  S   S110      1.0  0.63782  0.44536  0.29800  1.0000
  C   C292      1.0  0.32790  0.42425  0.16370  1.0000
  C   C293      1.0  0.36590  0.45893  0.46838  1.0000
  H   H476      1.0  0.40566  0.31581  0.09249  1.0000
  H   H477      1.0  0.45145  0.32950  0.09997  1.0000
  N   N32       1.0  0.62156  0.42588  0.17060  1.0000
  C   C294      1.0  0.50356  0.28005  0.46809  1.0000
  H   H478      1.0  0.45003  0.32960  0.03343  1.0000
  C   C295      1.0  0.59576  0.41389  0.36327  1.0000
  C   C296      1.0  0.60252  0.40405  0.42177  1.0000
  C   C297      1.0  0.62726  0.44419  0.14876  1.0000
  C   C298      1.0  0.37546  0.47008  0.20086  1.0000
  H   H479      1.0  0.45067  0.30465  0.03162  1.0000
  H   H480      1.0  0.34836  0.38823  0.16480  1.0000
  H   H481      1.0  0.49243  0.32899  0.47712  1.0000
  H   H482      1.0  0.32487  0.43493  0.18102  1.0000
  H   H483      1.0  0.59327  0.36767  0.39002  1.0000
  C   C299      1.0  0.49577  0.31542  0.47472  1.0000
  H   H484      1.0  0.62531  0.45336  0.47098  1.0000
  H   H485      1.0  0.50649  0.26625  0.46565  1.0000
  C   C300      1.0  0.60252  0.42301  0.18885  1.0000
  C   C301      1.0  0.37827  0.46792  0.13718  1.0000
  C   C302      1.0  0.61885  0.40806  0.14751  1.0000
  H   H486      1.0  0.61262  0.41989  0.42857  1.0000
  H   H487      1.0  0.39235  0.46478  0.14008  1.0000
  H   H488      1.0  0.60667  0.40563  0.12712  1.0000
  H   H489      1.0  0.58017  0.41223  0.37037  1.0000
  H   H490      1.0  0.63293  0.40982  0.13318  1.0000
  H   H491      1.0  0.38949  0.46711  0.20586  1.0000
  H   H492      1.0  0.31533  0.43277  0.11690  1.0000
  H   H493      1.0  0.60429  0.43591  0.20745  1.0000
  H   H494      1.0  0.37346  0.47913  0.22374  1.0000
  H   H495      1.0  0.34387  0.46999  0.16131  1.0000
  H   H496      1.0  0.59581  0.41128  0.33407  1.0000
  H   H497      1.0  0.63410  0.41788  0.37936  1.0000
  H   H498      1.0  0.50545  0.24376  0.21556  1.0000
  Fe  Fe51      1.0  0.35078  0.48089  0.27981  1.0000
  H   H499      1.0  0.51781  0.24271  0.32493  1.0000
  H   H500      1.0  0.49472  0.24801  0.17436  1.0000
  Fe  Fe52      1.0  0.31337  0.38583  0.01259  1.0000
  H   H501      1.0  0.38713  0.32734  0.98983  1.0000
  H   H502      1.0  0.47270  0.24417  0.48757  1.0000
  S   S111      1.0  0.32377  0.41222  0.71798  1.0000
  H   H503      1.0  0.31801  0.33670  0.88931  1.0000
  C   C303      1.0  0.33639  0.44791  0.50584  1.0000
  S   S112      1.0  0.35997  0.44492  0.63796  1.0000
  Fe  Fe53      1.0  0.33845  0.45361  0.60361  1.0000
  S   S113      1.0  0.32468  0.44319  0.54798  1.0000
  Fe  Fe54      1.0  0.33795  0.43971  0.68286  1.0000
  H   H504      1.0  0.35404  0.37656  0.90444  1.0000
  C   C304      1.0  0.37255  0.31704  0.98022  1.0000
  H   H505      1.0  0.36775  0.33432  0.87052  1.0000
  S   S114      1.0  0.60216  0.40769  0.66097  1.0000
  H   H506      1.0  0.46469  0.27217  0.54373  1.0000
  Fe  Fe55      1.0  0.49859  0.29947  0.59889  1.0000
  S   S115      1.0  0.52069  0.28411  0.59992  1.0000
  S   S116      1.0  0.49628  0.31578  0.54828  1.0000
  Fe  Fe56      1.0  0.48530  0.28688  0.67683  1.0000
  S   S117      1.0  0.50636  0.27017  0.68169  1.0000
  S   S118      1.0  0.46586  0.29116  0.72173  1.0000
  Fe  Fe57      1.0  0.52865  0.29739  0.65521  1.0000
  S   S119      1.0  0.56126  0.31250  0.67325  1.0000
  Fe  Fe58      1.0  0.49597  0.25897  0.62577  1.0000
  C   C305      1.0  0.31318  0.39454  0.78321  1.0000
  S   S120      1.0  0.50812  0.31462  0.65280  1.0000
  S   S121      1.0  0.47329  0.27383  0.62242  1.0000
  H   H507      1.0  0.53128  0.35534  0.56683  1.0000
  H   H508      1.0  0.35864  0.33932  0.98516  1.0000
  H   H509      1.0  0.58464  0.34158  0.56443  1.0000
  C   C306      1.0  0.56966  0.36963  0.54346  1.0000
  Fe  Fe59      1.0  0.43510  0.25220  0.92583  1.0000
  H   H510      1.0  0.47775  0.24991  0.81800  1.0000
  H   H511      1.0  0.34390  0.32183  0.89090  1.0000
  H   H512      1.0  0.64041  0.45279  0.53093  1.0000
  C   C307      1.0  0.49866  0.30584  0.50566  1.0000
  S   S122      1.0  0.35079  0.47171  0.70377  1.0000
  H   H513      1.0  0.57681  0.38150  0.56443  1.0000
  H   H514      1.0  0.51577  0.34968  0.76798  1.0000
  H   H515      1.0  0.37441  0.36712  0.83983  1.0000
  H   H516      1.0  0.35534  0.37795  0.83908  1.0000
  C   C308      1.0  0.50302  0.28835  0.50211  1.0000
  H   H517      1.0  0.58187  0.36897  0.52606  1.0000
  H   H518      1.0  0.41891  0.23635  0.49668  1.0000
  C   C309      1.0  0.46227  0.27987  0.76446  1.0000
  C   C310      1.0  0.47216  0.26717  0.77513  1.0000
  C   C311      1.0  0.46990  0.25960  0.80999  1.0000
  C   C312      1.0  0.45741  0.26421  0.83449  1.0000
  C   C313      1.0  0.44728  0.27667  0.82367  1.0000
  C   C314      1.0  0.44981  0.28455  0.78895  1.0000
  H   H519      1.0  0.48156  0.26313  0.75662  1.0000
  Fe  Fe60      1.0  0.37126  0.47761  0.65676  1.0000
  H   H520      1.0  0.43766  0.28041  0.84217  1.0000
  H   H521      1.0  0.44205  0.29432  0.78105  1.0000
  C   C315      1.0  0.57273  0.33911  0.67281  1.0000
  C   C316      1.0  0.59383  0.34841  0.67237  1.0000
  C   C317      1.0  0.60320  0.36953  0.66945  1.0000
  C   C318      1.0  0.59146  0.38143  0.66744  1.0000
  C   C319      1.0  0.57044  0.37218  0.66920  1.0000
  C   C320      1.0  0.56111  0.35112  0.67174  1.0000
  H   H522      1.0  0.60296  0.33925  0.67344  1.0000
  H   H523      1.0  0.61944  0.37656  0.66830  1.0000
  H   H524      1.0  0.56132  0.38136  0.66805  1.0000
  H   H525      1.0  0.54495  0.34428  0.67269  1.0000
  H   H526      1.0  0.53447  0.33702  0.59576  1.0000
  H   H527      1.0  0.32170  0.44988  0.75849  1.0000
  C   C321      1.0  0.35141  0.33164  0.86835  1.0000
  H   H528      1.0  0.45094  0.23970  0.57760  1.0000
  S   S123      1.0  0.45590  0.25471  0.87845  1.0000
  C   C322      1.0  0.32682  0.41089  0.76482  1.0000
  H   H529      1.0  0.52269  0.34115  0.72671  1.0000
  H   H530      1.0  0.52912  0.29599  0.76475  1.0000
  C   C323      1.0  0.33044  0.40790  0.83973  1.0000
  C   C324      1.0  0.34414  0.42416  0.82129  1.0000
  C   C325      1.0  0.34230  0.42573  0.78413  1.0000
  H   H531      1.0  0.49878  0.32722  0.74584  1.0000
  C   C326      1.0  0.33730  0.31089  0.96516  1.0000
  H   H532      1.0  0.35632  0.43562  0.83588  1.0000
  H   H533      1.0  0.35304  0.43827  0.77034  1.0000
  C   C327      1.0  0.35733  0.45626  0.50248  1.0000
  H   H534      1.0  0.50552  0.28093  0.52555  1.0000
  C   C328      1.0  0.35104  0.28401  0.95832  1.0000
  C   C329      1.0  0.35637  0.32395  0.97746  1.0000
  Fe  Fe61      1.0  0.40323  0.26308  0.96851  1.0000
  H   H535      1.0  0.56492  0.32935  0.59505  1.0000
  N   N33       1.0  0.55864  0.34984  0.55948  1.0000
  H   H536      1.0  0.32285  0.36057  0.86838  1.0000
  H   H537      1.0  0.53098  0.31030  0.72516  1.0000
  S   S124      1.0  0.31533  0.44510  0.64649  1.0000
  H   H538      1.0  0.54082  0.31943  0.54249  1.0000
  S   S125      1.0  0.33378  0.40687  0.88652  1.0000
  C   C330      1.0  0.35623  0.36189  0.90301  1.0000
  H   H539      1.0  0.34873  0.26857  0.95095  1.0000
  H   H540      1.0  0.58072  0.35546  0.60174  1.0000
  C   C331      1.0  0.54935  0.33448  0.53106  1.0000
  C   C332      1.0  0.33487  0.29092  0.95550  1.0000
  Fe  Fe62      1.0  0.32898  0.47716  0.66550  1.0000
  Fe  Fe63      1.0  0.31519  0.38621  0.92965  1.0000
  C   C333      1.0  0.35784  0.36340  0.83894  1.0000
  N   N34       1.0  0.52418  0.32377  0.77228  1.0000
  C   C334      1.0  0.54564  0.33595  0.78019  1.0000
  C   C335      1.0  0.51332  0.31714  0.80587  1.0000
  C   C336      1.0  0.52272  0.30588  0.75047  1.0000
  C   C337      1.0  0.51499  0.33604  0.75235  1.0000
  H   H541      1.0  0.55422  0.34096  0.75522  1.0000
  H   H542      1.0  0.55300  0.32710  0.79519  1.0000
  H   H543      1.0  0.54741  0.34971  0.79640  1.0000
  H   H544      1.0  0.49701  0.30818  0.80066  1.0000
  H   H545      1.0  0.51943  0.30734  0.82119  1.0000
  H   H546      1.0  0.51431  0.33021  0.82335  1.0000
  H   H547      1.0  0.50677  0.29662  0.74341  1.0000
  S   S126      1.0  0.43725  0.27681  0.96552  1.0000
  N   N35       1.0  0.34790  0.35082  0.86928  1.0000
  S   S127      1.0  0.40108  0.23928  0.92585  1.0000
  H   H548      1.0  0.53842  0.33851  0.51441  1.0000
  H   H549      1.0  0.36692  0.46014  0.52614  1.0000
  C   C338      1.0  0.45308  0.26471  0.52265  1.0000
  C   C339      1.0  0.57283  0.34376  0.58106  1.0000
  C   C340      1.0  0.54270  0.35151  0.58246  1.0000
  H   H550      1.0  0.55936  0.37472  0.52715  1.0000
  H   H551      1.0  0.47847  0.24592  0.53458  1.0000
  Fe  Fe64      1.0  0.63598  0.42429  0.65878  1.0000
  H   H552      1.0  0.32114  0.46899  0.81339  1.0000
  H   H553      1.0  0.34535  0.32286  0.84325  1.0000
  H   H554      1.0  0.54903  0.36338  0.60359  1.0000
  H   H555      1.0  0.34877  0.35293  0.92641  1.0000
  C   C341      1.0  0.37007  0.29699  0.97085  1.0000
  H   H556      1.0  0.35187  0.35556  0.81298  1.0000
  H   H557      1.0  0.31921  0.33832  0.84170  1.0000
  C   C342      1.0  0.32602  0.34641  0.86703  1.0000
  C   C343      1.0  0.31487  0.39311  0.82050  1.0000
  H   H558      1.0  0.37266  0.36519  0.90601  1.0000
  S   S128      1.0  0.33331  0.37866  0.97288  1.0000
  H   H559      1.0  0.45921  0.27185  0.49696  1.0000
  S   S129      1.0  0.39119  0.28917  0.97563  1.0000
  N   N36       1.0  0.44806  0.24263  0.52109  1.0000
  C   C344      1.0  0.46648  0.23851  0.51403  1.0000
  H   H560      1.0  0.43966  0.26847  0.52858  1.0000
  H   H561      1.0  0.32029  0.28059  0.94590  1.0000
  H   H562      1.0  0.56084  0.33269  0.51311  1.0000
  S   S130      1.0  0.31617  0.31869  0.96036  1.0000
  H   H563      1.0  0.42616  0.23712  0.56242  1.0000
  Fe  Fe65      1.0  0.50355  0.61843  0.34141  1.0000
  S   S131      1.0  0.47147  0.60810  0.32118  1.0000
  S   S132      1.0  0.50880  0.62968  0.39949  1.0000
  Fe  Fe66      1.0  0.51977  0.61853  0.26398  1.0000
  S   S133      1.0  0.48866  0.60807  0.23967  1.0000
  S   S134      1.0  0.54826  0.62819  0.23035  1.0000
  Fe  Fe67      1.0  0.48374  0.63037  0.27771  1.0000
  S   S135      1.0  0.47158  0.65376  0.25951  1.0000
  Fe  Fe68      1.0  0.47968  0.58681  0.28568  1.0000
  S   S136      1.0  0.46195  0.55311  0.28048  1.0000
  S   S137      1.0  0.51530  0.64206  0.29952  1.0000
  S   S138      1.0  0.51135  0.59582  0.30828  1.0000
  H   H564      1.0  0.56765  0.69653  0.19425  1.0000
  C   C345      1.0  0.42840  0.70177  0.30903  1.0000
  S   S139      1.0  0.60702  0.66134  0.01949  1.0000
  S   S140      1.0  0.54983  0.63666  0.06071  1.0000
  H   H565      1.0  0.61007  0.59255  0.10375  1.0000
  H   H566      1.0  0.41200  0.54111  0.42110  1.0000
  C   C346      1.0  0.54856  0.63015  0.18309  1.0000
  C   C347      1.0  0.53082  0.62337  0.16234  1.0000
  C   C348      1.0  0.53161  0.62569  0.12510  1.0000
  C   C349      1.0  0.55007  0.63492  0.10799  1.0000
  C   C350      1.0  0.56785  0.64198  0.12877  1.0000
  C   C351      1.0  0.56708  0.63939  0.16603  1.0000
  H   H567      1.0  0.51647  0.61616  0.17492  1.0000
  H   H568      1.0  0.51775  0.62016  0.10936  1.0000
  H   H569      1.0  0.58216  0.64950  0.11626  1.0000
  H   H570      1.0  0.58091  0.64484  0.18184  1.0000
  C   C352      1.0  0.48547  0.67735  0.27943  1.0000
  C   C353      1.0  0.48790  0.69511  0.26128  1.0000
  C   C354      1.0  0.49987  0.71401  0.27630  1.0000
  C   C355      1.0  0.49477  0.67856  0.31284  1.0000
  H   H571      1.0  0.48083  0.69419  0.23529  1.0000
  H   H572      1.0  0.51402  0.69817  0.35355  1.0000
  H   H573      1.0  0.49260  0.66495  0.32741  1.0000
  C   C356      1.0  0.43571  0.54250  0.27279  1.0000
  C   C357      1.0  0.42620  0.52140  0.27204  1.0000
  C   C358      1.0  0.40516  0.51219  0.26874  1.0000
  C   C359      1.0  0.39342  0.52400  0.26518  1.0000
  C   C360      1.0  0.40296  0.54513  0.26494  1.0000
  C   C361      1.0  0.42405  0.55440  0.26911  1.0000
  H   H574      1.0  0.43517  0.51214  0.27481  1.0000
  H   H575      1.0  0.39817  0.49597  0.26882  1.0000
  H   H576      1.0  0.39401  0.55439  0.26201  1.0000
  H   H577      1.0  0.43129  0.57069  0.26960  1.0000
  H   H578      1.0  0.49135  0.63210  0.46665  1.0000
  C   C362      1.0  0.50636  0.61533  0.43858  1.0000
  C   C363      1.0  0.51511  0.60082  0.44186  1.0000
  H   H579      1.0  0.54309  0.71324  0.19489  1.0000
  H   H580      1.0  0.52166  0.59653  0.41883  1.0000
  H   H581      1.0  0.62383  0.57488  0.99969  1.0000
  C   C364      1.0  0.59634  0.61916  0.07452  1.0000
  H   H582      1.0  0.38388  0.51679  0.33838  1.0000
  H   H583      1.0  0.60960  0.58992  0.05609  1.0000
  C   C365      1.0  0.51657  0.59282  0.47551  1.0000
  C   C366      1.0  0.50937  0.71515  0.30956  1.0000
  H   H584      1.0  0.55293  0.70269  0.25222  1.0000
  H   H585      1.0  0.58582  0.62717  0.07032  1.0000
  H   H586      1.0  0.52776  0.69456  0.16307  1.0000
  H   H587      1.0  0.45778  0.71166  0.26202  1.0000
  H   H588      1.0  0.56030  0.67071  0.20694  1.0000
  H   H589      1.0  0.52353  0.65063  0.21913  1.0000
  C   C367      1.0  0.45481  0.72464  0.27384  1.0000
  C   C368      1.0  0.50680  0.69740  0.32773  1.0000
  H   H590      1.0  0.35722  0.49248  0.13723  1.0000
  H   H591      1.0  0.55222  0.67656  0.16452  1.0000
  H   H592      1.0  0.43159  0.68851  0.29888  1.0000
  H   H593      1.0  0.58193  0.59924  0.13405  1.0000
  H   H594      1.0  0.60560  0.62574  0.09891  1.0000
  C   C369      1.0  0.57269  0.59312  0.10941  1.0000
  N   N37       1.0  0.40373  0.51689  0.38218  1.0000
  N   N38       1.0  0.44683  0.72027  0.31016  1.0000
  S   S141      1.0  0.36691  0.51278  0.26076  1.0000
  Fe  Fe69      1.0  0.57311  0.64726  0.01655  1.0000
  H   H595      1.0  0.53860  0.65100  0.46960  1.0000
  H   H596      1.0  0.51696  0.65784  0.17668  1.0000
  H   H597      1.0  0.39464  0.50847  0.14318  1.0000
  H   H598      1.0  0.54561  0.67632  0.26163  1.0000
  H   H599      1.0  0.50582  0.66285  0.21648  1.0000
  C   C370      1.0  0.38665  0.50627  0.35750  1.0000
  H   H600      1.0  0.56441  0.57665  0.11285  1.0000
  H   H601      1.0  0.38948  0.49431  0.34171  1.0000
  H   H602      1.0  0.59214  0.57037  0.08201  1.0000
  H   H603      1.0  0.56115  0.59709  0.04239  1.0000
  C   C371      1.0  0.63821  0.58510  0.99046  1.0000
  C   C372      1.0  0.39943  0.53276  0.40222  1.0000
  N   N39       1.0  0.58527  0.59718  0.07737  1.0000
  H   H604      1.0  0.40873  0.48952  0.39276  1.0000
  H   H605      1.0  0.60670  0.62269  0.05162  1.0000
  C   C373      1.0  0.57221  0.58952  0.04537  1.0000
  H   H606      1.0  0.56354  0.57299  0.04656  1.0000
  H   H607      1.0  0.58123  0.59233  0.02068  1.0000
  H   H608      1.0  0.43556  0.53444  0.37926  1.0000
  C   C374      1.0  0.49827  0.62099  0.46895  1.0000
  H   H609      1.0  0.56124  0.60026  0.10765  1.0000
  H   H610      1.0  0.46571  0.70397  0.32478  1.0000
  H   H611      1.0  0.35510  0.49374  0.18483  1.0000
  H   H612      1.0  0.42071  0.53732  0.34243  1.0000
  N   N40       1.0  0.53670  0.68246  0.20952  1.0000
  C   C375      1.0  0.54079  0.68758  0.24787  1.0000
  C   C376      1.0  0.52003  0.66261  0.20520  1.0000
  C   C377      1.0  0.55502  0.68158  0.19301  1.0000
  C   C378      1.0  0.53092  0.69802  0.19205  1.0000
  H   H613      1.0  0.39726  0.54398  0.38390  1.0000
  H   H614      1.0  0.39290  0.49537  0.42384  1.0000
  H   H615      1.0  0.39204  0.51010  0.19051  1.0000
  H   H616      1.0  0.37247  0.49870  0.37217  1.0000
  H   H617      1.0  0.52714  0.68778  0.26146  1.0000
  H   H618      1.0  0.38543  0.52618  0.41784  1.0000
  C   C379      1.0  0.46212  0.71718  0.33381  1.0000
  H   H619      1.0  0.50196  0.72763  0.26195  1.0000
  C   C380      1.0  0.59988  0.58701  0.08000  1.0000
  H   H620      1.0  0.41966  0.50946  0.42547  1.0000
  H   H621      1.0  0.40793  0.49793  0.17294  1.0000
  H   H622      1.0  0.51711  0.69897  0.20396  1.0000
  H   H623      1.0  0.42597  0.51468  0.34611  1.0000
  C   C381      1.0  0.42229  0.52623  0.36167  1.0000
  C   C382      1.0  0.40646  0.50226  0.40724  1.0000
  H   H624      1.0  0.54480  0.67728  0.46115  1.0000
  H   H625      1.0  0.42193  0.69803  0.33600  1.0000
  C   C383      1.0  0.39346  0.50013  0.16839  1.0000
  H   H626      1.0  0.44408  0.72804  0.25566  1.0000
  H   H627      1.0  0.41658  0.70353  0.29124  1.0000
  H   H628      1.0  0.52400  0.58214  0.47796  1.0000
  C   C384      1.0  0.53764  0.66521  0.48059  1.0000
  H   H629      1.0  0.45689  0.71442  0.36170  1.0000
  H   H630      1.0  0.47654  0.73056  0.33441  1.0000
  H   H631      1.0  0.52139  0.66295  0.48140  1.0000
  H   H632      1.0  0.43602  0.73484  0.35128  1.0000
  Fe  Fe70      1.0  0.52115  0.61566  0.68033  1.0000
  S   S142      1.0  0.49978  0.63193  0.68673  1.0000
  S   S143      1.0  0.54096  0.61093  0.72492  1.0000
  Fe  Fe71      1.0  0.50898  0.60538  0.60019  1.0000
  S   S144      1.0  0.48664  0.62045  0.60218  1.0000
  S   S145      1.0  0.51325  0.59042  0.54854  1.0000
  Fe  Fe72      1.0  0.51069  0.64496  0.63318  1.0000
  S   S146      1.0  0.52143  0.67651  0.61198  1.0000
  Fe  Fe73      1.0  0.47808  0.60550  0.65492  1.0000
  S   S147      1.0  0.44523  0.59000  0.66832  1.0000
  S   S148      1.0  0.53368  0.63054  0.62883  1.0000
  S   S149      1.0  0.49880  0.58853  0.65108  1.0000
  C   C385      1.0  0.41628  0.73256  0.65906  1.0000
  Fe  Fe74      1.0  0.57249  0.64574  0.93332  1.0000
  S   S150      1.0  0.60637  0.65871  0.93194  1.0000
  S   S151      1.0  0.55034  0.64279  0.88670  1.0000
  H   H633      1.0  0.63719  0.54072  0.85192  1.0000
  H   H634      1.0  0.44586  0.52133  0.67075  1.0000
  C   C386      1.0  0.43602  0.53242  0.56803  1.0000
  H   H635      1.0  0.60760  0.69120  0.84610  1.0000
  S   S152      1.0  0.62056  0.71515  0.96418  1.0000
  H   H636      1.0  0.48570  0.55728  0.71823  1.0000
  H   H637      1.0  0.48783  0.58812  0.81762  1.0000
  C   C387      1.0  0.54439  0.62114  0.76912  1.0000
  C   C388      1.0  0.55830  0.61752  0.79225  1.0000
  C   C389      1.0  0.56068  0.62435  0.82813  1.0000
  C   C390      1.0  0.54886  0.63458  0.84144  1.0000
  C   C391      1.0  0.53499  0.63825  0.81828  1.0000
  C   C392      1.0  0.53291  0.63180  0.78226  1.0000
  H   H638      1.0  0.56725  0.60926  0.78240  1.0000
  H   H639      1.0  0.57138  0.62135  0.84560  1.0000
  H   H640      1.0  0.52575  0.64614  0.82829  1.0000
  H   H641      1.0  0.52226  0.63488  0.76485  1.0000
  C   C393      1.0  0.51242  0.69415  0.63085  1.0000
  C   C394      1.0  0.49876  0.68908  0.65873  1.0000
  C   C395      1.0  0.49208  0.70370  0.67339  1.0000
  C   C396      1.0  0.51918  0.71375  0.61747  1.0000
  H   H642      1.0  0.49344  0.67396  0.66909  1.0000
  H   H643      1.0  0.48165  0.69981  0.69514  1.0000
  H   H644      1.0  0.56274  0.70508  0.83321  1.0000
  H   H645      1.0  0.45336  0.56935  0.59962  1.0000
  C   C397      1.0  0.59948  0.72396  0.86431  1.0000
  H   H646      1.0  0.45135  0.55043  0.50635  1.0000
  N   N41       1.0  0.48349  0.57301  0.76634  1.0000
  C   C398      1.0  0.49971  0.61300  0.50249  1.0000
  C   C399      1.0  0.41565  0.52088  0.66555  1.0000
  C   C400      1.0  0.40380  0.53265  0.66371  1.0000
  C   C401      1.0  0.41298  0.55387  0.66514  1.0000
  C   C402      1.0  0.43403  0.56339  0.66792  1.0000
  C   C403      1.0  0.44581  0.55157  0.67015  1.0000
  C   C404      1.0  0.43665  0.53041  0.66920  1.0000
  H   H647      1.0  0.38758  0.52543  0.66100  1.0000
  H   H648      1.0  0.40375  0.56292  0.66363  1.0000
  H   H649      1.0  0.46194  0.55870  0.67263  1.0000
  N   N42       1.0  0.58603  0.70259  0.86760  1.0000
  S   S153      1.0  0.57217  0.62363  0.97557  1.0000
  S   S154      1.0  0.61911  0.61256  0.98507  1.0000
  H   H650      1.0  0.43530  0.51674  0.56293  1.0000
  H   H651      1.0  0.52922  0.68706  0.53302  1.0000
  H   H652      1.0  0.59070  0.73391  0.86249  1.0000
  H   H653      1.0  0.58092  0.69726  0.81107  1.0000
  C   C405      1.0  0.57238  0.69600  0.83606  1.0000
  H   H654      1.0  0.58874  0.67377  0.87291  1.0000
  H   H655      1.0  0.57665  0.67733  0.54045  1.0000
  H   H656      1.0  0.41635  0.71940  0.67460  1.0000
  S   S155      1.0  0.35073  0.48642  0.62034  1.0000
  H   H657      1.0  0.53863  0.63933  0.53156  1.0000
  H   H658      1.0  0.52125  0.65113  0.54378  1.0000
  C   C406      1.0  0.45681  0.56794  0.57112  1.0000
  Fe  Fe75      1.0  0.60404  0.68098  0.97399  1.0000
  H   H659      1.0  0.42456  0.53496  0.55045  1.0000
  H   H660      1.0  0.47185  0.57972  0.56624  1.0000
  C   C407      1.0  0.57396  0.70036  0.90003  1.0000
  H   H661      1.0  0.64236  0.56534  0.87155  1.0000
  H   H662      1.0  0.55257  0.69346  0.55698  1.0000
  H   H663      1.0  0.45372  0.55432  0.74742  1.0000
  H   H664      1.0  0.45450  0.56690  0.78940  1.0000
  H   H665      1.0  0.56464  0.70984  0.89929  1.0000
  H   H666      1.0  0.49422  0.54883  0.75793  1.0000
  C   C408      1.0  0.46254  0.55932  0.77286  1.0000
  C   C409      1.0  0.50941  0.59931  0.50615  1.0000
  H   H667      1.0  0.40712  0.72666  0.63429  1.0000
  H   H668      1.0  0.47734  0.55778  0.51954  1.0000
  H   H669      1.0  0.49480  0.56633  0.81609  1.0000
  C   C410      1.0  0.53751  0.65377  0.54087  1.0000
  H   H670      1.0  0.50943  0.57237  0.73874  1.0000
  H   H671      1.0  0.57085  0.65958  0.50365  1.0000
  H   H672      1.0  0.43126  0.53312  0.59594  1.0000
  H   H673      1.0  0.51060  0.58944  0.79650  1.0000
  H   H674      1.0  0.49372  0.61783  0.52558  1.0000
  C   C411      1.0  0.49461  0.57947  0.80067  1.0000
  H   H675      1.0  0.46207  0.54551  0.78689  1.0000
  H   H676      1.0  0.60991  0.72918  0.88793  1.0000
  C   C412      1.0  0.49361  0.56237  0.74436  1.0000
  H   H677      1.0  0.43869  0.72922  0.60407  1.0000
  H   H678      1.0  0.47467  0.58665  0.72166  1.0000
  H   H679      1.0  0.49878  0.60135  0.74140  1.0000
  H   H680      1.0  0.47610  0.59962  0.76339  1.0000
  H   H681      1.0  0.46157  0.53150  0.51682  1.0000
  H   H682      1.0  0.58373  0.70482  0.92444  1.0000
  H   H683      1.0  0.46762  0.54354  0.61389  1.0000
  S   S156      1.0  0.57039  0.66823  0.97428  1.0000
  C   C413      1.0  0.48324  0.59093  0.74739  1.0000
  C   C414      1.0  0.49908  0.72339  0.66026  1.0000
  H   H684      1.0  0.52967  0.71773  0.59582  1.0000
  C   C415      1.0  0.47120  0.54312  0.58528  1.0000
  N   N43       1.0  0.45645  0.54754  0.56225  1.0000
  H   H685      1.0  0.54452  0.65732  0.56802  1.0000
  C   C416      1.0  0.46185  0.54673  0.52455  1.0000
  H   H686      1.0  0.56352  0.68445  0.90329  1.0000
  Fe  Fe76      1.0  0.60627  0.63789  0.97721  1.0000
  S   S157      1.0  0.40507  0.49435  0.66168  1.0000
  N   N44       1.0  0.54735  0.67040  0.51630  1.0000
  H   H687      1.0  0.48676  0.55433  0.58176  1.0000
  H   H688      1.0  0.56212  0.67987  0.83812  1.0000
  H   H689      1.0  0.47143  0.52789  0.57919  1.0000
  H   H690      1.0  0.57688  0.68596  0.49560  1.0000
  C   C417      1.0  0.59837  0.69000  0.87016  1.0000
  H   H691      1.0  0.60891  0.69465  0.89363  1.0000
  C   C418      1.0  0.54535  0.68909  0.53004  1.0000
  C   C419      1.0  0.51251  0.72832  0.63208  1.0000
  H   H692      1.0  0.44826  0.72230  0.64441  1.0000
  C   C420      1.0  0.56891  0.67349  0.51387  1.0000
  H   H693      1.0  0.44557  0.57166  0.55485  1.0000
  H   H694      1.0  0.60893  0.72620  0.84026  1.0000
  H   H695      1.0  0.55236  0.70200  0.51211  1.0000
  H   H696      1.0  0.58948  0.73290  0.98273  1.0000
  H   H697      1.0  0.31720  0.71755  0.57093  1.0000
  C   C421      1.0  0.64035  0.60489  0.98103  1.0000
  C   C422      1.0  0.31358  0.73122  0.57599  1.0000
  H   H698      1.0  0.31089  0.72148  0.50581  1.0000
  Fe  Fe77      1.0  0.36333  0.79373  0.30979  1.0000
  S   S158      1.0  0.34737  0.81507  0.32105  1.0000
  S   S159      1.0  0.39690  0.80723  0.32207  1.0000
  H   H699      1.0  0.61828  0.92658  0.11043  1.0000
  C   C423      1.0  0.31884  0.79893  0.48061  1.0000
  H   H700      1.0  0.50447  0.79392  0.15999  1.0000
  S   S160      1.0  0.34346  0.76895  0.34431  1.0000
  S   S161      1.0  0.34553  0.78138  0.25899  1.0000
  Fe  Fe78      1.0  0.52019  0.76586  0.30743  1.0000
  S   S162      1.0  0.54592  0.79567  0.31063  1.0000
  S   S163      1.0  0.52429  0.73849  0.32932  1.0000
  Fe  Fe79      1.0  0.49117  0.78441  0.27891  1.0000
  S   S164      1.0  0.51467  0.81593  0.28059  1.0000
  S   S165      1.0  0.45983  0.77423  0.25438  1.0000
  Fe  Fe80      1.0  0.53517  0.80164  0.25663  1.0000
  S   S166      1.0  0.55656  0.80870  0.20945  1.0000
  Fe  Fe81      1.0  0.52320  0.80685  0.33453  1.0000
  S   S167      1.0  0.53041  0.82575  0.38608  1.0000
  S   S168      1.0  0.51103  0.77060  0.25231  1.0000
  S   S169      1.0  0.49806  0.77661  0.33394  1.0000
  Fe  Fe82      1.0  0.58844  0.85268  0.01180  1.0000
  S   S170      1.0  0.62140  0.85747  0.01090  1.0000
  S   S171      1.0  0.57271  0.85664  0.06275  1.0000
  H   H701      1.0  0.40504  0.86078  0.44866  1.0000
  H   H702      1.0  0.58978  0.81777  0.45147  1.0000
  C   C424      1.0  0.36865  0.83564  0.42444  1.0000
  H   H703      1.0  0.35763  0.90347  0.12254  1.0000
  C   C425      1.0  0.52084  0.79530  0.43643  1.0000
  C   C426      1.0  0.46885  0.79957  0.15868  1.0000
  H   H704      1.0  0.48980  0.83660  0.13498  1.0000
  H   H705      1.0  0.50030  0.83570  0.21492  1.0000
  H   H706      1.0  0.51373  0.83902  0.15415  1.0000
  H   H707      1.0  0.50204  0.81991  0.12076  1.0000
  C   C427      1.0  0.56019  0.82185  0.16847  1.0000
  C   C428      1.0  0.55354  0.83773  0.16274  1.0000
  C   C429      1.0  0.55737  0.84806  0.13017  1.0000
  C   C430      1.0  0.56792  0.84271  0.10291  1.0000
  C   C431      1.0  0.57463  0.82689  0.10869  1.0000
  C   C432      1.0  0.57086  0.81662  0.14130  1.0000
  H   H708      1.0  0.54605  0.84249  0.18383  1.0000
  H   H709      1.0  0.55238  0.86048  0.12621  1.0000
  H   H710      1.0  0.58285  0.82262  0.08815  1.0000
  H   H711      1.0  0.57631  0.80453  0.14551  1.0000
  H   H712      1.0  0.45545  0.75171  0.32450  1.0000
  C   C433      1.0  0.41393  0.79737  0.30348  1.0000
  C   C434      1.0  0.43407  0.80498  0.31572  1.0000
  C   C435      1.0  0.44822  0.79781  0.30114  1.0000
  C   C436      1.0  0.44232  0.78312  0.27390  1.0000
  C   C437      1.0  0.42218  0.77541  0.26171  1.0000
  C   C438      1.0  0.40797  0.78243  0.27658  1.0000
  H   H713      1.0  0.43878  0.81654  0.33651  1.0000
  H   H714      1.0  0.46370  0.80383  0.31076  1.0000
  H   H715      1.0  0.41753  0.76404  0.24059  1.0000
  H   H716      1.0  0.39248  0.77653  0.26694  1.0000
  C   C439      1.0  0.44195  0.73744  0.32381  1.0000
  C   C440      1.0  0.52796  0.81606  0.43007  1.0000
  C   C441      1.0  0.33495  0.81670  0.17122  1.0000
  H   H717      1.0  0.54710  0.77212  0.42028  1.0000
  H   H718      1.0  0.55635  0.77124  0.37626  1.0000
  H   H719      1.0  0.34113  0.91721  0.12665  1.0000
  C   C442      1.0  0.34097  0.78492  0.45211  1.0000
  H   H720      1.0  0.34621  0.77985  0.42833  1.0000
  S   S172      1.0  0.31585  0.79607  0.40742  1.0000
  H   H721      1.0  0.51806  0.77224  0.47503  1.0000
  H   H722      1.0  0.47791  0.81465  0.22541  1.0000
  H   H723      1.0  0.51480  0.78462  0.41457  1.0000
  N   N45       1.0  0.38847  0.83494  0.41548  1.0000
  C   C443      1.0  0.40319  0.84469  0.44456  1.0000
  C   C444      1.0  0.39548  0.84572  0.38195  1.0000
  N   N46       1.0  0.63071  0.90914  0.07814  1.0000
  C   C445      1.0  0.34763  0.90944  0.10731  1.0000
  H   H724      1.0  0.57996  0.77277  0.44511  1.0000
  S   S173      1.0  0.33031  0.82933  0.06675  1.0000
  N   N47       1.0  0.33164  0.89310  0.08742  1.0000
  H   H725      1.0  0.38226  0.80532  0.43620  1.0000
  C   C446      1.0  0.31871  0.90167  0.06773  1.0000
  C   C447      1.0  0.49897  0.82791  0.14434  1.0000
  Fe  Fe83      1.0  0.32686  0.78975  0.35353  1.0000
  H   H726      1.0  0.35178  0.81886  0.12313  1.0000
  C   C448      1.0  0.48566  0.82499  0.20369  1.0000
  H   H727      1.0  0.34571  0.81327  0.18784  1.0000
  C   C449      1.0  0.58675  0.80781  0.38102  1.0000
  H   H728      1.0  0.41827  0.84431  0.43872  1.0000
  H   H729      1.0  0.32849  0.87071  0.12717  1.0000
  H   H730      1.0  0.60266  0.90780  0.05411  1.0000
  H   H731      1.0  0.51580  0.81194  0.19518  1.0000
  H   H732      1.0  0.32759  0.91341  0.04884  1.0000
  N   N48       1.0  0.48865  0.81364  0.17243  1.0000
  C   C450      1.0  0.32459  0.82440  0.11239  1.0000
  C   C451      1.0  0.58758  0.78251  0.42260  1.0000
  H   H733      1.0  0.39715  0.86183  0.38422  1.0000
  H   H734      1.0  0.62499  0.92333  0.03118  1.0000
  H   H735      1.0  0.54064  0.84570  0.45476  1.0000
  H   H736      1.0  0.57853  0.81750  0.37176  1.0000
  H   H737      1.0  0.58888  0.77242  0.40065  1.0000
  H   H738      1.0  0.34988  0.89411  0.04179  1.0000
  C   C452      1.0  0.53517  0.82961  0.45920  1.0000
  H   H739      1.0  0.62980  0.88960  0.12190  1.0000
  C   C453      1.0  0.50108  0.80201  0.18310  1.0000
  H   H740      1.0  0.35104  0.87688  0.07577  1.0000
  C   C454      1.0  0.38658  0.81369  0.41098  1.0000
  H   H741      1.0  0.56605  0.79885  0.46311  1.0000
  H   H742      1.0  0.32928  0.87056  0.04747  1.0000
  C   C455      1.0  0.52250  0.78828  0.47087  1.0000
  H   H743      1.0  0.47054  0.79060  0.13528  1.0000
  H   H744      1.0  0.45902  0.80778  0.15034  1.0000
  H   H745      1.0  0.60226  0.81804  0.38915  1.0000
  H   H746      1.0  0.41026  0.84520  0.37405  1.0000
  H   H747      1.0  0.47626  0.83389  0.19670  1.0000
  H   H748      1.0  0.46065  0.78868  0.17942  1.0000
  Fe  Fe84      1.0  0.32785  0.80066  0.27290  1.0000
  C   C456      1.0  0.33834  0.81986  0.13449  1.0000
  C   C457      1.0  0.61816  0.90927  0.04661  1.0000
  H   H749      1.0  0.35726  0.92109  0.08897  1.0000
  C   C458      1.0  0.31796  0.81854  0.18646  1.0000
  H   H750      1.0  0.40099  0.81259  0.40234  1.0000
  C   C459      1.0  0.34095  0.88333  0.06198  1.0000
  H   H751      1.0  0.64252  0.92721  0.12548  1.0000
  C   C460      1.0  0.63314  0.92682  0.10136  1.0000
  C   C461      1.0  0.32583  0.79283  0.44935  1.0000
  H   H752      1.0  0.49328  0.79052  0.20308  1.0000
  Fe  Fe85      1.0  0.32394  0.75862  0.29474  1.0000
  H   H753      1.0  0.56687  0.81809  0.43224  1.0000
  H   H754      1.0  0.54711  0.79056  0.38826  1.0000
  S   S174      1.0  0.31315  0.81511  0.23271  1.0000
  H   H755      1.0  0.36307  0.82799  0.44998  1.0000
  H   H756      1.0  0.37494  0.80563  0.39026  1.0000
  H   H757      1.0  0.38473  0.83868  0.35947  1.0000
  H   H758      1.0  0.58790  0.79853  0.35765  1.0000
  H   H759      1.0  0.31224  0.88468  0.13259  1.0000
  H   H760      1.0  0.46921  0.73801  0.27392  1.0000
  C   C462      1.0  0.57469  0.80795  0.44069  1.0000
  C   C463      1.0  0.55583  0.78161  0.39838  1.0000
  N   N49       1.0  0.57623  0.79497  0.41069  1.0000
  H   H761      1.0  0.60554  0.88900  0.10687  1.0000
  H   H762      1.0  0.39828  0.83693  0.47029  1.0000
  H   H763      1.0  0.60310  0.79208  0.43191  1.0000
  C   C464      1.0  0.62078  0.89035  0.09795  1.0000
  H   H764      1.0  0.61660  0.89647  0.02817  1.0000
  H   H765      1.0  0.35701  0.82794  0.40349  1.0000
  H   H766      1.0  0.61855  0.87670  0.08104  1.0000
  C   C465      1.0  0.31929  0.87789  0.11253  1.0000
  H   H767      1.0  0.36934  0.85143  0.42724  1.0000
  H   H768      1.0  0.64061  0.94121  0.08708  1.0000
  C   C466      1.0  0.34947  0.78374  0.48566  1.0000
  H   H769      1.0  0.43047  0.74021  0.30651  1.0000
  H   H770      1.0  0.31176  0.77754  0.20347  1.0000
  H   H771      1.0  0.31049  0.75990  0.16824  1.0000
  Fe  Fe86      1.0  0.31094  0.83274  0.02015  1.0000
  H   H772      1.0  0.36133  0.77777  0.48748  1.0000
  H   H773      1.0  0.31110  0.90885  0.08604  1.0000
  Fe  Fe87      1.0  0.34576  0.78788  0.61709  1.0000
  S   S175      1.0  0.35298  0.76292  0.64261  1.0000
  S   S176      1.0  0.35365  0.78741  0.55826  1.0000
  C   C467      1.0  0.33539  0.81535  0.78687  1.0000
  Fe  Fe88      1.0  0.36754  0.78512  0.68664  1.0000
  S   S177      1.0  0.39589  0.78511  0.71386  1.0000
  S   S178      1.0  0.36236  0.81091  0.66020  1.0000
  Fe  Fe89      1.0  0.50720  0.77306  0.65910  1.0000
  S   S179      1.0  0.53974  0.78588  0.64433  1.0000
  C   C468      1.0  0.32708  0.79739  0.51430  1.0000
  Fe  Fe90      1.0  0.50109  0.81183  0.64293  1.0000
  S   S180      1.0  0.53324  0.82772  0.62685  1.0000
  S   S181      1.0  0.47904  0.82745  0.63790  1.0000
  Fe  Fe91      1.0  0.52898  0.79874  0.59684  1.0000
  S   S182      1.0  0.53722  0.79280  0.54003  1.0000
  Fe  Fe92      1.0  0.54073  0.81343  0.67586  1.0000
  S   S183      1.0  0.56646  0.83112  0.71489  1.0000
  S   S184      1.0  0.49633  0.78389  0.61023  1.0000
  S   S185      1.0  0.50871  0.79965  0.69350  1.0000
  Fe  Fe93      1.0  0.58527  0.85077  0.92917  1.0000
  S   S186      1.0  0.61823  0.85634  0.92452  1.0000
  S   S187      1.0  0.56169  0.84271  0.88353  1.0000
  H   H774      1.0  0.44079  0.76091  0.70240  1.0000
  S   S188      1.0  0.57942  0.82705  0.97126  1.0000
  H   H775      1.0  0.32181  0.74830  0.51255  1.0000
  C   C469      1.0  0.34091  0.91094  0.87274  1.0000
  H   H776      1.0  0.33678  0.97542  0.96633  1.0000
  C   C470      1.0  0.62143  0.78094  0.96205  1.0000
  C   C471      1.0  0.34923  0.88622  0.90585  1.0000
  N   N50       1.0  0.59665  0.79983  0.85797  1.0000
  S   S189      1.0  0.32795  0.85373  0.97735  1.0000
  C   C472      1.0  0.56512  0.83345  0.76200  1.0000
  C   C473      1.0  0.58222  0.84616  0.78148  1.0000
  C   C474      1.0  0.58161  0.84891  0.81873  1.0000
  C   C475      1.0  0.56379  0.83904  0.83697  1.0000
  C   C476      1.0  0.54673  0.82626  0.81750  1.0000
  C   C477      1.0  0.54744  0.82327  0.78037  1.0000
  H   H777      1.0  0.59598  0.85415  0.76757  1.0000
  H   H778      1.0  0.59476  0.85907  0.83315  1.0000
  H   H779      1.0  0.53286  0.81854  0.83130  1.0000
  H   H780      1.0  0.53426  0.81320  0.76594  1.0000
  H   H781      1.0  0.33505  0.91590  0.89706  1.0000
  C   C478      1.0  0.34121  0.96263  0.97023  1.0000
  H   H782      1.0  0.32171  0.80233  0.53809  1.0000
  H   H783      1.0  0.36228  0.89221  0.83857  1.0000
  H   H784      1.0  0.46263  0.74517  0.62299  1.0000
  C   C479      1.0  0.34255  0.78989  0.51694  1.0000
  H   H785      1.0  0.59098  0.76864  0.98097  1.0000
  C   C480      1.0  0.58296  0.79956  0.88726  1.0000
  C   C481      1.0  0.45605  0.81623  0.65969  1.0000
  C   C482      1.0  0.45511  0.80596  0.69146  1.0000
  C   C483      1.0  0.43665  0.79728  0.70867  1.0000
  C   C484      1.0  0.41895  0.79811  0.69350  1.0000
  C   C485      1.0  0.41988  0.80841  0.66177  1.0000
  C   C486      1.0  0.43848  0.81772  0.64518  1.0000
  H   H786      1.0  0.46858  0.80486  0.70300  1.0000
  H   H787      1.0  0.43598  0.78956  0.73350  1.0000
  H   H788      1.0  0.40628  0.80915  0.64996  1.0000
  H   H789      1.0  0.43917  0.82575  0.62068  1.0000
  H   H790      1.0  0.62252  0.82247  0.88329  1.0000
  H   H791      1.0  0.32798  0.74460  0.57555  1.0000
  C   C487      1.0  0.32316  0.82225  0.84436  1.0000
  S   S190      1.0  0.31572  0.77924  0.64379  1.0000
  N   N51       1.0  0.43699  0.74624  0.65093  1.0000
  H   H792      1.0  0.42790  0.77161  0.64530  1.0000
  H   H793      1.0  0.45154  0.77480  0.62558  1.0000
  Fe  Fe94      1.0  0.61248  0.83299  0.96767  1.0000
  H   H794      1.0  0.57265  0.78154  0.82256  1.0000
  H   H795      1.0  0.61363  0.78627  0.88880  1.0000
  N   N52       1.0  0.33818  0.88937  0.87437  1.0000
  C   C488      1.0  0.63779  0.77591  0.95170  1.0000
  C   C489      1.0  0.43617  0.76355  0.63062  1.0000
  Fe  Fe95      1.0  0.33285  0.79986  0.68956  1.0000
  H   H796      1.0  0.59535  0.79686  0.80071  1.0000
  C   C490      1.0  0.32015  0.81948  0.76882  1.0000
  H   H797      1.0  0.34620  0.81125  0.77198  1.0000
  S   S191      1.0  0.59095  0.87599  0.96996  1.0000
  C   C491      1.0  0.60476  0.78378  0.86332  1.0000
  H   H798      1.0  0.59243  0.76872  0.86457  1.0000
  H   H799      1.0  0.61499  0.78338  0.84150  1.0000
  H   H800      1.0  0.59086  0.80194  0.91364  1.0000
  H   H801      1.0  0.54291  0.83326  0.51553  1.0000
  H   H802      1.0  0.46387  0.76488  0.67966  1.0000
  H   H803      1.0  0.62397  0.82059  0.83575  1.0000
  C   C492      1.0  0.61973  0.74010  0.96407  1.0000
  H   H804      1.0  0.34413  0.86696  0.84253  1.0000
  C   C493      1.0  0.44850  0.75363  0.68462  1.0000
  S   S192      1.0  0.33939  0.77574  0.71858  1.0000
  C   C494      1.0  0.44698  0.73522  0.62957  1.0000
  S   S193      1.0  0.31170  0.90073  0.97319  1.0000
  N   N53       1.0  0.52165  0.86401  0.73115  1.0000
  C   C495      1.0  0.52770  0.88609  0.73592  1.0000
  C   C496      1.0  0.52142  0.85473  0.76620  1.0000
  C   C497      1.0  0.53620  0.85971  0.70802  1.0000
  C   C498      1.0  0.50132  0.85543  0.71439  1.0000
  H   H805      1.0  0.52810  0.89350  0.70986  1.0000
  H   H806      1.0  0.54298  0.89297  0.74859  1.0000
  H   H807      1.0  0.51699  0.88988  0.75312  1.0000
  H   H808      1.0  0.51639  0.83800  0.76352  1.0000
  H   H809      1.0  0.53669  0.86031  0.77914  1.0000
  H   H810      1.0  0.51098  0.85805  0.78475  1.0000
  H   H811      1.0  0.55178  0.86594  0.71965  1.0000
  H   H812      1.0  0.53658  0.86613  0.68105  1.0000
  H   H813      1.0  0.53222  0.84320  0.70429  1.0000
  H   H814      1.0  0.49639  0.83880  0.71026  1.0000
  H   H815      1.0  0.50091  0.86190  0.68767  1.0000
  H   H816      1.0  0.48982  0.85825  0.73098  1.0000
  Fe  Fe96      1.0  0.32428  0.75599  0.67175  1.0000
  C   C499      1.0  0.60295  0.74481  0.97384  1.0000
  H   H817      1.0  0.60793  0.83219  0.85485  1.0000
  H   H818      1.0  0.40834  0.74052  0.67513  1.0000
  H   H819      1.0  0.57896  0.80814  0.81902  1.0000
  S   S194      1.0  0.62432  0.80709  0.95939  1.0000
  C   C500      1.0  0.58544  0.79639  0.82356  1.0000
  C   C501      1.0  0.61351  0.81964  0.85791  1.0000
  C   C502      1.0  0.32639  0.94273  0.96937  1.0000
  H   H820      1.0  0.56989  0.78496  0.88801  1.0000
  H   H821      1.0  0.34348  0.89045  0.93091  1.0000
  C   C503      1.0  0.33691  0.81683  0.82432  1.0000
  S   S195      1.0  0.32651  0.82434  0.89145  1.0000
  C   C504      1.0  0.53050  0.80186  0.49975  1.0000
  H   H822      1.0  0.33274  0.91388  0.84935  1.0000
  H   H823      1.0  0.33780  0.88509  0.81746  1.0000
  H   H824      1.0  0.34892  0.81379  0.83789  1.0000
  Fe  Fe97      1.0  0.62380  0.88042  0.96813  1.0000
  C   C505      1.0  0.63696  0.75590  0.95275  1.0000
  C   C506      1.0  0.35194  0.92893  0.98028  1.0000
  H   H825      1.0  0.51776  0.74336  0.62144  1.0000
  S   S196      1.0  0.49089  0.74165  0.67921  1.0000
  H   H826      1.0  0.45048  0.74110  0.69961  1.0000
  H   H827      1.0  0.57683  0.81170  0.88447  1.0000
  H   H828      1.0  0.36561  0.89549  0.90481  1.0000
  H   H829      1.0  0.35711  0.92080  0.87084  1.0000
  C   C507      1.0  0.34597  0.88319  0.84177  1.0000
  C   C508      1.0  0.53638  0.82258  0.49381  1.0000
  H   H830      1.0  0.42835  0.75864  0.60436  1.0000
  H   H831      1.0  0.34759  0.87009  0.90772  1.0000
  C   C509      1.0  0.33149  0.92563  0.97441  1.0000
  H   H832      1.0  0.63067  0.94216  0.96605  1.0000
  S   S197      1.0  0.31767  0.81748  0.72161  1.0000
  C   C510      1.0  0.36166  0.96602  0.97620  1.0000
  C   C511      1.0  0.60381  0.76515  0.97287  1.0000
  C   C512      1.0  0.36679  0.94887  0.98116  1.0000
  H   H833      1.0  0.38246  0.95108  0.98577  1.0000
  H   H834      1.0  0.35640  0.91618  0.98422  1.0000
  H   H835      1.0  0.31403  0.86069  0.87956  1.0000
  C   C513      1.0  0.31653  0.87699  0.87734  1.0000
  H   H836      1.0  0.31075  0.94064  0.96481  1.0000
  Fe  Fe98      1.0  0.65205  0.12050  0.31866  1.0000
  Fe  Fe99      1.0  0.69104  0.15679  0.31406  1.0000
  S   S198      1.0  0.70998  0.13823  0.32309  1.0000
  S   S199      1.0  0.70490  0.19040  0.30495  1.0000
  H   H837      1.0  0.64916  0.08697  0.46028  1.0000
  S   S200      1.0  0.66850  0.09940  0.32731  1.0000
  Fe  Fe100     1.0  0.68796  0.12333  0.36579  1.0000
  S   S201      1.0  0.69784  0.11529  0.41962  1.0000
  Fe  Fe101     1.0  0.68882  0.11630  0.28348  1.0000
  S   S202      1.0  0.70317  0.10149  0.24312  1.0000
  S   S203      1.0  0.67054  0.14351  0.35948  1.0000
  S   S204      1.0  0.67085  0.13569  0.27202  1.0000
  H   H838      1.0  0.74442  0.12819  0.11545  1.0000
  H   H839      1.0  0.65635  0.08583  0.41496  1.0000
  H   H840      1.0  0.78985  0.21176  0.44284  1.0000
  Fe  Fe102     1.0  0.70963  0.08382  0.02671  1.0000
  S   S205      1.0  0.72802  0.06413  0.02651  1.0000
  S   S206      1.0  0.70222  0.10137  0.07259  1.0000
  H   H841      1.0  0.79696  0.14996  0.08156  1.0000
  H   H842      1.0  0.72051  0.16834  0.26025  1.0000
  C   C514      1.0  0.75055  0.15447  0.26259  1.0000
  H   H843      1.0  0.73714  0.13622  0.19982  1.0000
  C   C515      1.0  0.70172  0.10082  0.19569  1.0000
  C   C516      1.0  0.69357  0.11278  0.17656  1.0000
  C   C517      1.0  0.69379  0.11260  0.13897  1.0000
  C   C518      1.0  0.70179  0.10023  0.11995  1.0000
  C   C519      1.0  0.70988  0.08821  0.13906  1.0000
  C   C520      1.0  0.70999  0.08866  0.17669  1.0000
  H   H844      1.0  0.68708  0.12216  0.19064  1.0000
  H   H845      1.0  0.68748  0.12196  0.12448  1.0000
  H   H846      1.0  0.71598  0.07851  0.12495  1.0000
  H   H847      1.0  0.71634  0.07934  0.19122  1.0000
  C   C521      1.0  0.67466  0.12955  0.46273  1.0000
  C   C522      1.0  0.68838  0.11982  0.46092  1.0000
  C   C523      1.0  0.76035  0.13348  0.05064  1.0000
  H   H848      1.0  0.76213  0.15467  0.19454  1.0000
  H   H849      1.0  0.67028  0.13521  0.43875  1.0000
  H   H850      1.0  0.74113  0.13811  0.26505  1.0000
  C   C524      1.0  0.73110  0.20139  0.31303  1.0000
  C   C525      1.0  0.74248  0.21999  0.29802  1.0000
  H   H851      1.0  0.81406  0.21007  0.43602  1.0000
  C   C526      1.0  0.77339  0.21691  0.31960  1.0000
  C   C527      1.0  0.76195  0.19875  0.33565  1.0000
  C   C528      1.0  0.74089  0.19116  0.33273  1.0000
  H   H852      1.0  0.74069  0.15853  0.17489  1.0000
  H   H853      1.0  0.77291  0.18758  0.22768  1.0000
  H   H854      1.0  0.76939  0.19038  0.35010  1.0000
  H   H855      1.0  0.73224  0.17737  0.34583  1.0000
  C   C529      1.0  0.78999  0.13317  0.08187  1.0000
  H   H856      1.0  0.76418  0.09733  0.10505  1.0000
  C   C530      1.0  0.76366  0.22782  0.30141  1.0000
  H   H857      1.0  0.74249  0.09772  0.08077  1.0000
  H   H858      1.0  0.73497  0.22809  0.28299  1.0000
  H   H859      1.0  0.76733  0.15022  0.11629  1.0000
  H   H860      1.0  0.79524  0.12739  0.05778  1.0000
  C   C531      1.0  0.76120  0.13342  0.11482  1.0000
  C   C532      1.0  0.75927  0.10364  0.08135  1.0000
  H   H861      1.0  0.76415  0.09750  0.05728  1.0000
  H   H862      1.0  0.75510  0.19331  0.25425  1.0000
  H   H863      1.0  0.75220  0.19219  0.20679  1.0000
  C   C533      1.0  0.80349  0.21711  0.42613  1.0000
  H   H864      1.0  0.76440  0.12750  0.02560  1.0000
  N   N54       1.0  0.76774  0.12596  0.08221  1.0000
  H   H865      1.0  0.74362  0.12871  0.05052  1.0000
  H   H866      1.0  0.71275  0.14459  0.23676  1.0000
  S   S207      1.0  0.79973  0.22468  0.32154  1.0000
  H   H867      1.0  0.76654  0.15592  0.26055  1.0000
  H   H868      1.0  0.79613  0.12796  0.10551  1.0000
  H   H869      1.0  0.76689  0.15025  0.04964  1.0000
  H   H870      1.0  0.76627  0.12780  0.13919  1.0000
  H   H871      1.0  0.74929  0.16218  0.28790  1.0000
  N   N55       1.0  0.74403  0.16327  0.23162  1.0000
  C   C534      1.0  0.72270  0.16080  0.23546  1.0000
  C   C535      1.0  0.74615  0.15274  0.19866  1.0000
  C   C536      1.0  0.75663  0.18501  0.22986  1.0000
  H   H872      1.0  0.71723  0.16745  0.21287  1.0000
  H   H873      1.0  0.79869  0.21123  0.39844  1.0000
  H   H874      1.0  0.82171  0.10821  0.99137  1.0000
  H   H875      1.0  0.85278  0.13864  0.99355  1.0000
  C   C537      1.0  0.64398  0.07904  0.43412  1.0000
  C   C538      1.0  0.83841  0.14029  0.99015  1.0000
  C   C539      1.0  0.72268  0.14679  0.75501  1.0000
  S   S208      1.0  0.79845  0.21432  0.64721  1.0000
  Fe  Fe103     1.0  0.68807  0.15588  0.68734  1.0000
  S   S209      1.0  0.69612  0.13254  0.65777  1.0000
  S   S210      1.0  0.70926  0.18753  0.70179  1.0000
  H   H876      1.0  0.69396  0.14512  0.80166  1.0000
  C   C540      1.0  0.72198  0.16065  0.57987  1.0000
  Fe  Fe104     1.0  0.67726  0.11128  0.69911  1.0000
  S   S211      1.0  0.69024  0.09150  0.73031  1.0000
  Fe  Fe105     1.0  0.66697  0.12582  0.62698  1.0000
  H   H877      1.0  0.65566  0.13918  0.49660  1.0000
  S   S212      1.0  0.67110  0.13532  0.72995  1.0000
  S   S213      1.0  0.66032  0.15087  0.65445  1.0000
  H   H878      1.0  0.65945  0.02859  0.94200  1.0000
  H   H879      1.0  0.87788  0.19364  0.83491  1.0000
  H   H880      1.0  0.65902  0.99899  0.90660  1.0000
  H   H881      1.0  0.85736  0.20504  0.91935  1.0000
  H   H882      1.0  0.83770  0.20170  0.88716  1.0000
  C   C541      1.0  0.70627  0.16016  0.79877  1.0000
  H   H883      1.0  0.69002  0.03092  0.86155  1.0000
  Fe  Fe106     1.0  0.70635  0.08229  0.94383  1.0000
  S   S214      1.0  0.72539  0.06342  0.93921  1.0000
  S   S215      1.0  0.68971  0.09242  0.90037  1.0000
  H   H884      1.0  0.73602  0.21147  0.57168  1.0000
  H   H885      1.0  0.70127  0.16843  0.77800  1.0000
  C   C542      1.0  0.74123  0.17838  0.78547  1.0000
  H   H886      1.0  0.70764  0.14723  0.57732  1.0000
  N   N56       1.0  0.72541  0.15809  0.78919  1.0000
  H   H887      1.0  0.84769  0.16166  0.83484  1.0000
  H   H888      1.0  0.70081  0.19572  0.59230  1.0000
  C   C543      1.0  0.69419  0.11289  0.49253  1.0000
  H   H889      1.0  0.73287  0.15822  0.56123  1.0000
  H   H890      1.0  0.73347  0.15496  0.84362  1.0000
  H   H891      1.0  0.73693  0.18711  0.76461  1.0000
  C   C544      1.0  0.69013  0.09170  0.77764  1.0000
  C   C545      1.0  0.70297  0.08438  0.79684  1.0000
  C   C546      1.0  0.70337  0.08471  0.83448  1.0000
  C   C547      1.0  0.69073  0.09220  0.85320  1.0000
  C   C548      1.0  0.67790  0.09945  0.83396  1.0000
  C   C549      1.0  0.67761  0.09923  0.79648  1.0000
  H   H892      1.0  0.71275  0.07855  0.78250  1.0000
  H   H893      1.0  0.71343  0.07920  0.84890  1.0000
  H   H894      1.0  0.66794  0.10511  0.84815  1.0000
  H   H895      1.0  0.66732  0.10448  0.78222  1.0000
  C   C550      1.0  0.67209  0.12475  0.52718  1.0000
  C   C551      1.0  0.68616  0.11541  0.52559  1.0000
  C   C552      1.0  0.80164  0.12415  0.98450  1.0000
  H   H896      1.0  0.69058  0.10980  0.54964  1.0000
  C   C553      1.0  0.84616  0.19368  0.90153  1.0000
  H   H897      1.0  0.74572  0.14504  0.81089  1.0000
  H   H898      1.0  0.73683  0.14509  0.74656  1.0000
  S   S216      1.0  0.68704  0.06366  0.98689  1.0000
  H   H899      1.0  0.74058  0.22668  0.69619  1.0000
  C   C554      1.0  0.77405  0.20733  0.66377  1.0000
  C   C555      1.0  0.76187  0.18676  0.66450  1.0000
  C   C556      1.0  0.74201  0.18058  0.67622  1.0000
  C   C557      1.0  0.73424  0.19493  0.68752  1.0000
  C   C558      1.0  0.74651  0.21550  0.68739  1.0000
  C   C559      1.0  0.76638  0.22173  0.67532  1.0000
  H   H900      1.0  0.76783  0.17560  0.65567  1.0000
  H   H901      1.0  0.73283  0.16471  0.67654  1.0000
  H   H902      1.0  0.86176  0.20788  0.83830  1.0000
  C   C560      1.0  0.71154  0.17883  0.53498  1.0000
  H   H903      1.0  0.83004  0.15697  0.87040  1.0000
  H   H904      1.0  0.66028  0.03121  0.82831  1.0000
  S   S217      1.0  0.77998  0.10078  0.98461  1.0000
  H   H905      1.0  0.87928  0.18560  0.91493  1.0000
  H   H906      1.0  0.68860  0.16870  0.59245  1.0000
  H   H907      1.0  0.71970  0.13159  0.82052  1.0000
  Fe  Fe107     1.0  0.87786  0.21545  0.98559  1.0000
  H   H908      1.0  0.66030  0.05239  0.85461  1.0000
  N   N57       1.0  0.71869  0.17949  0.57229  1.0000
  H   H909      1.0  0.68969  0.02932  0.90923  1.0000
  H   H910      1.0  0.69037  0.05207  0.88838  1.0000
  H   H911      1.0  0.71776  0.15451  0.73341  1.0000
  N   N58       1.0  0.66168  0.02760  0.88501  1.0000
  S   S218      1.0  0.66110  0.12828  0.56750  1.0000
  S   S219      1.0  0.64855  0.10213  0.66544  1.0000
  H   H912      1.0  0.88165  0.21198  0.87032  1.0000
  C   C561      1.0  0.73782  0.19700  0.57782  1.0000
  H   H913      1.0  0.71098  0.13140  0.75684  1.0000
  C   C562      1.0  0.80084  0.14356  0.98136  1.0000
  C   C563      1.0  0.73139  0.14698  0.81731  1.0000
  H   H914      1.0  0.74330  0.19827  0.60597  1.0000
  H   H915      1.0  0.70796  0.18139  0.62491  1.0000
  C   C564      1.0  0.68392  0.03531  0.88604  1.0000
  H   H916      1.0  0.70775  0.16862  0.82445  1.0000
  H   H917      1.0  0.83552  0.18229  0.91894  1.0000
  H   H918      1.0  0.75581  0.17743  0.77753  1.0000
  H   H919      1.0  0.87553  0.16735  0.87938  1.0000
  S   S220      1.0  0.72704  0.10430  0.98367  1.0000
  Fe  Fe108     1.0  0.70622  0.04467  0.98347  1.0000
  S   S221      1.0  0.85967  0.23442  0.97550  1.0000
  C   C565      1.0  0.84070  0.16904  0.85400  1.0000
  C   C566      1.0  0.86997  0.20006  0.85398  1.0000
  C   C567      1.0  0.65378  0.00528  0.88310  1.0000
  C   C568      1.0  0.83790  0.15967  0.98727  1.0000
  H   H920      1.0  0.74386  0.18734  0.81081  1.0000
  N   N59       1.0  0.85614  0.18432  0.87664  1.0000
  H   H921      1.0  0.85768  0.16263  0.91470  1.0000
  C   C569      1.0  0.86767  0.17452  0.89716  1.0000
  H   H922      1.0  0.74996  0.19573  0.56087  1.0000
  H   H923      1.0  0.83171  0.17598  0.83829  1.0000
  H   H924      1.0  0.70904  0.19287  0.52817  1.0000
  C   C570      1.0  0.66642  0.13180  0.49560  1.0000
  H   H925      1.0  0.72250  0.17691  0.51590  1.0000
  H   H926      1.0  0.65898  0.99967  0.85883  1.0000
  S   S222      1.0  0.90038  0.22960  0.94257  1.0000
  S   S223      1.0  0.68526  0.01032  0.97837  1.0000
  C   C571      1.0  0.70335  0.18143  0.59651  1.0000
  H   H927      1.0  0.66030  0.05114  0.92008  1.0000
  Fe  Fe109     1.0  0.74519  0.08469  0.98234  1.0000
  H   H928      1.0  0.72805  0.16092  0.60740  1.0000
  C   C572      1.0  0.82064  0.12289  0.98885  1.0000
  C   C573      1.0  0.65471  0.03556  0.85344  1.0000
  H   H929      1.0  0.69697  0.16595  0.53023  1.0000
  C   C574      1.0  0.81888  0.16124  0.98288  1.0000
  H   H930      1.0  0.81807  0.17603  0.98068  1.0000
  S   S224      1.0  0.86174  0.18071  0.98872  1.0000
  H   H931      1.0  0.78642  0.14500  0.97760  1.0000
  H   H932      1.0  0.70479  0.10531  0.49137  1.0000
  C   C575      1.0  0.65444  0.03433  0.91764  1.0000
  Fe  Fe110     1.0  0.64387  0.12785  0.69416  1.0000
  Fe  Fe111     1.0  0.84553  0.46470  0.34233  1.0000
  S   S225      1.0  0.82835  0.43255  0.32467  1.0000
  Fe  Fe112     1.0  0.88080  0.25695  0.01409  1.0000
  H   H933      1.0  0.91913  0.25822  0.10072  1.0000
  S   S226      1.0  0.84155  0.44673  0.24207  1.0000
  Fe  Fe113     1.0  0.81698  0.44589  0.27932  1.0000
  S   S227      1.0  0.78423  0.43136  0.26259  1.0000
  Fe  Fe114     1.0  0.85453  0.43651  0.28924  1.0000
  S   S228      1.0  0.87009  0.41446  0.28131  1.0000
  S   S229      1.0  0.87287  0.46789  0.30996  1.0000
  Fe  Fe115     1.0  0.85768  0.27789  0.26468  1.0000
  S   S230      1.0  0.82479  0.27011  0.25223  1.0000
  S   S231      1.0  0.87778  0.27041  0.22456  1.0000
  Fe  Fe116     1.0  0.85378  0.29152  0.34280  1.0000
  S   S232      1.0  0.82075  0.28430  0.33451  1.0000
  S   S233      1.0  0.86458  0.30765  0.39654  1.0000
  Fe  Fe117     1.0  0.81990  0.25616  0.30624  1.0000
  Fe  Fe118     1.0  0.82928  0.29931  0.28181  1.0000
  S   S234      1.0  0.81509  0.32181  0.26702  1.0000
  S   S235      1.0  0.85260  0.26230  0.31768  1.0000
  S   S236      1.0  0.86253  0.30805  0.29109  1.0000
  Fe  Fe119     1.0  0.69518  0.46126  0.30976  1.0000
  H   H934      1.0  0.78484  0.24362  0.42934  1.0000
  Fe  Fe120     1.0  0.65622  0.42619  0.29087  1.0000
  H   H935      1.0  0.93371  0.31323  0.11935  1.0000
  Fe  Fe121     1.0  0.65683  0.45710  0.34787  1.0000
  C   C576      1.0  0.65245  0.45724  0.44247  1.0000
  S   S237      1.0  0.67973  0.44864  0.25751  1.0000
  S   S238      1.0  0.67392  0.43652  0.34229  1.0000
  H   H936      1.0  0.80636  0.43744  0.39237  1.0000
  H   H937      1.0  0.82749  0.23882  0.37735  1.0000
  C   C577      1.0  0.76444  0.47420  0.29886  1.0000
  H   H938      1.0  0.96182  0.31691  0.07825  1.0000
  C   C578      1.0  0.87337  0.26981  0.17775  1.0000
  C   C579      1.0  0.81913  0.24667  0.46408  1.0000
  C   C580      1.0  0.87826  0.25797  0.11822  1.0000
  C   C581      1.0  0.86987  0.27080  0.10244  1.0000
  H   H939      1.0  0.85886  0.29140  0.17857  1.0000
  C   C582      1.0  0.86425  0.28201  0.16196  1.0000
  H   H940      1.0  0.85570  0.47391  0.17476  1.0000
  C   C583      1.0  0.84317  0.34349  0.40903  1.0000
  H   H941      1.0  0.87630  0.34993  0.37204  1.0000
  C   C584      1.0  0.76863  0.44448  0.27405  1.0000
  C   C585      1.0  0.74763  0.43438  0.27317  1.0000
  C   C586      1.0  0.73506  0.44408  0.28585  1.0000
  C   C587      1.0  0.74357  0.46389  0.29933  1.0000
  H   H942      1.0  0.80322  0.46578  0.35798  1.0000
  C   C588      1.0  0.77693  0.46453  0.28621  1.0000
  H   H943      1.0  0.74112  0.41886  0.26363  1.0000
  H   H944      1.0  0.71889  0.43608  0.28595  1.0000
  C   C589      1.0  0.76547  0.44763  0.41701  1.0000
  H   H945      1.0  0.79297  0.47259  0.28610  1.0000
  C   C590      1.0  0.85458  0.38911  0.27228  1.0000
  C   C591      1.0  0.86348  0.37469  0.26897  1.0000
  C   C592      1.0  0.85147  0.35404  0.26586  1.0000
  C   C593      1.0  0.83047  0.34768  0.26578  1.0000
  C   C594      1.0  0.82155  0.36222  0.26690  1.0000
  C   C595      1.0  0.83357  0.38292  0.27031  1.0000
  H   H946      1.0  0.87972  0.37942  0.26984  1.0000
  H   H947      1.0  0.85849  0.34306  0.26378  1.0000
  H   H948      1.0  0.80529  0.35743  0.26635  1.0000
  H   H949      1.0  0.82656  0.39397  0.27234  1.0000
  C   C596      1.0  0.79455  0.43841  0.41055  1.0000
  C   C597      1.0  0.86408  0.29613  0.43827  1.0000
  C   C598      1.0  0.87217  0.28120  0.44268  1.0000
  H   H950      1.0  0.86581  0.44403  0.17483  1.0000
  H   H951      1.0  0.87831  0.27604  0.42005  1.0000
  C   C599      1.0  0.84672  0.46745  0.44129  1.0000
  H   H952      1.0  0.89719  0.47065  0.15359  1.0000
  H   H953      1.0  0.90778  0.42522  0.17942  1.0000
  S   S239      1.0  0.83254  0.47792  0.29855  1.0000
  N   N60       1.0  0.89594  0.44813  0.19200  1.0000
  C   C600      1.0  0.68121  0.45930  0.48004  1.0000
  C   C601      1.0  0.86338  0.35099  0.35642  1.0000
  H   H954      1.0  0.91148  0.47200  0.22996  1.0000
  C   C602      1.0  0.85632  0.45372  0.44553  1.0000
  H   H955      1.0  0.80260  0.44854  0.43326  1.0000
  H   H956      1.0  0.82424  0.34199  0.34486  1.0000
  C   C603      1.0  0.77039  0.43231  0.36201  1.0000
  H   H957      1.0  0.96441  0.29484  0.05904  1.0000
  S   S240      1.0  0.89815  0.23732  0.02710  1.0000
  H   H958      1.0  0.82612  0.26343  0.46560  1.0000
  H   H959      1.0  0.93939  0.26093  0.07110  1.0000
  H   H960      1.0  0.86807  0.43792  0.48298  1.0000
  H   H961      1.0  0.75473  0.45344  0.40361  1.0000
  H   H962      1.0  0.87987  0.26231  0.47999  1.0000
  H   H963      1.0  0.94013  0.29570  0.14636  1.0000
  H   H964      1.0  0.83752  0.26230  0.40133  1.0000
  H   H965      1.0  0.94441  0.26592  0.11808  1.0000
  H   H966      1.0  0.85619  0.34325  0.42542  1.0000
  C   C604      1.0  0.67755  0.47725  0.16814  1.0000
  H   H967      1.0  0.69694  0.46134  0.48238  1.0000
  H   H968      1.0  0.87475  0.37902  0.40888  1.0000
  C   C605      1.0  0.87315  0.27352  0.47671  1.0000
  H   H969      1.0  0.83481  0.32771  0.39918  1.0000
  C   C606      1.0  0.86122  0.37820  0.39291  1.0000
  H   H970      1.0  0.90934  0.28082  0.06266  1.0000
  S   S241      1.0  0.86894  0.27328  0.05545  1.0000
  N   N61       1.0  0.85003  0.35745  0.37906  1.0000
  H   H971      1.0  0.78137  0.43129  0.34200  1.0000
  H   H972      1.0  0.86970  0.36171  0.33460  1.0000
  H   H973      1.0  0.85604  0.29249  0.11265  1.0000
  H   H974      1.0  0.83700  0.36828  0.33620  1.0000
  S   S242      1.0  0.67917  0.48268  0.31821  1.0000
  C   C607      1.0  0.86270  0.28263  0.12453  1.0000
  C   C608      1.0  0.83236  0.35710  0.35776  1.0000
  H   H975      1.0  0.82140  0.36088  0.37426  1.0000
  C   C609      1.0  0.90745  0.43544  0.20187  1.0000
  S   S243      1.0  0.72872  0.47620  0.31751  1.0000
  H   H976      1.0  0.87432  0.42463  0.15968  1.0000
  H   H977      1.0  0.78211  0.47314  0.36507  1.0000
  H   H978      1.0  0.92124  0.47062  0.16735  1.0000
  H   H979      1.0  0.68174  0.46129  0.42255  1.0000
  H   H980      1.0  0.86739  0.42544  0.20528  1.0000
  H   H981      1.0  0.92629  0.30606  0.05509  1.0000
  H   H982      1.0  0.75947  0.43752  0.34788  1.0000
  H   H983      1.0  0.86652  0.38906  0.37072  1.0000
  H   H984      1.0  0.92328  0.44484  0.20967  1.0000
  H   H985      1.0  0.85511  0.33583  0.34400  1.0000
  H   H986      1.0  0.83305  0.34781  0.42679  1.0000
  H   H987      1.0  0.90524  0.45115  0.13738  1.0000
  Fe  Fe122     1.0  0.66235  0.46855  0.26746  1.0000
  H   H988      1.0  0.78648  0.42309  0.42117  1.0000
  H   H989      1.0  0.79395  0.24312  0.38522  1.0000
  H   H990      1.0  0.85161  0.38361  0.41008  1.0000
  C   C610      1.0  0.67262  0.45926  0.44599  1.0000
  H   H991      1.0  0.96912  0.30021  0.10594  1.0000
  H   H992      1.0  0.91529  0.28879  0.12740  1.0000
  H   H993      1.0  0.93025  0.28510  0.03405  1.0000
  Fe  Fe123     1.0  0.85813  0.47794  0.26433  1.0000
  C   C611      1.0  0.87496  0.43499  0.18249  1.0000
  N   N62       1.0  0.93786  0.28896  0.08996  1.0000
  C   C612      1.0  0.93511  0.26759  0.09524  1.0000
  C   C613      1.0  0.93157  0.29705  0.12219  1.0000
  C   C614      1.0  0.92544  0.29034  0.05909  1.0000
  C   C615      1.0  0.95930  0.30081  0.08310  1.0000
  H   H994      1.0  0.86126  0.44781  0.42231  1.0000
  C   C616      1.0  0.88031  0.25776  0.15566  1.0000
  C   C617      1.0  0.86015  0.44812  0.48000  1.0000
  H   H995      1.0  0.88947  0.45254  0.24652  1.0000
  N   N63       1.0  0.78064  0.44618  0.39192  1.0000
  H   H996      1.0  0.67831  0.46543  0.18502  1.0000
  H   H997      1.0  0.75648  0.43262  0.42801  1.0000
  H   H998      1.0  0.77277  0.45809  0.43978  1.0000
  C   C618      1.0  0.79870  0.24815  0.41323  1.0000
  H   H999      1.0  0.85075  0.31486  0.46533  1.0000
  H   H1000     1.0  0.90057  0.42576  0.22493  1.0000
  C   C619      1.0  0.84054  0.47507  0.47188  1.0000
  H   H1001     1.0  0.88328  0.24835  0.10160  1.0000
  C   C620      1.0  0.85683  0.30317  0.46824  1.0000
  H   H1002     1.0  0.76189  0.41675  0.37122  1.0000
  H   H1003     1.0  0.86016  0.47327  0.10926  1.0000
  C   C621      1.0  0.79216  0.46643  0.37806  1.0000
  H   H1004     1.0  0.69364  0.46988  0.12528  1.0000
  C   C622      1.0  0.89599  0.46143  0.22256  1.0000
  S   S244      1.0  0.84207  0.47567  0.39864  1.0000
  C   C623      1.0  0.90533  0.46063  0.16123  1.0000
  H   H1005     1.0  0.80092  0.47708  0.39964  1.0000
  H   H1006     1.0  0.88694  0.47078  0.21648  1.0000
  C   C624      1.0  0.68616  0.47976  0.13417  1.0000
  H   H1007     1.0  0.74103  0.48243  0.19777  1.0000
  H   H1008     1.0  0.80553  0.26496  0.41343  1.0000
  H   H1009     1.0  0.77243  0.24191  0.28906  1.0000
  H   H1010     1.0  0.80602  0.24195  0.48205  1.0000
  H   H1011     1.0  0.65219  0.43026  0.18471  1.0000
  H   H1012     1.0  0.88721  0.24813  0.16763  1.0000
  H   H1013     1.0  0.83041  0.24084  0.47523  1.0000
  H   H1014     1.0  0.71438  0.47662  0.19740  1.0000
  C   C625      1.0  0.83111  0.24566  0.40455  1.0000
  H   H1015     1.0  0.72722  0.47547  0.23812  1.0000
  N   N64       1.0  0.81310  0.23939  0.42703  1.0000
  H   H1016     1.0  0.84317  0.24104  0.41597  1.0000
  S   S245      1.0  0.95358  0.26615  0.99656  1.0000
  C   C626      1.0  0.72854  0.48409  0.21320  1.0000
  Fe  Fe124     1.0  0.84030  0.42761  0.67655  1.0000
  S   S246      1.0  0.86879  0.45051  0.65585  1.0000
  S   S247      1.0  0.84508  0.40060  0.70045  1.0000
  Fe  Fe125     1.0  0.81682  0.45432  0.65984  1.0000
  S   S248      1.0  0.79005  0.46378  0.66301  1.0000
  Fe  Fe126     1.0  0.84957  0.45325  0.60944  1.0000
  H   H1017     1.0  0.74410  0.45085  0.79946  1.0000
  H   H1018     1.0  0.73994  0.46317  0.76039  1.0000
  S   S249      1.0  0.82133  0.42902  0.62896  1.0000
  S   S250      1.0  0.83287  0.45047  0.70945  1.0000
  Fe  Fe127     1.0  0.82500  0.29156  0.63783  1.0000
  S   S251      1.0  0.85864  0.30129  0.63621  1.0000
  S   S252      1.0  0.80856  0.31289  0.63028  1.0000
  C   C627      1.0  0.69959  0.44761  0.76122  1.0000
  Fe  Fe128     1.0  0.85474  0.27984  0.68192  1.0000
  S   S253      1.0  0.87592  0.29025  0.73064  1.0000
  Fe  Fe129     1.0  0.85228  0.27425  0.59945  1.0000
  S   S254      1.0  0.86819  0.27081  0.54898  1.0000
  S   S255      1.0  0.82131  0.27199  0.68576  1.0000
  S   S256      1.0  0.81886  0.26597  0.59809  1.0000
  H   H1019     1.0  0.86047  0.47049  0.77331  1.0000
  C   C628      1.0  0.71642  0.46714  0.81325  1.0000
  Fe  Fe130     1.0  0.66833  0.44847  0.60793  1.0000
  H   H1020     1.0  0.88688  0.39673  0.54380  1.0000
  H   H1021     1.0  0.86004  0.38309  0.54084  1.0000
  H   H1022     1.0  0.71496  0.43107  0.83638  1.0000
  Fe  Fe131     1.0  0.67804  0.42405  0.66730  1.0000
  S   S257      1.0  0.69874  0.40761  0.68108  1.0000
  H   H1023     1.0  0.76555  0.47482  0.61532  1.0000
  C   C629      1.0  0.86592  0.28054  0.50668  1.0000
  S   S258      1.0  0.65578  0.41555  0.62130  1.0000
  C   C630      1.0  0.66971  0.45695  0.51095  1.0000
  H   H1024     1.0  0.69002  0.42955  0.82415  1.0000
  H   H1025     1.0  0.86110  0.36782  0.60072  1.0000
  C   C631      1.0  0.87313  0.27727  0.77147  1.0000
  C   C632      1.0  0.86892  0.25813  0.83829  1.0000
  C   C633      1.0  0.84408  0.46923  0.50633  1.0000
  C   C634      1.0  0.88735  0.28558  0.79931  1.0000
  H   H1026     1.0  0.72066  0.45028  0.69350  1.0000
  C   C635      1.0  0.87331  0.38248  0.60829  1.0000
  C   C636      1.0  0.70485  0.43071  0.81335  1.0000
  H   H1027     1.0  0.82275  0.33420  0.74053  1.0000
  C   C637      1.0  0.85415  0.45590  0.51063  1.0000
  S   S259      1.0  0.68184  0.45843  0.55320  1.0000
  C   C638      1.0  0.73311  0.44980  0.77750  1.0000
  C   C639      1.0  0.76548  0.44724  0.67206  1.0000
  C   C640      1.0  0.75147  0.45572  0.68193  1.0000
  C   C641      1.0  0.73117  0.44351  0.68569  1.0000
  C   C642      1.0  0.72459  0.42269  0.67934  1.0000
  C   C643      1.0  0.73873  0.41401  0.67095  1.0000
  C   C644      1.0  0.75920  0.42630  0.66717  1.0000
  H   H1028     1.0  0.85200  0.30083  0.52517  1.0000
  H   H1029     1.0  0.72296  0.47309  0.53334  1.0000
  H   H1030     1.0  0.73377  0.39786  0.66639  1.0000
  H   H1031     1.0  0.76998  0.41966  0.65959  1.0000
  H   H1032     1.0  0.76911  0.46695  0.57141  1.0000
  H   H1033     1.0  0.71798  0.48210  0.59491  1.0000
  C   C645      1.0  0.87057  0.48395  0.78701  1.0000
  C   C646      1.0  0.83474  0.37644  0.68022  1.0000
  C   C647      1.0  0.81723  0.37057  0.65895  1.0000
  C   C648      1.0  0.80936  0.35104  0.64353  1.0000
  C   C649      1.0  0.81912  0.33745  0.64889  1.0000
  C   C650      1.0  0.83693  0.34354  0.66935  1.0000
  C   C651      1.0  0.84453  0.36288  0.68543  1.0000
  H   H1034     1.0  0.80955  0.38093  0.65495  1.0000
  H   H1035     1.0  0.79557  0.34638  0.62768  1.0000
  H   H1036     1.0  0.84470  0.33326  0.67300  1.0000
  H   H1037     1.0  0.85827  0.36758  0.70138  1.0000
  S   S260      1.0  0.85176  0.25380  0.64501  1.0000
  H   H1038     1.0  0.83486  0.28837  0.75811  1.0000
  Fe  Fe132     1.0  0.86021  0.47353  0.68597  1.0000
  H   H1039     1.0  0.84258  0.34770  0.79553  1.0000
  C   C652      1.0  0.85722  0.32732  0.75008  1.0000
  H   H1040     1.0  0.84829  0.29809  0.79894  1.0000
  H   H1041     1.0  0.86223  0.47196  0.83937  1.0000
  H   H1042     1.0  0.86054  0.34327  0.74287  1.0000
  H   H1043     1.0  0.87050  0.32675  0.76528  1.0000
  H   H1044     1.0  0.85348  0.33264  0.81999  1.0000
  H   H1045     1.0  0.85604  0.31848  0.72489  1.0000
  N   N65       1.0  0.71352  0.44883  0.79136  1.0000
  C   C653      1.0  0.72993  0.45067  0.58488  1.0000
  S   S261      1.0  0.65695  0.42941  0.70636  1.0000
  Fe  Fe133     1.0  0.81854  0.24730  0.64575  1.0000
  C   C654      1.0  0.87204  0.39723  0.55110  1.0000
  H   H1046     1.0  0.87295  0.38433  0.63773  1.0000
  H   H1047     1.0  0.96874  0.29964  0.94507  1.0000
  H   H1048     1.0  0.70554  0.46107  0.74407  1.0000
  H   H1049     1.0  0.83954  0.47548  0.52958  1.0000
  H   H1050     1.0  0.72701  0.46875  0.83613  1.0000
  S   S262      1.0  0.86522  0.24531  0.87941  1.0000
  S   S263      1.0  0.90159  0.27400  0.97072  1.0000
  C   C655      1.0  0.66346  0.47682  0.82810  1.0000
  H   H1051     1.0  0.87027  0.41014  0.53688  1.0000
  Fe  Fe134     1.0  0.88212  0.24904  0.93302  1.0000
  Fe  Fe135     1.0  0.66992  0.46157  0.68882  1.0000
  H   H1052     1.0  0.81968  0.30960  0.72352  1.0000
  C   C656      1.0  0.85674  0.25935  0.77725  1.0000
  H   H1053     1.0  0.73166  0.44686  0.61299  1.0000
  C   C657      1.0  0.83559  0.29831  0.78162  1.0000
  H   H1054     1.0  0.77572  0.23763  0.67474  1.0000
  H   H1055     1.0  0.80677  0.31211  0.76288  1.0000
  N   N66       1.0  0.83857  0.31906  0.77074  1.0000
  C   C658      1.0  0.82119  0.31871  0.74851  1.0000
  H   H1056     1.0  0.82143  0.29131  0.79656  1.0000
  C   C659      1.0  0.85466  0.24989  0.81047  1.0000
  H   H1057     1.0  0.84567  0.25279  0.75612  1.0000
  C   C660      1.0  0.84038  0.33193  0.80281  1.0000
  H   H1058     1.0  0.70234  0.41664  0.79745  1.0000
  H   H1059     1.0  0.68465  0.44689  0.77064  1.0000
  C   C661      1.0  0.66569  0.47514  0.79105  1.0000
  C   C662      1.0  0.88532  0.27605  0.83254  1.0000
  C   C663      1.0  0.85067  0.39999  0.59828  1.0000
  H   H1060     1.0  0.84987  0.40399  0.62670  1.0000
  S   S264      1.0  0.84389  0.47872  0.63740  1.0000
  H   H1061     1.0  0.70191  0.46676  0.82435  1.0000
  C   C664      1.0  0.88660  0.41868  0.60253  1.0000
  H   H1062     1.0  0.84726  0.41142  0.58252  1.0000
  H   H1063     1.0  0.82663  0.32607  0.81918  1.0000
  H   H1064     1.0  0.88799  0.38129  0.60191  1.0000
  H   H1065     1.0  0.73141  0.43614  0.76093  1.0000
  N   N67       1.0  0.87067  0.39958  0.59002  1.0000
  H   H1066     1.0  0.88479  0.43201  0.59010  1.0000
  C   C665      1.0  0.73909  0.47649  0.54041  1.0000
  S   S265      1.0  0.86022  0.44892  0.55339  1.0000
  H   H1067     1.0  0.75632  0.47189  0.68613  1.0000
  H   H1068     1.0  0.88616  0.42076  0.63194  1.0000
  H   H1069     1.0  0.89639  0.28258  0.85366  1.0000
  H   H1070     1.0  0.65447  0.46322  0.77555  1.0000
  H   H1071     1.0  0.83835  0.38514  0.59261  1.0000
  H   H1072     1.0  0.90006  0.29946  0.79514  1.0000
  S   S266      1.0  0.69186  0.45622  0.65173  1.0000
  H   H1073     1.0  0.90188  0.41910  0.59609  1.0000
  H   H1074     1.0  0.69703  0.43397  0.74405  1.0000
  H   H1075     1.0  0.73493  0.44061  0.56785  1.0000
  C   C666      1.0  0.64938  0.45439  0.50738  1.0000
  N   N68       1.0  0.74157  0.47225  0.57823  1.0000
  H   H1076     1.0  0.71352  0.44667  0.57957  1.0000
  H   H1077     1.0  0.84189  0.23607  0.81462  1.0000
  H   H1078     1.0  0.65046  0.46611  0.84083  1.0000
  H   H1079     1.0  0.74453  0.46717  0.52241  1.0000
  Fe  Fe136     1.0  0.91890  0.25383  0.98273  1.0000
  C   C667      1.0  0.76312  0.47694  0.58661  1.0000
  S   S267      1.0  0.64746  0.45718  0.64332  1.0000
  H   H1080     1.0  0.73529  0.48175  0.62981  1.0000
  C   C668      1.0  0.85752  0.29525  0.50224  1.0000
  H   H1081     1.0  0.72255  0.48106  0.79721  1.0000
  C   C669      1.0  0.87165  0.48482  0.82455  1.0000
  C   C670      1.0  0.73411  0.48492  0.60108  1.0000
  H   H1082     1.0  0.87737  0.54021  0.07744  1.0000
  C   C671      1.0  0.75151  0.51497  0.24071  1.0000
  H   H1083     1.0  0.87284  0.56009  0.10124  1.0000
  N   N69       1.0  0.84639  0.53742  0.07727  1.0000
  Fe  Fe137     1.0  0.89854  0.52559  0.01796  1.0000
  S   S268      1.0  0.91042  0.55954  0.02183  1.0000
  S   S269      1.0  0.88513  0.50193  0.06082  1.0000
  H   H1084     1.0  0.71503  0.49946  0.26903  1.0000
  H   H1085     1.0  0.84962  0.51283  0.04747  1.0000
  C   C672      1.0  0.71567  0.50692  0.24301  1.0000
  H   H1086     1.0  0.70073  0.49950  0.22953  1.0000
  H   H1087     1.0  0.82501  0.51634  0.11120  1.0000
  H   H1088     1.0  0.81827  0.54193  0.07334  1.0000
  Fe  Fe138     1.0  0.70132  0.51802  0.02104  1.0000
  S   S270      1.0  0.72473  0.54962  0.01739  1.0000
  C   C673      1.0  0.84136  0.52579  0.11040  1.0000
  C   C674      1.0  0.86817  0.54984  0.07744  1.0000
  H   H1089     1.0  0.87228  0.55940  0.05341  1.0000
  C   C675      1.0  0.68526  0.49499  0.11153  1.0000
  H   H1090     1.0  0.75141  0.50724  0.26635  1.0000
  H   H1091     1.0  0.82493  0.51401  0.04453  1.0000
  H   H1092     1.0  0.84974  0.51545  0.11271  1.0000
  H   H1093     1.0  0.84536  0.53589  0.13446  1.0000
  S   S271      1.0  0.87602  0.50452  0.22977  1.0000
  H   H1094     1.0  0.65901  0.51470  0.16588  1.0000
  C   C676      1.0  0.83479  0.55076  0.07477  1.0000
  H   H1095     1.0  0.71817  0.50976  0.17215  1.0000
  H   H1096     1.0  0.75471  0.53115  0.24725  1.0000
  S   S272      1.0  0.69683  0.49741  0.06937  1.0000
  C   C677      1.0  0.67544  0.50758  0.12322  1.0000
  C   C678      1.0  0.66664  0.50493  0.15717  1.0000
  H   H1097     1.0  0.84546  0.53167  0.02100  1.0000
  H   H1098     1.0  0.83801  0.56140  0.09804  1.0000
  H   H1099     1.0  0.67459  0.51933  0.10608  1.0000
  N   N70       1.0  0.73212  0.50555  0.22100  1.0000
  C   C679      1.0  0.88272  0.50338  0.10771  1.0000
  C   C680      1.0  0.89389  0.52055  0.12818  1.0000
  C   C681      1.0  0.89151  0.52073  0.16544  1.0000
  C   C682      1.0  0.84132  0.52333  0.04625  1.0000
  H   H1100     1.0  0.73583  0.53250  0.19205  1.0000
  H   H1101     1.0  0.76430  0.51413  0.22506  1.0000
  H   H1102     1.0  0.90463  0.53354  0.11545  1.0000
  H   H1103     1.0  0.90045  0.53398  0.18111  1.0000
  H   H1104     1.0  0.83869  0.56007  0.05042  1.0000
  C   C683      1.0  0.87795  0.50384  0.18264  1.0000
  H   H1105     1.0  0.71761  0.52289  0.24879  1.0000
  C   C684      1.0  0.73277  0.51618  0.18723  1.0000
  H   H1106     1.0  0.74465  0.51502  0.16947  1.0000
  H   H1107     1.0  0.77104  0.48964  0.30883  1.0000
  H   H1108     1.0  0.65250  0.56316  0.99586  1.0000
  H   H1109     1.0  0.83353  0.58871  0.99337  1.0000
  C   C685      1.0  0.66777  0.48985  0.17991  1.0000
  C   C686      1.0  0.86651  0.48683  0.16205  1.0000
  C   C687      1.0  0.86901  0.48657  0.12489  1.0000
  S   S273      1.0  0.65626  0.48674  0.22225  1.0000
  H   H1110     1.0  0.83323  0.48582  0.46898  1.0000
  C   C688      1.0  0.67542  0.61100  0.96677  1.0000
  C   C689      1.0  0.65915  0.61776  0.96904  1.0000
  H   H1111     1.0  0.84795  0.55829  0.81387  1.0000
  H   H1112     1.0  0.65376  0.55396  0.92625  1.0000
  Fe  Fe139     1.0  0.89859  0.52596  0.93480  1.0000
  S   S274      1.0  0.91029  0.56001  0.93394  1.0000
  S   S275      1.0  0.88477  0.50222  0.89044  1.0000
  Fe  Fe140     1.0  0.69349  0.51503  0.93883  1.0000
  S   S276      1.0  0.71654  0.54601  0.93080  1.0000
  S   S277      1.0  0.88190  0.49979  0.71983  1.0000
  Fe  Fe141     1.0  0.93222  0.55923  0.97826  1.0000
  H   H1113     1.0  0.86043  0.57087  0.85441  1.0000
  H   H1114     1.0  0.87261  0.55882  0.82554  1.0000
  C   C690      1.0  0.67771  0.49237  0.84873  1.0000
  H   H1115     1.0  0.83091  0.55025  0.88878  1.0000
  H   H1116     1.0  0.68708  0.58323  0.85453  1.0000
  H   H1117     1.0  0.85611  0.52368  0.90054  1.0000
  H   H1118     1.0  0.67432  0.54555  0.92517  1.0000
  H   H1119     1.0  0.85969  0.52221  0.81843  1.0000
  H   H1120     1.0  0.79800  0.51887  0.94743  1.0000
  H   H1121     1.0  0.74279  0.50129  0.59733  1.0000
  H   H1122     1.0  0.69598  0.57521  0.89431  1.0000
  Fe  Fe142     1.0  0.73673  0.53792  0.96990  1.0000
  C   C691      1.0  0.68205  0.48926  0.77401  1.0000
  S   S278      1.0  0.67332  0.49443  0.89489  1.0000
  H   H1123     1.0  0.65035  0.52954  0.90691  1.0000
  S   S279      1.0  0.67851  0.52392  0.98527  1.0000
  C   C692      1.0  0.66097  0.54554  0.90976  1.0000
  C   C693      1.0  0.88274  0.50033  0.76731  1.0000
  S   S280      1.0  0.69459  0.58365  0.97234  1.0000
  C   C694      1.0  0.69639  0.50474  0.79464  1.0000
  C   C695      1.0  0.69442  0.50613  0.83185  1.0000
  H   H1124     1.0  0.83527  0.53226  0.95581  1.0000
  H   H1125     1.0  0.87725  0.53922  0.87586  1.0000
  S   S281      1.0  0.87536  0.52373  0.97579  1.0000
  H   H1126     1.0  0.70913  0.51573  0.78174  1.0000
  H   H1127     1.0  0.70565  0.51803  0.84734  1.0000
  C   C696      1.0  0.67332  0.59126  0.97637  1.0000
  H   H1128     1.0  0.86470  0.55072  0.90522  1.0000
  C   C697      1.0  0.89592  0.51765  0.78580  1.0000
  C   C698      1.0  0.89695  0.51856  0.82346  1.0000
  C   C699      1.0  0.88480  0.50207  0.84305  1.0000
  H   H1129     1.0  0.84000  0.50649  0.84578  1.0000
  H   H1130     1.0  0.66433  0.52693  0.84888  1.0000
  H   H1131     1.0  0.90548  0.53037  0.77084  1.0000
  H   H1132     1.0  0.90725  0.53189  0.83726  1.0000
  H   H1133     1.0  0.82191  0.52317  0.88569  1.0000
  S   S282      1.0  0.92101  0.52490  0.97684  1.0000
  H   H1134     1.0  0.83436  0.52015  0.80981  1.0000
  N   N71       1.0  0.84861  0.53844  0.85603  1.0000
  C   C700      1.0  0.82906  0.53723  0.87041  1.0000
  C   C701      1.0  0.86224  0.53805  0.88573  1.0000
  C   C702      1.0  0.85777  0.55747  0.83658  1.0000
  C   C703      1.0  0.84545  0.52107  0.83149  1.0000
  H   H1135     1.0  0.77253  0.49288  0.58070  1.0000
  H   H1136     1.0  0.81829  0.53734  0.84880  1.0000
  S   S283      1.0  0.86408  0.57209  0.98096  1.0000
  C   C704      1.0  0.82584  0.57337  0.98357  1.0000
  C   C705      1.0  0.79432  0.54598  0.96608  1.0000
  C   C706      1.0  0.82691  0.54170  0.96237  1.0000
  Fe  Fe143     1.0  0.70230  0.55493  0.97863  1.0000
  S   S284      1.0  0.76760  0.53559  0.95806  1.0000
  C   C707      1.0  0.80571  0.53412  0.95764  1.0000
  S   S285      1.0  0.71393  0.50628  0.97497  1.0000
  Fe  Fe144     1.0  0.88770  0.55725  0.97745  1.0000
  C   C708      1.0  0.68225  0.57553  0.88024  1.0000
  C   C709      1.0  0.80458  0.56565  0.97944  1.0000
  N   N72       1.0  0.66694  0.55494  0.87482  1.0000
  C   C710      1.0  0.83721  0.56150  0.97504  1.0000
  H   H1137     1.0  0.68038  0.54922  0.82689  1.0000
  C   C711      1.0  0.67547  0.54260  0.85341  1.0000
  H   H1138     1.0  0.79617  0.57506  0.98591  1.0000
  S   S286      1.0  0.96747  0.57546  0.98120  1.0000
  H   H1139     1.0  0.66123  0.63302  0.96172  1.0000
  S   S287      1.0  0.68512  0.48839  0.72716  1.0000
  H   H1140     1.0  0.67645  0.58511  0.89703  1.0000
  H   H1141     1.0  0.68878  0.54124  0.86719  1.0000
  H   H1142     1.0  0.74751  0.49267  0.53451  1.0000
  H   H1143     1.0  0.68985  0.62124  0.95767  1.0000
  C   C712      1.0  0.64907  0.55603  0.85606  1.0000
  H   H1144     1.0  0.65301  0.56291  0.82943  1.0000
  C   C713      1.0  0.65449  0.57834  0.98819  1.0000
  H   H1145     1.0  0.65852  0.92404  0.05103  1.0000
  C   C714      1.0  0.65073  0.91013  0.06644  1.0000
  H   H1146     1.0  0.66069  0.91006  0.08942  1.0000
  H   H1147     1.0  0.64945  0.89710  0.04855  1.0000
  C   C715      1.0  0.65470  0.97177  0.97161  1.0000
  H   H1148     1.0  0.65004  0.75271  0.94512  1.0000
  S   S288      1.0  0.65032  0.91192  0.97283  1.0000
  C   C716      1.0  0.68018  0.95047  0.97918  1.0000
  H   H1149     1.0  0.65148  0.78772  0.94329  1.0000
  C   C717      1.0  0.64669  0.95025  0.97017  1.0000
  C   C718      1.0  0.65938  0.93930  0.97387  1.0000
  C   C719      1.0  0.68817  0.97192  0.98062  1.0000
  C   C720      1.0  0.67556  0.98291  0.97679  1.0000
  H   H1150     1.0  0.69032  0.94244  0.98209  1.0000
  H   H1151     1.0  0.70420  0.97998  0.98463  1.0000
  H   H1152     1.0  0.64460  0.97983  0.96883  1.0000
