data_image0
_chemical_formula_structural       NSHFeCSHCSFeS2FeS2FeSFeS3FeHSH3SHCHCH2C6H2FeHC6H5C6H4CHNC4H12NC3H3SCH2NH2CH2CHCHNH2CH2CFeH4CSCHNH6SH7SHFeC3HC2SHCHCH2C2HCHCHCH4CH6FeSHFeS2FeSFeS2HSFeHSHCSCSC4H2C6SH2C6H4C6HSH2CHFeCH2SHFeH3CHCNH2SH5CH2SNFeH6NH3SCH2CHSCH4C2H4C2HCFeCH2FeH4SFeSFeCSH3CHCHCHCSHCHCFeSH2CHCH7SHS2HCSH2C2SH3CH3CNHCH2C6FeCH3CH2FeCH3CNFeHNHC3H3FeS2FeS2FeSFeS3FeSHSFeSFeSCHSH3C6H5C6H4C3H2C6H4CFeCH2NC3H8C2HNHSCHCNH2CH3C2HCH2CH4C3H3SNH5FeH5NHCH3CH7C4HCSH2CH5SHSHS2HCFeHFeSHFeS2FeSFeHS2CS2FeSFeSCHC2H3CH2C4H3C6H4CH2CHNHCNH2CHSH3CSH6C3H2FeSHNS2CHFeHCHC2H2SH3CNC2H8CH2C2HFeCSHCH7CHCH5CNC2H2CFeS2H2CHCHSCH2C2FeSCFeCH3FeSFeSC2HC5S2H2CHFeHCH5SH4NHCHNFeS2FeSNFeSFeS4HC3H2CSH2C2HC5H3C6H4CH2CH3CHC2H6CH2CH9C2HNSHSHCH2CHNC2HCSCH8SCH4FeH2SHC2HFeS2HSCFeS2FeS2FeHFeS3CHSC6H6C2NHCHC3H4CHCH2C2HCHCHC3H7SNHCH2CHC2H4CH2NCH6C2H4FeS2FeCFeS2FeS2Fe2S3HSFeS2FeSH2SHC6H4CH3C2SC2H2SC3H2C6H4CFeSHFe2HC6HCH2CNC3H3NH3CH3CHCHCHCHFe3HC2H4CNHNCH3CH7CH2NCH3C2H2SHCHSCHSH2CH3CH7SH3CH4SCSCH4CHCH5CHC2SHSC2NC2H2CFeSFeS2FeS2H3C2H2CHNH2SH4SCHC3HCH5CHCH2C3HCH3C2H2CH2CH3SC2H5CFeS2H2SHSC4HS2C3FeSH3C4FeS2FeHCS2HCHSHC3H4CH2C6H4C2H2CHCNH2C2HCHFe2H3NHFeHCSHC2HC2HCHSH2SHNH5CFeCH7CH2SHCHCHNH2CHSH2C2H3FeS2FeHFeHS2FeS2FeSFeS3HSH5C6H4CHNHC2H4CHCSH3C7H5SH2SC6H4FeHCSNC4H12CH3Fe2HSHS2FeSHCHC2HCH5C3H2CHCNHFeCHC3H2C2SHCH3S2HFeSHCNH3SC3SC2H6C2H2CHCNCS2H3FeS2CH5SCH3CH2C2HCHC3H2CH2CHSH2C4H4C2HCFeHCH4C6HNCSH3SHCH2FeH2SHNCHCH2C2HCH6CH2S2HCFeS3CFeS2FeSCHSFeNC6H4C2H2CH2CFeHNC4H6SCHFeH2CH4NCH4FeCH2CHCH2C3H8C2HFeSHFeS2FeSFeS3CSFeHSFeS2FeHFeS3C6H4C6H3CHCHSC3HSHC7H4S2HCNCFeHCH8CH2SFeCH9SC5HCHCHSH7N2CH3CNH3CH8NC4H11FeH3CHC2H4CH4SC2SC4NC2SCHSCSCH5C2H2SH3NFeS2FeS2FeHFeS3H2C2NH2C3H2CH3CHC6H4C2H4CH4C3H4C2H2SHC3HC2H2C2H3NH2CFeCHFeCSHCH3SFeS2FeS2Fe3S3CH2CHC3H4C6H4CH4CSHSCHSNH4C2NSHCHCHCNHNC4H12C2H2CHC4H2SCH2CHCSHCH4CHSC3H3CH5FeH3FeSFeS2FeSFeS3FeS2FeSFeCFeSHSHSHCHC6H4C6H3NHCH2C4HCH3CH2SHCH2C7H5NHSNC3H9NHCH4FeHCHC2SHCHCH2CSH2NFeC2H2C2H7SCHCHSH2SCSHC2H5CH2NHCHCH6C2H2CHS2HCHSNSFe2S2FeS2FeS2FeSFeS3H2SHFeH2CHCHCH2C6H4C6H7SHCHC2H3CHCH2SCHCNHC2H3CNC4H9CHNCH4C2NHNSCHCHCH5CFeHC4H3FeHSH4C2H4SCH2CH2C2H2CH2CHCH5Fe2H3C2SFeS2FeS2FeHFeS3FeSFeS3NH2SHC6H4CFeC3H2SCHC3HCH3FeCH2C2H5C2HFeH2SH2CNH5CH3C2SCHCH2CHC2H3CH2S2CHCHCH3CHNCHCH2C2HCH2CHCH2SH2CH2S3HSHFeCFeH3FeH2C2HFeHSHCSHSHC3H2C3HC2H4SHCHC2HC2H2NHCH2CH2C2NSH3CHCFeHCH4CH2NCH4S2HCFeS2FeSFeS2FeS2FeSFeS3FeHSHCSH2SCH2SC4HC6H4C6H4C6H8NC4H3CH9CSH3FeHNC4H12C2NHC2H5FeHC2H4SH3NCSC2HCH8CSH2FeHCHC2NH3SCH3FeSNHCHSHC2H2CH4NSCFeS2FeSHFeHFeSHSHS2FeSFeS2CSCH2C3FeH2C6H5FeSCHNH2C2NH2C6H4SHCH2CH2CNHSH3C2FeHC2H9NHCHCSH4C3H3SCH3CH7FeSH3C2FeH2CH7C2H2C4H2SNFeS2HFeSH3CFeS2HSCFeSCHSH3CH2NH3C3SC7H5C3H2CHSH5NFeH4CH5
_chemical_formula_sum              "N96 S384 H1536 Fe192 C960"
_cell_length_a       39.53
_cell_length_b       39.3608
_cell_length_c       85.9208
_cell_angle_alpha    83.4843
_cell_angle_beta     83.8017
_cell_angle_gamma    87.8769

_space_group_name_H-M_alt    "P 1"
_space_group_IT_number       1

loop_
  _space_group_symop_operation_xyz
  'x, y, z'

loop_
  _atom_site_type_symbol
  _atom_site_label
  _atom_site_symmetry_multiplicity
  _atom_site_fract_x
  _atom_site_fract_y
  _atom_site_fract_z
  _atom_site_occupancy
  N   N1        1.0  0.06741  0.50625  0.11339  1.0000
  S   S1        1.0  0.45537  0.17347  0.08436  1.0000
  H   H1        1.0  0.34902  0.03892  0.06729  1.0000
  Fe  Fe1       1.0  0.12064  0.09378  0.09133  1.0000
  C   C1        1.0  0.47225  0.02608  0.04325  1.0000
  S   S2        1.0  0.10849  0.14923  0.08453  1.0000
  H   H2        1.0  0.45639  0.17153  0.15030  1.0000
  C   C2        1.0  0.17766  0.39889  0.01459  1.0000
  S   S3        1.0  0.09659  0.06770  0.11417  1.0000
  Fe  Fe2       1.0  0.25288  0.34398  0.04722  1.0000
  S   S4        1.0  0.28976  0.34835  0.06509  1.0000
  S   S5        1.0  0.22724  0.38956  0.03458  1.0000
  Fe  Fe3       1.0  0.25128  0.26681  0.05365  1.0000
  S   S6        1.0  0.28664  0.26415  0.07241  1.0000
  S   S7        1.0  0.23624  0.21859  0.04496  1.0000
  Fe  Fe4       1.0  0.25670  0.30989  0.08032  1.0000
  S   S8        1.0  0.24002  0.31311  0.10601  1.0000
  Fe  Fe5       1.0  0.31669  0.30229  0.05563  1.0000
  S   S9        1.0  0.37304  0.29438  0.04864  1.0000
  S   S10       1.0  0.21806  0.30857  0.06321  1.0000
  S   S11       1.0  0.28294  0.30200  0.03619  1.0000
  Fe  Fe6       1.0  0.15821  0.47010  0.14216  1.0000
  H   H3        1.0  0.20825  0.24824  0.10181  1.0000
  S   S12       1.0  0.15736  0.45025  0.11858  1.0000
  H   H4        1.0  0.39745  0.17348  0.11926  1.0000
  H   H5        1.0  0.16385  0.41299  0.02348  1.0000
  H   H6        1.0  0.23435  0.49065  0.00179  1.0000
  S   S13       1.0  0.16755  0.05368  0.14156  1.0000
  H   H7        1.0  0.20103  0.16055  0.12286  1.0000
  C   C3        1.0  0.20926  0.38335  0.01733  1.0000
  H   H8        1.0  0.08871  0.48226  0.13394  1.0000
  C   C4        1.0  0.22690  0.36496  0.00588  1.0000
  H   H9        1.0  0.34787  0.38142  0.13264  1.0000
  H   H10       1.0  0.25145  0.35316  0.00788  1.0000
  C   C5        1.0  0.21616  0.35080  0.10939  1.0000
  C   C6        1.0  0.20923  0.37503  0.09687  1.0000
  C   C7        1.0  0.19097  0.40536  0.09981  1.0000
  C   C8        1.0  0.18025  0.41200  0.11529  1.0000
  C   C9        1.0  0.18723  0.38782  0.12783  1.0000
  C   C10       1.0  0.20471  0.35705  0.12485  1.0000
  H   H11       1.0  0.21788  0.37049  0.08488  1.0000
  H   H12       1.0  0.18554  0.42391  0.09005  1.0000
  Fe  Fe7       1.0  0.16511  0.03162  0.08401  1.0000
  H   H13       1.0  0.20949  0.33808  0.13453  1.0000
  C   C11       1.0  0.14402  0.16846  0.07361  1.0000
  C   C12       1.0  0.16694  0.14926  0.06435  1.0000
  C   C13       1.0  0.19526  0.16485  0.05555  1.0000
  C   C14       1.0  0.20123  0.19937  0.05638  1.0000
  C   C15       1.0  0.17861  0.21846  0.06584  1.0000
  C   C16       1.0  0.14969  0.20314  0.07424  1.0000
  H   H14       1.0  0.16250  0.12248  0.06377  1.0000
  H   H15       1.0  0.21259  0.15001  0.04819  1.0000
  H   H16       1.0  0.18297  0.24510  0.06653  1.0000
  H   H17       1.0  0.13188  0.21798  0.08139  1.0000
  H   H18       1.0  0.31527  0.33190  0.12750  1.0000
  C   C17       1.0  0.43293  0.20735  0.07440  1.0000
  C   C18       1.0  0.40201  0.21960  0.08163  1.0000
  C   C19       1.0  0.38336  0.24622  0.07384  1.0000
  C   C20       1.0  0.39583  0.26114  0.05886  1.0000
  C   C21       1.0  0.42687  0.24906  0.05169  1.0000
  C   C22       1.0  0.44522  0.22204  0.05937  1.0000
  H   H19       1.0  0.39230  0.20836  0.09324  1.0000
  H   H20       1.0  0.35968  0.25559  0.07953  1.0000
  H   H21       1.0  0.43673  0.26059  0.04014  1.0000
  H   H22       1.0  0.46909  0.21286  0.05372  1.0000
  C   C23       1.0  0.18954  0.18127  0.12971  1.0000
  H   H23       1.0  0.18220  0.31796  0.02823  1.0000
  N   N2        1.0  0.34392  0.18259  0.04040  1.0000
  C   C24       1.0  0.31666  0.16455  0.05096  1.0000
  C   C25       1.0  0.34568  0.17079  0.02460  1.0000
  C   C26       1.0  0.37691  0.17539  0.04690  1.0000
  C   C27       1.0  0.33634  0.21978  0.03915  1.0000
  H   H24       1.0  0.32182  0.13647  0.05251  1.0000
  H   H25       1.0  0.29151  0.16889  0.04623  1.0000
  H   H26       1.0  0.31392  0.17374  0.06283  1.0000
  H   H27       1.0  0.36606  0.18395  0.01638  1.0000
  H   H28       1.0  0.35123  0.14277  0.02508  1.0000
  H   H29       1.0  0.32119  0.17607  0.01936  1.0000
  H   H30       1.0  0.39789  0.18959  0.03954  1.0000
  H   H31       1.0  0.38406  0.14769  0.04764  1.0000
  H   H32       1.0  0.37611  0.18321  0.05898  1.0000
  H   H33       1.0  0.35636  0.23447  0.03135  1.0000
  H   H34       1.0  0.33503  0.22954  0.05084  1.0000
  H   H35       1.0  0.31148  0.22621  0.03441  1.0000
  N   N3        1.0  0.20401  0.21486  0.12354  1.0000
  C   C28       1.0  0.19783  0.22294  0.10683  1.0000
  C   C29       1.0  0.24103  0.21369  0.12482  1.0000
  C   C30       1.0  0.18771  0.24161  0.13281  1.0000
  H   H36       1.0  0.43835  0.02998  0.02508  1.0000
  H   H37       1.0  0.16156  0.18122  0.12905  1.0000
  H   H38       1.0  0.05122  0.47532  0.09664  1.0000
  S   S14       1.0  0.11333  0.05002  0.07759  1.0000
  C   C31       1.0  0.21350  0.36324  0.99150  1.0000
  H   H39       1.0  0.32732  0.41372  0.14383  1.0000
  H   H40       1.0  0.14755  0.29848  0.04094  1.0000
  N   N4        1.0  0.41150  0.19221  0.14020  1.0000
  H   H41       1.0  0.28351  0.36039  0.11942  1.0000
  H   H42       1.0  0.11219  0.30474  0.01840  1.0000
  C   C32       1.0  0.16981  0.29315  0.03240  1.0000
  H   H43       1.0  0.13957  0.40870  0.99836  1.0000
  H   H44       1.0  0.18828  0.27678  0.03893  1.0000
  C   C33       1.0  0.44280  0.19645  0.14771  1.0000
  H   H45       1.0  0.22375  0.07732  0.11872  1.0000
  C   C34       1.0  0.14330  0.24366  0.02534  1.0000
  H   H46       1.0  0.27227  0.11424  0.12079  1.0000
  N   N5        1.0  0.15969  0.27632  0.01916  1.0000
  H   H47       1.0  0.43741  0.19469  0.11671  1.0000
  H   H48       1.0  0.37025  0.22358  0.13170  1.0000
  C   C35       1.0  0.22574  0.08834  0.12952  1.0000
  H   H49       1.0  0.25284  0.23847  0.11998  1.0000
  H   H50       1.0  0.16675  0.50386  0.98645  1.0000
  C   C36       1.0  0.25332  0.10905  0.13076  1.0000
  Fe  Fe8       1.0  0.15011  0.04970  0.11768  1.0000
  H   H51       1.0  0.20102  0.46132  0.00130  1.0000
  H   H52       1.0  0.04597  0.47025  0.13228  1.0000
  H   H53       1.0  0.20902  0.25247  0.01450  1.0000
  H   H54       1.0  0.31632  0.40995  0.12435  1.0000
  C   C37       1.0  0.13555  0.29898  0.01059  1.0000
  S   S15       1.0  0.48899  0.11907  0.05044  1.0000
  C   C38       1.0  0.26400  0.39016  0.14561  1.0000
  H   H55       1.0  0.24366  0.45051  0.99391  1.0000
  N   N6        1.0  0.29623  0.37089  0.14210  1.0000
  H   H56       1.0  0.25419  0.19315  0.11837  1.0000
  H   H57       1.0  0.18366  0.25690  0.99816  1.0000
  H   H58       1.0  0.17863  0.39266  0.13977  1.0000
  H   H59       1.0  0.16110  0.22581  0.03165  1.0000
  H   H60       1.0  0.08112  0.45357  0.12005  1.0000
  H   H61       1.0  0.24651  0.20841  0.13732  1.0000
  S   S16       1.0  0.17426  0.07849  0.09553  1.0000
  H   H62       1.0  0.02316  0.04869  0.08829  1.0000
  H   H63       1.0  0.12757  0.28729  0.00040  1.0000
  H   H64       1.0  0.20339  0.29356  0.00358  1.0000
  H   H65       1.0  0.12058  0.24770  0.03385  1.0000
  H   H66       1.0  0.47929  0.05253  0.04092  1.0000
  H   H67       1.0  0.11099  0.49059  0.09838  1.0000
  H   H68       1.0  0.12018  0.51881  0.11217  1.0000
  S   S17       1.0  0.03291  0.45263  0.00703  1.0000
  H   H69       1.0  0.43414  0.15242  0.12689  1.0000
  Fe  Fe9       1.0  0.49940  0.14856  0.07021  1.0000
  C   C39       1.0  0.19027  0.26948  0.00836  1.0000
  C   C40       1.0  0.42049  0.17758  0.12514  1.0000
  C   C41       1.0  0.29150  0.34677  0.13057  1.0000
  H   H70       1.0  0.14716  0.32387  0.00584  1.0000
  C   C42       1.0  0.04274  0.49829  0.10264  1.0000
  C   C43       1.0  0.39424  0.22590  0.13716  1.0000
  S   S18       1.0  0.29127  0.14878  0.14604  1.0000
  H   H71       1.0  0.19196  0.23635  0.14548  1.0000
  C   C44       1.0  0.22463  0.47203  0.99462  1.0000
  H   H72       1.0  0.27145  0.32798  0.13524  1.0000
  C   C45       1.0  0.18220  0.37937  0.98864  1.0000
  H   H73       1.0  0.13488  0.23040  0.01571  1.0000
  H   H74       1.0  0.38757  0.23780  0.14830  1.0000
  C   C46       1.0  0.16401  0.39669  0.00033  1.0000
  C   C47       1.0  0.25654  0.12282  0.14486  1.0000
  H   H75       1.0  0.36435  0.16549  0.14559  1.0000
  C   C48       1.0  0.20151  0.08089  0.14248  1.0000
  H   H76       1.0  0.25565  0.40505  0.13481  1.0000
  C   C49       1.0  0.32315  0.39506  0.13545  1.0000
  H   H77       1.0  0.19418  0.17402  0.14222  1.0000
  C   C50       1.0  0.10089  0.51315  0.10434  1.0000
  H   H78       1.0  0.41079  0.24397  0.12908  1.0000
  H   H79       1.0  0.20992  0.20335  0.09948  1.0000
  H   H80       1.0  0.15978  0.24354  0.13206  1.0000
  H   H81       1.0  0.19831  0.26725  0.12855  1.0000
  C   C51       1.0  0.07084  0.47678  0.12545  1.0000
  H   H82       1.0  0.17013  0.22386  0.10544  1.0000
  H   H83       1.0  0.46078  0.21382  0.14003  1.0000
  H   H84       1.0  0.03950  0.51996  0.09337  1.0000
  H   H85       1.0  0.24310  0.37268  0.15049  1.0000
  H   H86       1.0  0.30645  0.02398  0.07283  1.0000
  H   H87       1.0  0.43696  0.20764  0.15908  1.0000
  Fe  Fe10      1.0  0.28688  0.18041  0.16645  1.0000
  S   S19       1.0  0.23860  0.19775  0.17979  1.0000
  H   H88       1.0  0.40048  0.14324  0.15330  1.0000
  Fe  Fe11      1.0  0.33167  0.22612  0.18165  1.0000
  S   S20       1.0  0.28708  0.24840  0.19597  1.0000
  S   S21       1.0  0.38799  0.23172  0.18283  1.0000
  Fe  Fe12      1.0  0.26875  0.19440  0.20067  1.0000
  S   S22       1.0  0.25250  0.17828  0.22639  1.0000
  Fe  Fe13      1.0  0.26058  0.24986  0.17411  1.0000
  S   S23       1.0  0.22518  0.28940  0.16353  1.0000
  S   S24       1.0  0.31527  0.17181  0.18783  1.0000
  H   H89       1.0  0.15907  0.23563  0.20065  1.0000
  S   S25       1.0  0.18168  0.42149  0.19654  1.0000
  Fe  Fe14      1.0  0.10044  0.10792  0.28270  1.0000
  H   H90       1.0  0.15559  0.39138  0.17165  1.0000
  S   S26       1.0  0.10805  0.12493  0.25648  1.0000
  H   H91       1.0  0.19739  0.25947  0.19606  1.0000
  C   C52       1.0  0.23211  0.11580  0.15775  1.0000
  S   S27       1.0  0.05480  0.12260  0.29885  1.0000
  C   C53       1.0  0.22837  0.07527  0.25242  1.0000
  S   S28       1.0  0.46697  0.37063  0.17805  1.0000
  C   C54       1.0  0.46511  0.48526  0.24016  1.0000
  C   C55       1.0  0.47326  0.45312  0.23507  1.0000
  C   C56       1.0  0.45286  0.43978  0.22501  1.0000
  C   C57       1.0  0.42455  0.45869  0.21994  1.0000
  H   H92       1.0  0.45902  0.41495  0.22103  1.0000
  H   H93       1.0  0.25279  0.46775  0.19056  1.0000
  C   C58       1.0  0.19275  0.38335  0.18834  1.0000
  C   C59       1.0  0.17595  0.37495  0.17588  1.0000
  C   C60       1.0  0.18529  0.34520  0.16884  1.0000
  C   C61       1.0  0.21217  0.32422  0.17389  1.0000
  C   C62       1.0  0.22896  0.33231  0.18647  1.0000
  C   C63       1.0  0.21897  0.36177  0.19383  1.0000
  S   S29       1.0  0.09600  0.05152  0.29040  1.0000
  H   H94       1.0  0.24998  0.31635  0.19032  1.0000
  H   H95       1.0  0.23212  0.36837  0.20344  1.0000
  C   C64       1.0  0.21222  0.16321  0.23422  1.0000
  C   C65       1.0  0.18837  0.15367  0.22472  1.0000
  C   C66       1.0  0.15631  0.14217  0.23165  1.0000
  C   C67       1.0  0.14817  0.13981  0.24806  1.0000
  C   C68       1.0  0.17210  0.14937  0.25746  1.0000
  C   C69       1.0  0.20394  0.16105  0.25057  1.0000
  H   H96       1.0  0.19467  0.15488  0.21210  1.0000
  H   H97       1.0  0.13790  0.13471  0.22430  1.0000
  H   H98       1.0  0.16598  0.14828  0.27004  1.0000
  H   H99       1.0  0.22224  0.16855  0.25797  1.0000
  C   C70       1.0  0.40842  0.27099  0.18235  1.0000
  C   C71       1.0  0.39307  0.30208  0.17698  1.0000
  C   C72       1.0  0.41121  0.33257  0.17579  1.0000
  C   C73       1.0  0.44445  0.33219  0.18025  1.0000
  C   C74       1.0  0.45945  0.30116  0.18589  1.0000
  C   C75       1.0  0.44161  0.27064  0.18676  1.0000
  H   H100      1.0  0.36755  0.30250  0.17356  1.0000
  S   S30       1.0  0.30678  0.23299  0.15926  1.0000
  H   H101      1.0  0.48506  0.30059  0.18929  1.0000
  H   H102      1.0  0.45365  0.24665  0.19089  1.0000
  C   C76       1.0  0.15118  0.24156  0.23161  1.0000
  H   H103      1.0  0.30921  0.36869  0.16590  1.0000
  Fe  Fe15      1.0  0.16401  0.45950  0.17730  1.0000
  C   C77       1.0  0.41709  0.49135  0.22456  1.0000
  H   H104      1.0  0.48082  0.49559  0.24796  1.0000
  H   H105      1.0  0.04345  0.19257  0.30979  1.0000
  S   S31       1.0  0.51014  0.43064  0.24040  1.0000
  H   H106      1.0  0.23459  0.12600  0.16872  1.0000
  Fe  Fe16      1.0  0.19470  0.52216  0.15817  1.0000
  H   H107      1.0  0.16452  0.03381  0.27581  1.0000
  H   H108      1.0  0.17198  0.33882  0.15924  1.0000
  H   H109      1.0  0.40910  0.44836  0.21203  1.0000
  C   C78       1.0  0.30622  0.35150  0.15674  1.0000
  H   H110      1.0  0.49980  0.35175  0.24919  1.0000
  C   C79       1.0  0.47949  0.50840  0.19175  1.0000
  N   N7        1.0  0.21121  0.04514  0.26122  1.0000
  H   H111      1.0  0.48096  0.49466  0.18106  1.0000
  H   H112      1.0  0.19732  0.22039  0.20897  1.0000
  S   S32       1.0  0.18107  0.03006  0.30986  1.0000
  H   H113      1.0  0.16537  0.21814  0.23600  1.0000
  H   H114      1.0  0.26632  0.40843  0.15439  1.0000
  H   H115      1.0  0.33864  0.50507  0.18959  1.0000
  H   H116      1.0  0.18633  0.08868  0.16667  1.0000
  H   H117      1.0  0.23258  0.09483  0.26037  1.0000
  C   C80       1.0  0.18189  0.24378  0.20565  1.0000
  H   H118      1.0  0.19022  0.03088  0.24091  1.0000
  H   H119      1.0  0.39957  0.35656  0.17142  1.0000
  S   S33       1.0  0.13792  0.11691  0.29953  1.0000
  N   N8        1.0  0.17242  0.26301  0.21935  1.0000
  Fe  Fe17      1.0  0.11676  0.51537  0.16381  1.0000
  H   H120      1.0  0.23576  0.04770  0.28220  1.0000
  H   H121      1.0  0.28673  0.33246  0.16178  1.0000
  H   H122      1.0  0.12797  0.23300  0.22704  1.0000
  H   H123      1.0  0.21289  0.08780  0.24318  1.0000
  H   H124      1.0  0.24550  0.51302  0.18687  1.0000
  H   H125      1.0  0.31466  0.47482  0.18132  1.0000
  N   N9        1.0  0.28738  0.49835  0.20050  1.0000
  H   H126      1.0  0.22031  0.28831  0.21684  1.0000
  H   H127      1.0  0.48285  0.48893  0.20192  1.0000
  H   H128      1.0  0.16798  0.31099  0.20489  1.0000
  S   S34       1.0  0.11942  0.45836  0.16303  1.0000
  C   C81       1.0  0.29674  0.47042  0.21239  1.0000
  H   H129      1.0  0.21904  0.24883  0.22953  1.0000
  H   H130      1.0  0.23341  0.49120  0.20604  1.0000
  C   C82       1.0  0.15300  0.29445  0.21433  1.0000
  H   H131      1.0  0.14598  0.31003  0.22428  1.0000
  S   S35       1.0  0.38345  0.51574  0.21686  1.0000
  C   C83       1.0  0.20369  0.27212  0.22578  1.0000
  H   H132      1.0  0.18058  0.07523  0.27702  1.0000
  H   H133      1.0  0.12911  0.28838  0.20956  1.0000
  H   H134      1.0  0.14286  0.25552  0.24198  1.0000
  H   H135      1.0  0.19768  0.28647  0.23621  1.0000
  C   C84       1.0  0.43727  0.50456  0.23475  1.0000
  C   C85       1.0  0.23233  0.02954  0.27347  1.0000
  H   H136      1.0  0.25363  0.06823  0.24646  1.0000
  H   H137      1.0  0.38135  0.17917  0.16231  1.0000
  H   H138      1.0  0.05813  0.35240  0.30073  1.0000
  H   H139      1.0  0.27825  0.46902  0.22315  1.0000
  C   C86       1.0  0.17779  0.05588  0.26879  1.0000
  C   C87       1.0  0.25334  0.49230  0.19581  1.0000
  H   H140      1.0  0.48366  0.32565  0.26673  1.0000
  C   C88       1.0  0.31284  0.49950  0.18653  1.0000
  Fe  Fe18      1.0  0.13169  0.06098  0.30797  1.0000
  C   C89       1.0  0.20485  0.09461  0.15659  1.0000
  H   H141      1.0  0.04037  0.48206  0.16213  1.0000
  H   H142      1.0  0.16079  0.06736  0.25997  1.0000
  Fe  Fe19      1.0  0.05437  0.06712  0.30833  1.0000
  H   H143      1.0  0.29739  0.44514  0.20771  1.0000
  H   H144      1.0  0.32241  0.47425  0.21608  1.0000
  H   H145      1.0  0.49438  0.36955  0.26749  1.0000
  H   H146      1.0  0.33075  0.33715  0.15455  1.0000
  S   S36       1.0  0.51863  0.35169  0.21558  1.0000
  Fe  Fe20      1.0  0.09200  0.12695  0.31642  1.0000
  S   S37       1.0  0.15826  0.51551  0.18011  1.0000
  Fe  Fe21      1.0  0.51426  0.37370  0.19063  1.0000
  C   C90       1.0  0.50223  0.34578  0.26200  1.0000
  S   S38       1.0  0.20264  0.46605  0.15626  1.0000
  H   H147      1.0  0.45327  0.51960  0.19369  1.0000
  H   H148      1.0  0.02152  0.03543  0.28459  1.0000
  H   H149      1.0  0.06138  0.41118  0.30891  1.0000
  C   C91       1.0  0.05503  0.34253  0.31344  1.0000
  H   H150      1.0  0.04010  0.31865  0.31467  1.0000
  C   C92       1.0  0.38844  0.16900  0.15079  1.0000
  H   H151      1.0  0.30607  0.51973  0.17717  1.0000
  C   C93       1.0  0.02101  0.50165  0.15995  1.0000
  H   H152      1.0  0.08071  0.33519  0.31709  1.0000
  C   C94       1.0  0.47289  0.36968  0.36471  1.0000
  S   S39       1.0  0.35020  0.05920  0.45476  1.0000
  H   H153      1.0  0.47925  0.14857  0.42154  1.0000
  C   C95       1.0  0.45227  0.42596  0.35522  1.0000
  H   H154      1.0  0.20157  0.03877  0.43923  1.0000
  C   C96       1.0  0.46159  0.48432  0.41277  1.0000
  Fe  Fe22      1.0  0.40153  0.07256  0.46112  1.0000
  S   S40       1.0  0.44068  0.10006  0.44331  1.0000
  H   H155      1.0  0.51526  0.42064  0.36525  1.0000
  H   H156      1.0  0.18744  0.04521  0.45933  1.0000
  C   C97       1.0  0.43518  0.40192  0.38192  1.0000
  H   H157      1.0  0.48135  0.35276  0.37491  1.0000
  C   C98       1.0  0.49905  0.03394  0.45365  1.0000
  H   H158      1.0  0.50104  0.40466  0.38516  1.0000
  H   H159      1.0  0.02141  0.37249  0.34745  1.0000
  H   H160      1.0  0.02593  0.11658  0.33140  1.0000
  H   H161      1.0  0.44468  0.45220  0.35818  1.0000
  H   H162      1.0  0.42869  0.42728  0.38621  1.0000
  H   H163      1.0  0.43004  0.41502  0.35079  1.0000
  H   H164      1.0  0.44222  0.38449  0.39228  1.0000
  S   S41       1.0  0.47855  0.25399  0.44761  1.0000
  H   H165      1.0  0.51052  0.08122  0.42871  1.0000
  S   S42       1.0  0.46933  0.41451  0.41699  1.0000
  S   S43       1.0  0.48031  0.32045  0.40770  1.0000
  H   H166      1.0  0.41180  0.39183  0.37817  1.0000
  C   C99       1.0  0.48425  0.45627  0.41119  1.0000
  S   S44       1.0  0.08624  0.16600  0.33417  1.0000
  H   H167      1.0  0.23385  0.08649  0.45930  1.0000
  H   H168      1.0  0.43571  0.48009  0.41798  1.0000
  C   C100      1.0  0.05803  0.39945  0.32136  1.0000
  C   C101      1.0  0.05455  0.19888  0.33324  1.0000
  S   S45       1.0  0.08976  0.07185  0.32667  1.0000
  H   H169      1.0  0.02467  0.11160  0.37455  1.0000
  H   H170      1.0  0.05980  0.21192  0.35656  1.0000
  H   H171      1.0  0.05913  0.34645  0.34413  1.0000
  C   C102      1.0  0.47210  0.51785  0.40755  1.0000
  H   H172      1.0  0.27686  0.07396  0.45373  1.0000
  H   H173      1.0  0.24743  0.08037  0.43909  1.0000
  H   H174      1.0  0.42342  0.14606  0.46739  1.0000
  C   C103      1.0  0.49298  0.41966  0.37437  1.0000
  N   N10       1.0  0.46331  0.40430  0.36904  1.0000
  H   H175      1.0  0.43888  0.20608  0.46872  1.0000
  C   C104      1.0  0.04628  0.21750  0.34623  1.0000
  H   H176      1.0  0.05127  0.11270  0.35617  1.0000
  H   H177      1.0  0.08374  0.39397  0.32534  1.0000
  C   C105      1.0  0.45023  0.14318  0.44439  1.0000
  C   C106      1.0  0.47049  0.16106  0.43188  1.0000
  C   C107      1.0  0.47894  0.19529  0.43252  1.0000
  C   C108      1.0  0.46751  0.21165  0.44580  1.0000
  C   C109      1.0  0.44773  0.19358  0.45839  1.0000
  C   C110      1.0  0.43890  0.15957  0.45766  1.0000
  Fe  Fe23      1.0  0.33173  0.06807  0.47973  1.0000
  C   C111      1.0  0.02619  0.12131  0.36183  1.0000
  H   H178      1.0  0.02641  0.14975  0.36085  1.0000
  H   H179      1.0  0.04526  0.41911  0.32856  1.0000
  H   H180      1.0  0.02324  0.06190  0.34927  1.0000
  C   C112      1.0  0.25010  0.07023  0.45153  1.0000
  H   H181      1.0  0.48828  0.05150  0.46233  1.0000
  H   H182      1.0  0.47308  0.42851  0.34537  1.0000
  Fe  Fe24      1.0  0.50310  0.36688  0.41514  1.0000
  C   C113      1.0  0.03713  0.20643  0.31992  1.0000
  H   H183      1.0  0.48698  0.44618  0.37735  1.0000
  H   H184      1.0  0.49415  0.20900  0.42274  1.0000
  H   H185      1.0  0.45122  0.35709  0.36064  1.0000
  C   C114      1.0  0.03405  0.35369  0.33980  1.0000
  N   N11       1.0  0.03779  0.36815  0.32310  1.0000
  Fe  Fe25      1.0  0.50394  0.29058  0.42786  1.0000
  H   H186      1.0  0.49445  0.37020  0.35521  1.0000
  N   N12       1.0  0.24097  0.03383  0.45481  1.0000
  H   H187      1.0  0.22888  0.03786  0.47958  1.0000
  C   C115      1.0  0.50525  0.52345  0.40051  1.0000
  C   C116      1.0  0.51765  0.46198  0.40447  1.0000
  C   C117      1.0  0.20531  0.03002  0.45173  1.0000
  H   H188      1.0  0.48020  0.03350  0.44493  1.0000
  H   H189      1.0  0.51859  0.09875  0.44619  1.0000
  H   H190      1.0  0.02066  0.49168  0.34870  1.0000
  Fe  Fe26      1.0  0.22148  0.23050  0.54006  1.0000
  S   S46       1.0  0.17776  0.19628  0.54904  1.0000
  S   S47       1.0  0.27055  0.21823  0.52549  1.0000
  Fe  Fe27      1.0  0.19137  0.28946  0.55786  1.0000
  S   S48       1.0  0.14559  0.26016  0.56853  1.0000
  S   S49       1.0  0.19476  0.34501  0.56130  1.0000
  Fe  Fe28      1.0  0.18277  0.21600  0.57221  1.0000
  S   S50       1.0  0.18212  0.18441  0.59576  1.0000
  Fe  Fe29      1.0  0.14453  0.24362  0.54447  1.0000
  S   S51       1.0  0.09804  0.24782  0.53103  1.0000
  S   S52       1.0  0.22870  0.24700  0.56361  1.0000
  S   S53       1.0  0.18814  0.27612  0.53346  1.0000
  Fe  Fe30      1.0  0.30538  0.48081  0.61266  1.0000
  S   S54       1.0  0.35678  0.45606  0.60734  1.0000
  H   H191      1.0  0.14674  0.29727  0.63403  1.0000
  S   S55       1.0  0.35112  0.48725  0.57026  1.0000
  Fe  Fe31      1.0  0.33422  0.44069  0.58629  1.0000
  S   S56       1.0  0.33666  0.38697  0.57971  1.0000
  Fe  Fe32      1.0  0.36953  0.50495  0.59180  1.0000
  S   S57       1.0  0.28218  0.46208  0.59277  1.0000
  C   C118      1.0  0.30570  0.14523  0.49785  1.0000
  H   H192      1.0  0.17459  0.43102  0.59187  1.0000
  S   S58       1.0  0.30218  0.07345  0.60194  1.0000
  H   H193      1.0  0.07242  0.26480  0.56237  1.0000
  H   H194      1.0  0.32421  0.36133  0.52496  1.0000
  H   H195      1.0  0.19632  0.27112  0.64618  1.0000
  C   C119      1.0  0.20977  0.26967  0.63423  1.0000
  C   C120      1.0  0.30687  0.06602  0.52745  1.0000
  C   C121      1.0  0.03860  0.28443  0.52763  1.0000
  C   C122      1.0  0.30328  0.17373  0.50640  1.0000
  C   C123      1.0  0.20499  0.49881  0.60687  1.0000
  C   C124      1.0  0.06031  0.37667  0.55124  1.0000
  H   H196      1.0  0.34322  0.27835  0.54788  1.0000
  H   H197      1.0  0.29251  0.12441  0.54035  1.0000
  H   H198      1.0  0.15190  0.23427  0.63937  1.0000
  H   H199      1.0  0.08483  0.34025  0.52762  1.0000
  H   H200      1.0  0.51467  0.46316  0.57744  1.0000
  C   C125      1.0  0.23347  0.35656  0.56722  1.0000
  C   C126      1.0  0.25518  0.33199  0.57426  1.0000
  C   C127      1.0  0.28672  0.34148  0.57828  1.0000
  C   C128      1.0  0.29659  0.37559  0.57528  1.0000
  C   C129      1.0  0.27481  0.40016  0.56827  1.0000
  C   C130      1.0  0.24317  0.39072  0.56438  1.0000
  H   H201      1.0  0.24773  0.30570  0.57664  1.0000
  H   H202      1.0  0.30350  0.32244  0.58373  1.0000
  H   H203      1.0  0.28277  0.42632  0.56540  1.0000
  H   H204      1.0  0.22667  0.40978  0.55876  1.0000
  C   C131      1.0  0.27239  0.18252  0.51480  1.0000
  C   C132      1.0  0.24385  0.16269  0.51459  1.0000
  C   C133      1.0  0.24620  0.13436  0.50590  1.0000
  H   H205      1.0  0.21989  0.16938  0.52096  1.0000
  H   H206      1.0  0.04360  0.28084  0.51528  1.0000
  C   C134      1.0  0.21591  0.15415  0.59737  1.0000
  C   C135      1.0  0.23955  0.14921  0.58443  1.0000
  C   C136      1.0  0.26605  0.12459  0.58596  1.0000
  C   C137      1.0  0.26924  0.10495  0.60045  1.0000
  C   C138      1.0  0.24562  0.11008  0.61337  1.0000
  C   C139      1.0  0.21906  0.13458  0.61184  1.0000
  H   H207      1.0  0.23728  0.16419  0.57321  1.0000
  H   H208      1.0  0.28425  0.12104  0.57595  1.0000
  H   H209      1.0  0.24726  0.09461  0.62443  1.0000
  H   H210      1.0  0.20074  0.13817  0.62185  1.0000
  C   C140      1.0  0.06158  0.27071  0.53818  1.0000
  Fe  Fe33      1.0  0.31784  0.05763  0.62644  1.0000
  C   C141      1.0  0.05515  0.27569  0.55410  1.0000
  H   H211      1.0  0.14462  0.39360  0.54409  1.0000
  H   H212      1.0  0.27477  0.07078  0.55669  1.0000
  N   N13       1.0  0.31198  0.30869  0.53228  1.0000
  C   C142      1.0  0.31599  0.28286  0.54590  1.0000
  C   C143      1.0  0.27545  0.31390  0.53016  1.0000
  C   C144      1.0  0.33022  0.29655  0.51792  1.0000
  H   H213      1.0  0.45265  0.47570  0.58308  1.0000
  H   H214      1.0  0.30553  0.25785  0.54415  1.0000
  H   H215      1.0  0.30238  0.29098  0.55691  1.0000
  H   H216      1.0  0.27138  0.33359  0.52014  1.0000
  H   H217      1.0  0.26408  0.28987  0.52774  1.0000
  H   H218      1.0  0.22453  0.29343  0.63104  1.0000
  H   H219      1.0  0.32008  0.27182  0.51550  1.0000
  H   H220      1.0  0.11232  0.41535  0.55593  1.0000
  C   C145      1.0  0.35730  0.06500  0.54102  1.0000
  C   C146      1.0  0.47081  0.49554  0.58321  1.0000
  H   H221      1.0  0.23731  0.16740  0.64151  1.0000
  N   N14       1.0  0.18534  0.26573  0.62274  1.0000
  H   H222      1.0  0.21882  0.28751  0.60306  1.0000
  S   S59       1.0  0.28672  0.07034  0.64854  1.0000
  C   C147      1.0  0.20402  0.26404  0.60699  1.0000
  H   H223      1.0  0.14809  0.22975  0.61901  1.0000
  C   C148      1.0  0.27712  0.12555  0.49753  1.0000
  N   N15       1.0  0.32131  0.07682  0.54123  1.0000
  H   H224      1.0  0.30801  0.03771  0.52754  1.0000
  H   H225      1.0  0.06190  0.35589  0.56108  1.0000
  C   C149      1.0  0.20009  0.38970  0.64731  1.0000
  H   H226      1.0  0.08196  0.43314  0.53268  1.0000
  H   H227      1.0  0.32539  0.18912  0.50643  1.0000
  H   H228      1.0  0.18396  0.21105  0.62819  1.0000
  C   C150      1.0  0.24722  0.44257  0.64077  1.0000
  C   C151      1.0  0.02583  0.29410  0.55941  1.0000
  H   H229      1.0  0.26702  0.41639  0.62090  1.0000
  C   C152      1.0  0.15672  0.49783  0.59200  1.0000
  H   H230      1.0  0.22446  0.37071  0.62622  1.0000
  H   H231      1.0  0.17264  0.44853  0.62576  1.0000
  C   C153      1.0  0.19404  0.44807  0.59499  1.0000
  H   H232      1.0  0.06959  0.40193  0.52086  1.0000
  H   H233      1.0  0.32109  0.07692  0.51620  1.0000
  H   H234      1.0  0.05184  0.40056  0.55649  1.0000
  H   H235      1.0  0.14238  0.29326  0.61369  1.0000
  C   C154      1.0  0.16118  0.29532  0.62226  1.0000
  C   C155      1.0  0.32620  0.34139  0.53511  1.0000
  C   C156      1.0  0.10386  0.34842  0.53500  1.0000
  H   H236      1.0  0.10690  0.32734  0.54460  1.0000
  H   H237      1.0  0.13658  0.44753  0.61483  1.0000
  H   H238      1.0  0.37274  0.07555  0.53003  1.0000
  S   S60       1.0  0.04691  0.49748  0.53987  1.0000
  N   N16       1.0  0.17816  0.47719  0.60281  1.0000
  H   H239      1.0  0.22812  0.24752  0.63511  1.0000
  H   H240      1.0  0.36918  0.07278  0.55120  1.0000
  H   H241      1.0  0.21010  0.45700  0.58392  1.0000
  H   H242      1.0  0.35351  0.33832  0.53721  1.0000
  H   H243      1.0  0.22211  0.50815  0.59624  1.0000
  Fe  Fe34      1.0  0.30033  0.51020  0.57855  1.0000
  H   H244      1.0  0.12251  0.37083  0.56117  1.0000
  H   H245      1.0  0.13583  0.48262  0.58882  1.0000
  H   H246      1.0  0.31245  0.35159  0.54566  1.0000
  H   H247      1.0  0.11376  0.41187  0.52046  1.0000
  H   H248      1.0  0.31265  0.06863  0.56656  1.0000
  N   N17       1.0  0.09324  0.38096  0.54138  1.0000
  H   H249      1.0  0.35788  0.29235  0.51906  1.0000
  C   C157      1.0  0.30186  0.06171  0.55590  1.0000
  H   H250      1.0  0.22209  0.24160  0.60695  1.0000
  H   H251      1.0  0.21073  0.43215  0.60274  1.0000
  H   H252      1.0  0.33412  0.12678  0.52973  1.0000
  C   C158      1.0  0.31929  0.11454  0.54053  1.0000
  H   H253      1.0  0.17465  0.31984  0.61887  1.0000
  H   H254      1.0  0.03985  0.36997  0.54424  1.0000
  H   H255      1.0  0.19404  0.52162  0.61235  1.0000
  H   H256      1.0  0.02077  0.29748  0.57179  1.0000
  H   H257      1.0  0.27978  0.07469  0.52710  1.0000
  H   H258      1.0  0.26068  0.32234  0.54087  1.0000
  H   H259      1.0  0.12873  0.35059  0.52758  1.0000
  C   C159      1.0  0.08952  0.40812  0.52826  1.0000
  C   C160      1.0  0.16642  0.23389  0.62754  1.0000
  C   C161      1.0  0.11926  0.39068  0.55108  1.0000
  C   C162      1.0  0.24798  0.41655  0.63091  1.0000
  H   H260      1.0  0.14476  0.48541  0.62358  1.0000
  C   C163      1.0  0.15705  0.46412  0.61737  1.0000
  S   S61       1.0  0.36731  0.07643  0.63263  1.0000
  H   H261      1.0  0.32942  0.12360  0.55089  1.0000
  H   H262      1.0  0.32949  0.13901  0.49124  1.0000
  C   C164      1.0  0.22417  0.39041  0.63406  1.0000
  H   H263      1.0  0.18631  0.26112  0.59803  1.0000
  H   H264      1.0  0.30221  0.03328  0.55670  1.0000
  H   H265      1.0  0.22396  0.11926  0.50569  1.0000
  H   H266      1.0  0.14486  0.52052  0.59734  1.0000
  H   H267      1.0  0.32754  0.31523  0.50736  1.0000
  S   S62       1.0  0.27579  0.47642  0.63677  1.0000
  H   H268      1.0  0.22116  0.48445  0.61533  1.0000
  S   S63       1.0  0.27944  0.08955  0.48699  1.0000
  H   H269      1.0  0.17198  0.50769  0.58084  1.0000
  S   S64       1.0  0.16842  0.35890  0.65023  1.0000
  S   S65       1.0  0.38197  0.08580  0.48535  1.0000
  H   H270      1.0  0.35977  0.03660  0.54155  1.0000
  C   C165      1.0  0.50601  0.48849  0.58003  1.0000
  Fe  Fe35      1.0  0.39173  0.03022  0.49290  1.0000
  H   H271      1.0  0.29505  0.14142  0.64258  1.0000
  Fe  Fe36      1.0  0.18280  0.24611  0.67818  1.0000
  S   S66       1.0  0.13574  0.27662  0.67325  1.0000
  H   H272      1.0  0.24503  0.10101  0.67520  1.0000
  Fe  Fe37      1.0  0.20233  0.29301  0.70144  1.0000
  S   S67       1.0  0.15651  0.32797  0.69828  1.0000
  S   S68       1.0  0.24718  0.29707  0.71548  1.0000
  Fe  Fe38      1.0  0.12774  0.27882  0.69929  1.0000
  S   S69       1.0  0.07756  0.26569  0.71384  1.0000
  Fe  Fe39      1.0  0.16852  0.32216  0.67240  1.0000
  H   H273      1.0  0.22059  0.32489  0.80908  1.0000
  S   S70       1.0  0.17289  0.24443  0.70434  1.0000
  S   S71       1.0  0.21637  0.29124  0.67550  1.0000
  C   C166      1.0  0.25217  0.37741  0.68378  1.0000
  S   S72       1.0  0.33598  0.46587  0.77339  1.0000
  S   S73       1.0  0.35710  0.38383  0.77252  1.0000
  Fe  Fe40      1.0  0.38279  0.43247  0.77549  1.0000
  S   S74       1.0  0.43315  0.44925  0.76291  1.0000
  Fe  Fe41      1.0  0.30923  0.41658  0.77293  1.0000
  S   S75       1.0  0.26461  0.41454  0.75851  1.0000
  C   C167      1.0  0.44385  0.48885  0.76838  1.0000
  H   H274      1.0  0.49913  0.43754  0.77979  1.0000
  C   C168      1.0  0.28808  0.32584  0.78101  1.0000
  C   C169      1.0  0.21986  0.10322  0.68225  1.0000
  H   H275      1.0  0.24270  0.36599  0.67385  1.0000
  H   H276      1.0  0.22254  0.09048  0.69431  1.0000
  H   H277      1.0  0.50721  0.03316  0.71121  1.0000
  C   C170      1.0  0.23685  0.18866  0.66358  1.0000
  H   H278      1.0  0.46841  0.20344  0.81126  1.0000
  H   H279      1.0  0.26367  0.26263  0.78379  1.0000
  C   C171      1.0  0.30149  0.15773  0.66515  1.0000
  C   C172      1.0  0.28778  0.17764  0.67692  1.0000
  C   C173      1.0  0.25543  0.19330  0.67610  1.0000
  C   C174      1.0  0.02633  0.21966  0.71522  1.0000
  H   H280      1.0  0.28754  0.35372  0.77708  1.0000
  H   H281      1.0  0.30157  0.17980  0.68697  1.0000
  H   H282      1.0  0.24430  0.20754  0.68553  1.0000
  C   C175      1.0  0.26097  0.38293  0.74584  1.0000
  C   C176      1.0  0.23039  0.38095  0.73908  1.0000
  C   C177      1.0  0.22575  0.35479  0.72970  1.0000
  C   C178      1.0  0.25166  0.33033  0.72712  1.0000
  C   C179      1.0  0.28237  0.33251  0.73373  1.0000
  C   C180      1.0  0.28718  0.35895  0.74292  1.0000
  H   H283      1.0  0.21003  0.39950  0.74128  1.0000
  H   H284      1.0  0.20200  0.35332  0.72465  1.0000
  H   H285      1.0  0.30265  0.31382  0.73162  1.0000
  H   H286      1.0  0.31109  0.36067  0.74779  1.0000
  C   C181      1.0  0.19118  0.10470  0.65873  1.0000
  H   H287      1.0  0.37603  0.19516  0.80966  1.0000
  H   H288      1.0  0.44142  0.05545  0.65214  1.0000
  C   C182      1.0  0.19970  0.41536  0.65733  1.0000
  H   H289      1.0  0.15353  0.12124  0.68480  1.0000
  N   N18       1.0  0.51149  0.44439  0.80303  1.0000
  H   H290      1.0  0.02882  0.21545  0.72772  1.0000
  C   C183      1.0  0.41904  0.32401  0.80979  1.0000
  N   N19       1.0  0.19259  0.08805  0.67497  1.0000
  H   H291      1.0  0.18072  0.41526  0.66741  1.0000
  H   H292      1.0  0.28985  0.42705  0.66671  1.0000
  C   C184      1.0  0.04518  0.24710  0.68928  1.0000
  H   H293      1.0  0.39932  0.49298  0.78496  1.0000
  S   S76       1.0  0.37712  0.42457  0.80187  1.0000
  H   H294      1.0  0.06174  0.26452  0.68165  1.0000
  H   H295      1.0  0.23574  0.30880  0.76657  1.0000
  H   H296      1.0  0.48811  0.40244  0.79452  1.0000
  C   C185      1.0  0.24509  0.33364  0.80252  1.0000
  S   S77       1.0  0.29764  0.40828  0.79926  1.0000
  H   H297      1.0  0.26502  0.33046  0.81087  1.0000
  H   H298      1.0  0.21462  0.13092  0.68323  1.0000
  H   H299      1.0  0.17944  0.03848  0.66937  1.0000
  H   H300      1.0  0.24202  0.36156  0.79886  1.0000
  H   H301      1.0  0.24309  0.36124  0.69480  1.0000
  H   H302      1.0  0.23162  0.26818  0.79987  1.0000
  C   C186      1.0  0.22876  0.32163  0.77743  1.0000
  C   C187      1.0  0.48959  0.43080  0.79240  1.0000
  C   C188      1.0  0.46337  0.03820  0.65252  1.0000
  H   H303      1.0  0.51958  0.02654  0.69108  1.0000
  H   H304      1.0  0.22246  0.46189  0.66169  1.0000
  Fe  Fe42      1.0  0.34743  0.37864  0.79896  1.0000
  S   S78       1.0  0.31500  0.49655  0.81556  1.0000
  H   H305      1.0  0.39457  0.17050  0.79439  1.0000
  N   N20       1.0  0.25454  0.31464  0.78873  1.0000
  S   S79       1.0  0.33886  0.13324  0.66748  1.0000
  S   S80       1.0  0.19433  0.20245  0.66375  1.0000
  C   C189      1.0  0.04856  0.24188  0.70542  1.0000
  H   H306      1.0  0.41739  0.34572  0.80095  1.0000
  Fe  Fe43      1.0  0.33655  0.08609  0.65527  1.0000
  H   H307      1.0  0.18502  0.13254  0.65862  1.0000
  C   C190      1.0  0.42288  0.50455  0.77981  1.0000
  H   H308      1.0  0.48739  0.49443  0.80100  1.0000
  C   C191      1.0  0.19966  0.05097  0.67460  1.0000
  C   C192      1.0  0.45098  0.30942  0.81284  1.0000
  H   H309      1.0  0.22418  0.04603  0.66749  1.0000
  H   H310      1.0  0.23978  0.40314  0.68436  1.0000
  S   S81       1.0  0.34884  0.32719  0.81384  1.0000
  H   H311      1.0  0.22621  0.34955  0.77362  1.0000
  H   H312      1.0  0.29770  0.32826  0.69271  1.0000
  H   H313      1.0  0.20322  0.31276  0.78269  1.0000
  C   C193      1.0  0.30489  0.34461  0.68147  1.0000
  N   N21       1.0  0.28967  0.37944  0.68179  1.0000
  C   C194      1.0  0.30058  0.40045  0.66683  1.0000
  C   C195      1.0  0.30098  0.39528  0.69509  1.0000
  H   H314      1.0  0.29209  0.38953  0.65654  1.0000
  H   H315      1.0  0.44884  0.13773  0.79759  1.0000
  H   H316      1.0  0.44973  0.20086  0.79332  1.0000
  H   H317      1.0  0.32877  0.40234  0.66484  1.0000
  H   H318      1.0  0.21600  0.10220  0.65146  1.0000
  H   H319      1.0  0.29286  0.38027  0.70656  1.0000
  H   H320      1.0  0.32920  0.39694  0.69408  1.0000
  H   H321      1.0  0.29004  0.42165  0.69564  1.0000
  C   C196      1.0  0.28378  0.15525  0.65210  1.0000
  H   H322      1.0  0.49052  0.49215  0.75290  1.0000
  H   H323      1.0  0.20153  0.03755  0.68662  1.0000
  C   C197      1.0  0.49458  0.04982  0.65618  1.0000
  C   C198      1.0  0.47437  0.50406  0.76184  1.0000
  H   H324      1.0  0.46306  0.44134  0.79405  1.0000
  Fe  Fe44      1.0  0.32822  0.45494  0.79964  1.0000
  C   C199      1.0  0.25648  0.27760  0.79394  1.0000
  S   S82       1.0  0.34828  0.03477  0.66773  1.0000
  H   H325      1.0  0.13836  0.08238  0.67918  1.0000
  C   C200      1.0  0.15958  0.09343  0.68433  1.0000
  H   H326      1.0  0.15973  0.08127  0.69667  1.0000
  H   H327      1.0  0.03059  0.03907  0.72462  1.0000
  H   H328      1.0  0.27587  0.27174  0.80244  1.0000
  H   H329      1.0  0.29608  0.31229  0.77048  1.0000
  H   H330      1.0  0.49641  0.07608  0.65856  1.0000
  H   H331      1.0  0.30825  0.32100  0.78913  1.0000
  H   H332      1.0  0.17149  0.09335  0.65271  1.0000
  C   C201      1.0  0.39134  0.17157  0.80735  1.0000
  H   H333      1.0  0.27808  0.50964  0.78780  1.0000
  C   C202      1.0  0.44381  0.20166  0.80622  1.0000
  H   H334      1.0  0.29612  0.33157  0.67183  1.0000
  H   H335      1.0  0.42930  0.22594  0.80800  1.0000
  H   H336      1.0  0.47382  0.32000  0.80629  1.0000
  H   H337      1.0  0.37617  0.14920  0.81284  1.0000
  H   H338      1.0  0.33318  0.34509  0.67970  1.0000
  C   C203      1.0  0.51312  0.48199  0.79951  1.0000
  N   N22       1.0  0.42459  0.17150  0.81373  1.0000
  C   C204      1.0  0.44406  0.13983  0.81044  1.0000
  C   C205      1.0  0.22319  0.44178  0.65404  1.0000
  H   H339      1.0  0.46918  0.13876  0.81521  1.0000
  H   H340      1.0  0.43046  0.11659  0.81612  1.0000
  C   C206      1.0  0.25132  0.17036  0.65139  1.0000
  Fe  Fe45      1.0  0.49811  0.13736  0.85038  1.0000
  S   S83       1.0  0.48045  0.18359  0.86283  1.0000
  S   S84       1.0  0.45953  0.09735  0.84757  1.0000
  H   H341      1.0  0.07090  0.34950  0.93105  1.0000
  H   H342      1.0  0.47087  0.44681  0.82167  1.0000
  C   C207      1.0  0.38934  0.31017  0.81799  1.0000
  H   H343      1.0  0.36900  0.27138  0.83596  1.0000
  C   C208      1.0  0.24948  0.50399  0.97070  1.0000
  H   H344      1.0  0.40584  0.14987  0.83709  1.0000
  S   S85       1.0  0.03616  0.24810  0.90920  1.0000
  C   C209      1.0  0.51406  0.25992  0.97056  1.0000
  H   H345      1.0  0.03352  0.33697  0.86183  1.0000
  H   H346      1.0  0.03257  0.27566  0.87260  1.0000
  C   C210      1.0  0.04968  0.33399  0.92957  1.0000
  C   C211      1.0  0.02804  0.28379  0.91992  1.0000
  Fe  Fe46      1.0  0.08883  0.47540  0.95196  1.0000
  S   S86       1.0  0.10874  0.45977  0.97516  1.0000
  C   C212      1.0  0.49706  0.43565  0.81954  1.0000
  Fe  Fe47      1.0  0.05009  0.40879  0.95310  1.0000
  C   C213      1.0  0.19090  0.51490  0.98043  1.0000
  H   H347      1.0  0.22766  0.34982  0.98246  1.0000
  H   H348      1.0  0.41970  0.03973  0.84389  1.0000
  H   H349      1.0  0.42585  0.24652  0.84176  1.0000
  Fe  Fe48      1.0  0.11804  0.40832  0.96650  1.0000
  S   S87       1.0  0.16675  0.37814  0.97029  1.0000
  Fe  Fe49      1.0  0.05623  0.44120  0.98315  1.0000
  S   S88       1.0  0.10225  0.42525  0.94225  1.0000
  C   C214      1.0  0.05534  0.30403  0.92206  1.0000
  C   C215      1.0  0.20704  0.46205  0.96951  1.0000
  H   H350      1.0  0.49803  0.27793  0.97748  1.0000
  C   C216      1.0  0.41902  0.17292  0.83093  1.0000
  C   C217      1.0  0.42396  0.26764  0.83266  1.0000
  C   C218      1.0  0.39188  0.28189  0.82942  1.0000
  C   C219      1.0  0.50529  0.04259  0.84457  1.0000
  C   C220      1.0  0.44601  0.03099  0.84353  1.0000
  S   S89       1.0  0.06700  0.38812  0.97658  1.0000
  S   S90       1.0  0.03535  0.46068  0.96061  1.0000
  H   H351      1.0  0.08100  0.29662  0.91778  1.0000
  H   H352      1.0  0.40349  0.19585  0.83393  1.0000
  C   C221      1.0  0.47136  0.05419  0.84509  1.0000
  H   H353      1.0  0.22010  0.52062  0.93195  1.0000
  Fe  Fe50      1.0  0.50814  0.21410  0.84183  1.0000
  H   H354      1.0  0.51318  0.23429  0.97761  1.0000
  C   C222      1.0  0.45359  0.28111  0.82421  1.0000
  H   H355      1.0  0.20213  0.47314  0.95745  1.0000
  H   H356      1.0  0.27047  0.48459  0.96927  1.0000
  H   H357      1.0  0.16170  0.49792  0.93437  1.0000
  H   H358      1.0  0.22645  0.44101  0.96831  1.0000
  H   H359      1.0  0.44359  0.17388  0.83604  1.0000
  S   S91       1.0  0.49441  0.26314  0.82701  1.0000
  H   H360      1.0  0.50206  0.25766  0.95958  1.0000
  H   H361      1.0  0.18315  0.45004  0.97518  1.0000
  H   H362      1.0  0.24540  0.51658  0.95875  1.0000
  H   H363      1.0  0.49541  0.40743  0.82258  1.0000
  N   N23       1.0  0.21804  0.48825  0.97881  1.0000
  H   H364      1.0  0.51296  0.44552  0.82790  1.0000
  C   C223      1.0  0.05518  0.53670  0.12117  1.0000
  H   H365      1.0  0.49287  0.75804  0.07248  1.0000
  N   N24       1.0  0.21790  0.77216  0.99428  1.0000
  Fe  Fe51      1.0  0.39294  0.91017  0.03195  1.0000
  S   S92       1.0  0.38464  0.88417  0.05654  1.0000
  S   S93       1.0  0.40971  0.96440  0.02602  1.0000
  Fe  Fe52      1.0  0.36528  0.85110  0.01772  1.0000
  S   S94       1.0  0.35444  0.82012  0.04122  1.0000
  N   N25       1.0  0.34461  0.98431  0.06964  1.0000
  Fe  Fe53      1.0  0.33423  0.86986  0.04975  1.0000
  S   S95       1.0  0.28717  0.87432  0.06705  1.0000
  Fe  Fe54      1.0  0.40585  0.83730  0.04583  1.0000
  S   S96       1.0  0.44142  0.80097  0.05901  1.0000
  S   S97       1.0  0.34103  0.89931  0.02584  1.0000
  S   S98       1.0  0.41827  0.86470  0.02164  1.0000
  S   S99       1.0  0.51431  0.02085  0.06685  1.0000
  H   H366      1.0  0.16585  0.76613  0.00423  1.0000
  C   C224      1.0  0.44920  0.01321  0.03423  1.0000
  C   C225      1.0  0.45781  0.72480  0.02482  1.0000
  C   C226      1.0  0.32378  0.95776  0.07936  1.0000
  H   H367      1.0  0.32762  0.95666  0.09204  1.0000
  H   H368      1.0  0.42532  0.78571  0.02799  1.0000
  C   C227      1.0  0.42164  0.72350  0.00395  1.0000
  S   S100      1.0  0.05090  0.98448  0.10285  1.0000
  H   H369      1.0  0.06192  0.97257  0.05118  1.0000
  H   H370      1.0  0.08610  0.90159  0.06485  1.0000
  C   C228      1.0  0.13021  0.97327  0.05113  1.0000
  C   C229      1.0  0.10410  0.91810  0.05671  1.0000
  H   H371      1.0  0.31905  0.71953  0.00998  1.0000
  C   C230      1.0  0.33989  0.98350  0.05285  1.0000
  C   C231      1.0  0.44021  0.97883  0.03695  1.0000
  C   C232      1.0  0.07188  0.96909  0.06289  1.0000
  C   C233      1.0  0.32299  0.73199  0.98478  1.0000
  C   C234      1.0  0.45459  0.95712  0.04867  1.0000
  H   H372      1.0  0.42158  0.69505  0.00530  1.0000
  H   H373      1.0  0.40012  0.78491  0.01193  1.0000
  H   H374      1.0  0.44786  0.93050  0.05077  1.0000
  C   C235      1.0  0.22350  0.97426  0.06505  1.0000
  C   C236      1.0  0.21984  0.95041  0.07845  1.0000
  C   C237      1.0  0.23874  0.91932  0.07878  1.0000
  C   C238      1.0  0.26173  0.91217  0.06584  1.0000
  C   C239      1.0  0.26491  0.93586  0.05239  1.0000
  C   C240      1.0  0.24572  0.96665  0.05198  1.0000
  H   H375      1.0  0.20282  0.95605  0.08862  1.0000
  H   H376      1.0  0.23618  0.90110  0.08924  1.0000
  H   H377      1.0  0.28214  0.93051  0.04229  1.0000
  H   H378      1.0  0.14374  0.93604  0.07797  1.0000
  C   C241      1.0  0.48206  0.78798  0.05091  1.0000
  H   H379      1.0  0.12945  0.90470  0.05611  1.0000
  H   H380      1.0  0.19834  0.53515  0.98735  1.0000
  C   C242      1.0  0.34192  0.79707  0.99073  1.0000
  H   H381      1.0  0.47931  0.81557  0.02793  1.0000
  H   H382      1.0  0.20878  0.71883  0.00163  1.0000
  H   H383      1.0  0.07236  0.99481  0.06709  1.0000
  C   C243      1.0  0.42401  0.77476  0.01670  1.0000
  H   H384      1.0  0.44557  0.78496  0.00826  1.0000
  C   C244      1.0  0.33381  0.77190  0.00328  1.0000
  C   C245      1.0  0.32481  0.73921  0.00029  1.0000
  H   H385      1.0  0.38552  0.97782  0.08444  1.0000
  H   H386      1.0  0.44286  0.73184  0.99488  1.0000
  H   H387      1.0  0.33469  0.77763  0.01523  1.0000
  H   H388      1.0  0.13220  0.99922  0.05489  1.0000
  H   H389      1.0  0.29617  0.96283  0.07840  1.0000
  H   H390      1.0  0.07253  0.54262  0.12986  1.0000
  C   C246      1.0  0.18128  0.78147  0.99449  1.0000
  H   H391      1.0  0.31311  0.98974  0.05054  1.0000
  H   H392      1.0  0.12234  0.97671  0.03900  1.0000
  C   C247      1.0  0.49428  0.79815  0.03524  1.0000
  H   H393      1.0  0.47992  0.73467  0.01662  1.0000
  H   H394      1.0  0.11914  0.97347  0.08240  1.0000
  H   H395      1.0  0.15640  0.96165  0.05057  1.0000
  H   H396      1.0  0.09519  0.92008  0.04478  1.0000
  H   H397      1.0  0.39700  0.69654  0.03313  1.0000
  H   H398      1.0  0.34645  0.95777  0.04899  1.0000
  H   H399      1.0  0.24840  0.98485  0.04152  1.0000
  H   H400      1.0  0.09948  0.53531  0.09516  1.0000
  H   H401      1.0  0.05310  0.95409  0.07131  1.0000
  C   C248      1.0  0.11786  0.94822  0.07800  1.0000
  C   C249      1.0  0.38090  0.97774  0.07190  1.0000
  H   H402      1.0  0.10017  0.93269  0.08674  1.0000
  N   N26       1.0  0.42506  0.73698  0.01907  1.0000
  S   S101      1.0  0.35573  0.83747  0.99378  1.0000
  H   H403      1.0  0.39846  0.73524  0.04234  1.0000
  S   S102      1.0  0.14557  0.00109  0.10665  1.0000
  H   H404      1.0  0.21624  0.76259  0.01951  1.0000
  C   C250      1.0  0.39681  0.72494  0.03087  1.0000
  H   H405      1.0  0.37168  0.73335  0.02691  1.0000
  H   H406      1.0  0.25773  0.77158  0.00947  1.0000
  C   C251      1.0  0.47752  0.97011  0.05780  1.0000
  H   H407      1.0  0.48835  0.95346  0.06698  1.0000
  N   N27       1.0  0.10599  0.95218  0.06216  1.0000
  C   C252      1.0  0.50222  0.76604  0.06036  1.0000
  C   C253      1.0  0.48625  0.00467  0.05513  1.0000
  H   H408      1.0  0.46050  0.73337  0.03653  1.0000
  C   C254      1.0  0.22297  0.73558  0.99200  1.0000
  S   S103      1.0  0.15324  0.52707  0.14203  1.0000
  C   C255      1.0  0.23010  0.77825  0.00937  1.0000
  H   H409      1.0  0.05339  0.55977  0.11251  1.0000
  H   H410      1.0  0.33008  0.93184  0.07564  1.0000
  H   H411      1.0  0.46004  0.69638  0.02619  1.0000
  H   H412      1.0  0.22670  0.80562  0.01150  1.0000
  H   H413      1.0  0.39750  0.73275  0.99912  1.0000
  H   H414      1.0  0.38987  0.95246  0.06820  1.0000
  H   H415      1.0  0.39736  0.99740  0.06477  1.0000
  H   H416      1.0  0.35646  0.00207  0.04506  1.0000
  S   S104      1.0  0.20127  0.01399  0.06402  1.0000
  C   C256      1.0  0.33380  0.01830  0.07441  1.0000
  H   H417      1.0  0.17641  0.80902  0.99594  1.0000
  H   H418      1.0  0.25030  0.72757  0.99162  1.0000
  H   H419      1.0  0.02945  0.53277  0.12766  1.0000
  H   H420      1.0  0.33692  0.01976  0.08704  1.0000
  Fe  Fe55      1.0  0.09389  0.02212  0.10087  1.0000
  H   H421      1.0  0.33128  0.61467  0.17348  1.0000
  H   H422      1.0  0.28752  0.65268  0.23422  1.0000
  S   S105      1.0  0.24518  0.54884  0.15439  1.0000
  H   H423      1.0  0.24118  0.74737  0.24627  1.0000
  C   C257      1.0  0.49869  0.68914  0.25693  1.0000
  C   C258      1.0  0.29096  0.67741  0.23891  1.0000
  H   H424      1.0  0.43302  0.70674  0.26358  1.0000
  Fe  Fe56      1.0  0.28523  0.79426  0.29936  1.0000
  S   S106      1.0  0.30614  0.78983  0.27403  1.0000
  S   S107      1.0  0.22922  0.78818  0.30672  1.0000
  H   H425      1.0  0.24002  0.67369  0.26235  1.0000
  S   S108      1.0  0.08455  0.67594  0.31699  1.0000
  C   C259      1.0  0.46379  0.69289  0.23543  1.0000
  Fe  Fe57      1.0  0.34946  0.63669  0.20534  1.0000
  S   S109      1.0  0.34542  0.60346  0.22835  1.0000
  S   S110      1.0  0.29704  0.65116  0.19821  1.0000
  Fe  Fe58      1.0  0.42738  0.63513  0.20276  1.0000
  S   S111      1.0  0.42834  0.60170  0.22566  1.0000
  S   S112      1.0  0.48003  0.64305  0.18978  1.0000
  Fe  Fe59      1.0  0.38772  0.57246  0.21716  1.0000
  H   H426      1.0  0.20876  0.58658  0.17892  1.0000
  Fe  Fe60      1.0  0.38599  0.63628  0.23447  1.0000
  S   S113      1.0  0.38424  0.65206  0.25889  1.0000
  S   S114      1.0  0.38935  0.60329  0.19359  1.0000
  S   S115      1.0  0.38752  0.67223  0.21225  1.0000
  C   C260      1.0  0.23545  0.59266  0.17775  1.0000
  H   H427      1.0  0.50198  0.54890  0.16558  1.0000
  S   S116      1.0  0.06799  0.54835  0.16550  1.0000
  C   C261      1.0  0.32850  0.75174  0.26997  1.0000
  C   C262      1.0  0.32985  0.72391  0.28154  1.0000
  C   C263      1.0  0.34717  0.69354  0.27801  1.0000
  C   C264      1.0  0.36233  0.69036  0.26274  1.0000
  C   C265      1.0  0.36063  0.71794  0.25102  1.0000
  C   C266      1.0  0.34407  0.74870  0.25469  1.0000
  H   H428      1.0  0.31736  0.72555  0.29321  1.0000
  H   H429      1.0  0.34841  0.67227  0.28712  1.0000
  H   H430      1.0  0.37260  0.71584  0.23925  1.0000
  H   H431      1.0  0.34311  0.77017  0.24567  1.0000
  H   H432      1.0  0.45875  0.74231  0.26562  1.0000
  H   H433      1.0  0.52034  0.67759  0.24974  1.0000
  C   C267      1.0  0.23240  0.67921  0.25019  1.0000
  C   C268      1.0  0.29262  0.58645  0.16501  1.0000
  N   N28       1.0  0.25899  0.69814  0.23959  1.0000
  H   H434      1.0  0.48429  0.76205  0.20122  1.0000
  C   C269      1.0  0.50073  0.68104  0.19172  1.0000
  H   H435      1.0  0.27268  0.72666  0.25780  1.0000
  C   C270      1.0  0.48205  0.71004  0.19588  1.0000
  C   C271      1.0  0.15216  0.96641  0.31712  1.0000
  C   C272      1.0  0.24796  0.70494  0.22360  1.0000
  H   H436      1.0  0.31213  0.53673  0.21086  1.0000
  H   H437      1.0  0.48447  0.68158  0.22760  1.0000
  H   H438      1.0  0.14436  0.70876  0.30102  1.0000
  H   H439      1.0  0.28489  0.74571  0.23810  1.0000
  C   C273      1.0  0.28205  0.62336  0.18589  1.0000
  H   H440      1.0  0.47726  0.56365  0.20722  1.0000
  C   C274      1.0  0.49894  0.74017  0.23843  1.0000
  H   H441      1.0  0.45454  0.70970  0.19740  1.0000
  H   H442      1.0  0.30013  0.67155  0.25076  1.0000
  C   C275      1.0  0.30463  0.60848  0.17481  1.0000
  C   C276      1.0  0.28679  0.53128  0.20727  1.0000
  H   H443      1.0  0.26801  0.71810  0.21517  1.0000
  C   C277      1.0  0.50290  0.55159  0.20492  1.0000
  H   H444      1.0  0.22756  0.65428  0.24597  1.0000
  C   C278      1.0  0.24733  0.61570  0.18724  1.0000
  H   H445      1.0  0.20788  0.69408  0.25098  1.0000
  C   C279      1.0  0.02776  0.53582  0.16112  1.0000
  C   C280      1.0  0.26466  0.73089  0.24568  1.0000
  C   C281      1.0  0.44931  0.72712  0.25689  1.0000
  H   H446      1.0  0.22966  0.62726  0.19573  1.0000
  H   H447      1.0  0.22437  0.72124  0.22351  1.0000
  H   H448      1.0  0.24279  0.68074  0.21879  1.0000
  H   H449      1.0  0.31164  0.69086  0.23101  1.0000
  H   H450      1.0  0.50706  0.53288  0.21532  1.0000
  H   H451      1.0  0.47417  0.57309  0.17847  1.0000
  H   H452      1.0  0.31023  0.57563  0.15624  1.0000
  S   S117      1.0  0.28811  0.84299  0.31081  1.0000
  N   N29       1.0  0.47769  0.71237  0.24692  1.0000
  H   H453      1.0  0.19311  0.99686  0.25657  1.0000
  C   C282      1.0  0.25814  0.57812  0.16654  1.0000
  H   H454      1.0  0.43254  0.74433  0.24970  1.0000
  H   H455      1.0  0.48395  0.75826  0.23076  1.0000
  C   C283      1.0  0.49894  0.73967  0.19800  1.0000
  H   H456      1.0  0.44796  0.67148  0.24143  1.0000
  C   C284      1.0  0.49990  0.56061  0.17685  1.0000
  C   C285      1.0  0.20616  0.01985  0.25027  1.0000
  H   H457      1.0  0.22015  0.00655  0.28025  1.0000
  H   H458      1.0  0.26785  0.53154  0.21781  1.0000
  H   H459      1.0  0.44740  0.70947  0.22780  1.0000
  H   H460      1.0  0.51009  0.75534  0.24669  1.0000
  C   C286      1.0  0.21537  0.93123  0.31570  1.0000
  H   H461      1.0  0.28006  0.55288  0.19859  1.0000
  H   H462      1.0  0.25799  0.02155  0.26830  1.0000
  N   N30       1.0  0.50556  0.53484  0.19028  1.0000
  C   C287      1.0  0.14916  0.70046  0.31304  1.0000
  H   H463      1.0  0.48338  0.66781  0.26344  1.0000
  H   H464      1.0  0.50954  0.70292  0.26579  1.0000
  H   H465      1.0  0.19896  0.72215  0.31051  1.0000
  H   H466      1.0  0.02581  0.87122  0.28422  1.0000
  H   H467      1.0  0.43125  0.52947  0.23860  1.0000
  H   H468      1.0  0.23685  0.98131  0.31006  1.0000
  C   C288      1.0  0.21362  0.96717  0.31280  1.0000
  C   C289      1.0  0.18203  0.98489  0.31350  1.0000
  H   H469      1.0  0.51869  0.58140  0.17559  1.0000
  H   H470      1.0  0.23087  0.01109  0.24435  1.0000
  H   H471      1.0  0.23980  0.91785  0.31515  1.0000
  H   H472      1.0  0.52051  0.73000  0.23068  1.0000
  Fe  Fe61      1.0  0.24647  0.75697  0.32796  1.0000
  S   S118      1.0  0.04204  0.62664  0.35729  1.0000
  S   S119      1.0  0.06630  0.66604  0.39430  1.0000
  Fe  Fe62      1.0  0.04524  0.67019  0.33791  1.0000
  C   C290      1.0  0.13118  0.72229  0.48294  1.0000
  Fe  Fe63      1.0  0.20943  0.83602  0.44974  1.0000
  S   S120      1.0  0.24736  0.79274  0.45299  1.0000
  S   S121      1.0  0.21440  0.88450  0.46119  1.0000
  Fe  Fe64      1.0  0.16798  0.79679  0.42946  1.0000
  S   S122      1.0  0.20303  0.75081  0.43129  1.0000
  S   S123      1.0  0.12395  0.80097  0.41432  1.0000
  Fe  Fe65      1.0  0.20178  0.75911  0.45679  1.0000
  Fe  Fe66      1.0  0.24455  0.78882  0.42738  1.0000
  S   S124      1.0  0.28952  0.78398  0.40952  1.0000
  S   S125      1.0  0.16350  0.80272  0.45540  1.0000
  S   S126      1.0  0.20993  0.83462  0.42371  1.0000
  H   H473      1.0  0.04286  0.73720  0.39013  1.0000
  S   S127      1.0  0.47749  0.63099  0.42193  1.0000
  Fe  Fe67      1.0  0.46571  0.68229  0.38151  1.0000
  S   S128      1.0  0.43913  0.63301  0.38953  1.0000
  S   S129      1.0  0.45931  0.70904  0.35733  1.0000
  Fe  Fe68      1.0  0.43022  0.65506  0.41265  1.0000
  S   S130      1.0  0.37933  0.65202  0.42703  1.0000
  H   H474      1.0  0.25659  0.98579  0.44621  1.0000
  H   H475      1.0  0.35426  0.70466  0.35629  1.0000
  S   S131      1.0  0.45385  0.70581  0.40411  1.0000
  H   H476      1.0  0.29717  0.96169  0.47587  1.0000
  C   C291      1.0  0.31440  0.74771  0.41494  1.0000
  C   C292      1.0  0.30413  0.72484  0.42815  1.0000
  C   C293      1.0  0.32405  0.69530  0.43187  1.0000
  C   C294      1.0  0.35408  0.68862  0.42236  1.0000
  C   C295      1.0  0.36379  0.71123  0.40902  1.0000
  C   C296      1.0  0.34428  0.74092  0.40547  1.0000
  H   H477      1.0  0.28093  0.72984  0.43551  1.0000
  H   H478      1.0  0.31627  0.67776  0.44216  1.0000
  H   H479      1.0  0.38588  0.70549  0.40121  1.0000
  H   H480      1.0  0.35195  0.75836  0.39522  1.0000
  C   C297      1.0  0.24463  0.02190  0.47150  1.0000
  H   H481      1.0  0.41199  0.93984  0.47291  1.0000
  H   H482      1.0  0.26536  0.73085  0.36961  1.0000
  H   H483      1.0  0.46828  0.91223  0.44922  1.0000
  C   C298      1.0  0.42471  0.73821  0.35542  1.0000
  C   C299      1.0  0.41065  0.74390  0.34102  1.0000
  S   S132      1.0  0.22256  0.71041  0.34155  1.0000
  C   C300      1.0  0.38544  0.78118  0.36569  1.0000
  C   C301      1.0  0.41176  0.75668  0.36783  1.0000
  H   H484      1.0  0.37624  0.79626  0.37512  1.0000
  H   H485      1.0  0.42225  0.75257  0.37901  1.0000
  S   S133      1.0  0.18631  0.86780  0.32410  1.0000
  C   C302      1.0  0.13049  0.67196  0.33883  1.0000
  C   C303      1.0  0.16162  0.67890  0.34409  1.0000
  C   C304      1.0  0.14551  0.78077  0.33700  1.0000
  H   H486      1.0  0.11139  0.65812  0.34680  1.0000
  H   H487      1.0  0.16624  0.67056  0.35613  1.0000
  C   C305      1.0  0.08367  0.70433  0.39820  1.0000
  C   C306      1.0  0.11403  0.70281  0.40533  1.0000
  C   C307      1.0  0.12684  0.73239  0.41005  1.0000
  C   C308      1.0  0.10920  0.76370  0.40787  1.0000
  C   C309      1.0  0.07916  0.76542  0.40042  1.0000
  C   C310      1.0  0.06648  0.73584  0.39551  1.0000
  H   H488      1.0  0.12761  0.67858  0.40731  1.0000
  H   H489      1.0  0.15020  0.73076  0.41552  1.0000
  H   H490      1.0  0.06534  0.78957  0.39868  1.0000
  H   H491      1.0  0.51641  0.75916  0.35973  1.0000
  C   C311      1.0  0.12416  0.68286  0.32333  1.0000
  Fe  Fe69      1.0  0.23328  0.83373  0.31993  1.0000
  S   S134      1.0  0.04352  0.71130  0.35394  1.0000
  H   H492      1.0  0.24186  0.93210  0.47900  1.0000
  Fe  Fe70      1.0  0.03605  0.66852  0.37329  1.0000
  Fe  Fe71      1.0  0.30093  0.80690  0.33174  1.0000
  H   H493      1.0  0.30183  0.74556  0.37756  1.0000
  C   C312      1.0  0.31748  0.93668  0.45577  1.0000
  C   C313      1.0  0.29249  0.94348  0.46790  1.0000
  C   C314      1.0  0.26125  0.92671  0.46966  1.0000
  C   C315      1.0  0.25493  0.90280  0.45945  1.0000
  C   C316      1.0  0.28041  0.89510  0.44767  1.0000
  C   C317      1.0  0.31157  0.91206  0.44583  1.0000
  H   H494      1.0  0.09776  0.71628  0.45643  1.0000
  C   C318      1.0  0.40105  0.87390  0.47153  1.0000
  H   H495      1.0  0.27587  0.87651  0.43981  1.0000
  H   H496      1.0  0.33092  0.90639  0.43652  1.0000
  C   C319      1.0  0.18597  0.69787  0.33403  1.0000
  N   N31       1.0  0.13186  0.78215  0.35364  1.0000
  C   C320      1.0  0.13490  0.74781  0.36238  1.0000
  C   C321      1.0  0.15139  0.80656  0.36076  1.0000
  C   C322      1.0  0.09569  0.79339  0.35443  1.0000
  H   H497      1.0  0.11891  0.72906  0.35796  1.0000
  H   H498      1.0  0.26279  0.02241  0.43186  1.0000
  H   H499      1.0  0.15055  0.83257  0.35415  1.0000
  N   N32       1.0  0.06494  0.67930  0.44974  1.0000
  H   H500      1.0  0.11378  0.67289  0.45886  1.0000
  H   H501      1.0  0.09267  0.81964  0.34832  1.0000
  H   H502      1.0  0.45684  0.93572  0.47475  1.0000
  C   C323      1.0  0.50333  0.77513  0.36859  1.0000
  H   H503      1.0  0.14343  0.80617  0.32995  1.0000
  H   H504      1.0  0.08314  0.62782  0.44724  1.0000
  H   H505      1.0  0.12672  0.74822  0.37511  1.0000
  C   C324      1.0  0.44306  0.89992  0.45174  1.0000
  H   H506      1.0  0.42076  0.72995  0.33132  1.0000
  C   C325      1.0  0.15969  0.70044  0.48402  1.0000
  H   H507      1.0  0.11455  0.69595  0.43961  1.0000
  C   C326      1.0  0.43247  0.92188  0.47698  1.0000
  H   H508      1.0  0.04404  0.69290  0.47246  1.0000
  C   C327      1.0  0.50464  0.76091  0.42810  1.0000
  H   H509      1.0  0.42366  0.91799  0.44669  1.0000
  Fe  Fe72      1.0  0.48892  0.61344  0.39791  1.0000
  Fe  Fe73      1.0  0.50197  0.67998  0.41136  1.0000
  Fe  Fe74      1.0  0.36235  0.00564  0.46495  1.0000
  H   H510      1.0  0.13169  0.76204  0.33139  1.0000
  C   C328      1.0  0.34479  0.69448  0.36853  1.0000
  C   C329      1.0  0.09923  0.69157  0.45124  1.0000
  H   H511      1.0  0.04199  0.72982  0.44735  1.0000
  H   H512      1.0  0.13377  0.74762  0.47673  1.0000
  H   H513      1.0  0.45438  0.53926  0.40876  1.0000
  H   H514      1.0  0.48729  0.79210  0.39776  1.0000
  C   C330      1.0  0.18548  0.91279  0.31954  1.0000
  N   N33       1.0  0.43437  0.89063  0.46883  1.0000
  H   H515      1.0  0.31316  0.85019  0.37666  1.0000
  N   N34       1.0  0.30719  0.69443  0.37079  1.0000
  C   C331      1.0  0.29562  0.67870  0.38685  1.0000
  H   H516      1.0  0.30573  0.65201  0.38902  1.0000
  H   H517      1.0  0.26734  0.67814  0.38889  1.0000
  H   H518      1.0  0.30424  0.69322  0.39598  1.0000
  C   C332      1.0  0.24764  0.83350  0.37866  1.0000
  H   H519      1.0  0.26606  0.81489  0.37331  1.0000
  H   H520      1.0  0.24290  0.82425  0.39140  1.0000
  H   H521      1.0  0.22320  0.83247  0.37346  1.0000
  H   H522      1.0  0.24644  0.91851  0.38259  1.0000
  H   H523      1.0  0.29233  0.85840  0.39541  1.0000
  H   H524      1.0  0.21160  0.89193  0.38038  1.0000
  H   H525      1.0  0.30295  0.74303  0.35682  1.0000
  C   C333      1.0  0.38322  0.76726  0.33915  1.0000
  H   H526      1.0  0.08099  0.65459  0.42898  1.0000
  H   H527      1.0  0.47614  0.80802  0.43095  1.0000
  N   N35       1.0  0.26123  0.86840  0.37624  1.0000
  C   C334      1.0  0.15393  0.93053  0.32025  1.0000
  H   H528      1.0  0.13070  0.91646  0.32324  1.0000
  H   H529      1.0  0.48381  0.74851  0.42409  1.0000
  H   H530      1.0  0.35512  0.71077  0.37654  1.0000
  C   C335      1.0  0.23736  0.89179  0.38452  1.0000
  C   C336      1.0  0.29458  0.86778  0.38261  1.0000
  H   H531      1.0  0.23447  0.88412  0.39745  1.0000
  H   H532      1.0  0.14117  0.80872  0.37324  1.0000
  S   S135      1.0  0.33646  0.81562  0.34959  1.0000
  H   H533      1.0  0.27582  0.90657  0.35691  1.0000
  C   C337      1.0  0.29463  0.67447  0.35912  1.0000
  H   H534      1.0  0.12772  0.97978  0.31771  1.0000
  S   S136      1.0  0.35610  0.95884  0.45254  1.0000
  C   C338      1.0  0.26531  0.88043  0.35921  1.0000
  H   H535      1.0  0.28307  0.86339  0.35256  1.0000
  S   S137      1.0  0.24656  0.80161  0.34171  1.0000
  H   H536      1.0  0.40159  0.85015  0.46558  1.0000
  H   H537      1.0  0.37246  0.77137  0.32802  1.0000
  C   C339      1.0  0.37063  0.78601  0.35150  1.0000
  H   H538      1.0  0.30584  0.89356  0.38103  1.0000
  H   H539      1.0  0.17288  0.77277  0.33597  1.0000
  H   H540      1.0  0.26647  0.67216  0.36106  1.0000
  C   C340      1.0  0.29369  0.73002  0.36861  1.0000
  H   H541      1.0  0.08040  0.77608  0.34874  1.0000
  H   H542      1.0  0.30083  0.68684  0.34687  1.0000
  H   H543      1.0  0.30589  0.64809  0.35980  1.0000
  H   H544      1.0  0.35609  0.66832  0.37087  1.0000
  H   H545      1.0  0.24061  0.88114  0.35401  1.0000
  H   H546      1.0  0.46336  0.84322  0.46897  1.0000
  H   H547      1.0  0.06100  0.65010  0.47261  1.0000
  S   S138      1.0  0.20002  0.71350  0.47537  1.0000
  H   H548      1.0  0.08427  0.79354  0.36685  1.0000
  H   H549      1.0  0.44469  0.87692  0.44522  1.0000
  H   H550      1.0  0.16167  0.73782  0.36136  1.0000
  C   C341      1.0  0.04693  0.67042  0.46560  1.0000
  H   H551      1.0  0.29076  0.01402  0.44707  1.0000
  H   H552      1.0  0.27146  0.02339  0.47413  1.0000
  H   H553      1.0  0.23675  0.99496  0.47459  1.0000
  H   H554      1.0  0.17856  0.79822  0.36071  1.0000
  S   S139      1.0  0.30208  0.75925  0.31982  1.0000
  C   C342      1.0  0.06810  0.64870  0.44112  1.0000
  S   S140      1.0  0.41519  0.01800  0.46928  1.0000
  C   C343      1.0  0.04545  0.70655  0.44103  1.0000
  H   H555      1.0  0.49660  0.83032  0.38477  1.0000
  H   H556      1.0  0.05878  0.71453  0.42920  1.0000
  H   H557      1.0  0.51699  0.58112  0.44449  1.0000
  H   H558      1.0  0.38055  0.89108  0.46685  1.0000
  C   C344      1.0  0.46087  0.86691  0.47502  1.0000
  H   H559      1.0  0.48287  0.75932  0.37539  1.0000
  C   C345      1.0  0.50028  0.79458  0.43208  1.0000
  H   H560      1.0  0.48631  0.87879  0.47316  1.0000
  H   H561      1.0  0.50091  0.00780  0.46002  1.0000
  H   H562      1.0  0.49073  0.79730  0.36208  1.0000
  H   H563      1.0  0.04273  0.63858  0.43985  1.0000
  H   H564      1.0  0.19763  0.00278  0.45412  1.0000
  C   C346      1.0  0.50827  0.80680  0.39065  1.0000
  H   H565      1.0  0.02099  0.66097  0.46498  1.0000
  C   C347      1.0  0.26375  0.01317  0.44454  1.0000
  C   C348      1.0  0.17994  0.70825  0.31844  1.0000
  S   S141      1.0  0.51652  0.66118  0.38783  1.0000
  H   H566      1.0  0.51787  0.56091  0.42680  1.0000
  S   S142      1.0  0.51943  0.56489  0.39339  1.0000
  C   C349      1.0  0.18234  0.71296  0.53808  1.0000
  C   C350      1.0  0.13627  0.69287  0.55737  1.0000
  N   N36       1.0  0.39150  0.58123  0.54797  1.0000
  C   C351      1.0  0.44443  0.98135  0.51446  1.0000
  C   C352      1.0  0.36002  0.57822  0.55897  1.0000
  H   H567      1.0  0.46491  0.00095  0.49107  1.0000
  H   H568      1.0  0.40460  0.62912  0.55533  1.0000
  C   C353      1.0  0.41564  0.60306  0.55401  1.0000
  Fe  Fe75      1.0  0.04535  0.55373  0.54248  1.0000
  S   S143      1.0  0.03818  0.56783  0.56718  1.0000
  Fe  Fe76      1.0  0.05256  0.62738  0.52833  1.0000
  S   S144      1.0  0.04695  0.64719  0.55199  1.0000
  S   S145      1.0  0.05520  0.66602  0.50684  1.0000
  Fe  Fe77      1.0  0.08175  0.60273  0.55900  1.0000
  S   S146      1.0  0.12401  0.60764  0.57449  1.0000
  S   S147      1.0  0.09093  0.58610  0.53475  1.0000
  H   H569      1.0  0.20168  0.70118  0.54568  1.0000
  H   H570      1.0  0.34124  0.56172  0.55486  1.0000
  H   H571      1.0  0.11198  0.67880  0.55964  1.0000
  C   C354      1.0  0.09566  0.67883  0.49835  1.0000
  C   C355      1.0  0.12416  0.65698  0.49954  1.0000
  H   H572      1.0  0.13086  0.71911  0.56078  1.0000
  H   H573      1.0  0.36244  0.89200  0.64287  1.0000
  C   C356      1.0  0.45933  0.52812  0.58675  1.0000
  H   H574      1.0  0.12150  0.63161  0.50577  1.0000
  N   N37       1.0  0.15055  0.69353  0.54072  1.0000
  H   H575      1.0  0.42701  0.91585  0.48997  1.0000
  H   H576      1.0  0.47662  0.91199  0.53599  1.0000
  S   S148      1.0  0.32802  0.00306  0.63622  1.0000
  H   H577      1.0  0.13637  0.71270  0.51785  1.0000
  H   H578      1.0  0.36255  0.93761  0.64273  1.0000
  H   H579      1.0  0.41386  0.53439  0.55818  1.0000
  H   H580      1.0  0.36545  0.56680  0.57092  1.0000
  S   S149      1.0  0.41138  0.01227  0.51600  1.0000
  C   C357      1.0  0.49640  0.93081  0.51237  1.0000
  H   H581      1.0  0.37115  0.62266  0.53295  1.0000
  C   C358      1.0  0.16379  0.58654  0.57069  1.0000
  C   C359      1.0  0.17215  0.57116  0.55684  1.0000
  C   C360      1.0  0.40727  0.54690  0.54657  1.0000
  H   H582      1.0  0.43110  0.95679  0.53790  1.0000
  C   C361      1.0  0.15616  0.66781  0.49237  1.0000
  H   H583      1.0  0.15391  0.57135  0.54836  1.0000
  H   H584      1.0  0.40613  0.59920  0.52368  1.0000
  H   H585      1.0  0.42255  0.59202  0.56581  1.0000
  H   H586      1.0  0.17766  0.73990  0.54068  1.0000
  H   H587      1.0  0.19376  0.71370  0.52559  1.0000
  C   C362      1.0  0.46698  0.98117  0.50072  1.0000
  H   H588      1.0  0.11808  0.73627  0.53345  1.0000
  C   C363      1.0  0.38303  0.59669  0.53233  1.0000
  H   H589      1.0  0.18178  0.59812  0.59226  1.0000
  H   H590      1.0  0.23892  0.57066  0.58692  1.0000
  C   C364      1.0  0.47405  0.93128  0.52613  1.0000
  C   C365      1.0  0.22027  0.57039  0.57860  1.0000
  C   C366      1.0  0.18795  0.58605  0.58157  1.0000
  H   H591      1.0  0.13455  0.64280  0.53875  1.0000
  C   C367      1.0  0.15800  0.65813  0.53696  1.0000
  H   H592      1.0  0.10200  0.69511  0.53136  1.0000
  H   H593      1.0  0.16905  0.65753  0.52453  1.0000
  H   H594      1.0  0.17641  0.64473  0.54465  1.0000
  C   C368      1.0  0.22872  0.55540  0.56464  1.0000
  C   C369      1.0  0.12564  0.71011  0.53043  1.0000
  H   H595      1.0  0.38981  0.52969  0.54204  1.0000
  H   H596      1.0  0.15396  0.67959  0.56547  1.0000
  C   C370      1.0  0.48332  0.55354  0.58689  1.0000
  H   H597      1.0  0.43980  0.60574  0.54608  1.0000
  H   H598      1.0  0.17820  0.65078  0.49315  1.0000
  C   C371      1.0  0.44830  0.95662  0.52722  1.0000
  H   H599      1.0  0.43127  0.54821  0.53849  1.0000
  H   H600      1.0  0.47476  0.57879  0.58966  1.0000
  H   H601      1.0  0.18833  0.93497  0.64675  1.0000
  S   S150      1.0  0.42224  0.98869  0.64440  1.0000
  C   C372      1.0  0.49310  0.95604  0.49972  1.0000
  C   C373      1.0  0.20461  0.55605  0.55376  1.0000
  H   H602      1.0  0.34733  0.60357  0.56031  1.0000
  H   H603      1.0  0.36466  0.58086  0.52753  1.0000
  H   H604      1.0  0.23876  0.96904  0.64953  1.0000
  H   H605      1.0  0.21107  0.54478  0.54286  1.0000
  H   H606      1.0  0.45524  0.85932  0.48789  1.0000
  C   C374      1.0  0.09921  0.71146  0.49005  1.0000
  Fe  Fe78      1.0  0.37488  0.02319  0.64453  1.0000
  S   S151      1.0  0.31942  0.53135  0.59897  1.0000
  S   S152      1.0  0.26959  0.53738  0.55993  1.0000
  H   H607      1.0  0.51087  0.95651  0.48928  1.0000
  H   H608      1.0  0.07725  0.72858  0.48924  1.0000
  S   S153      1.0  0.33996  0.01335  0.48934  1.0000
  H   H609      1.0  0.48756  0.95620  0.64738  1.0000
  S   S154      1.0  0.41544  0.53881  0.59078  1.0000
  C   C375      1.0  0.46071  0.00441  0.64926  1.0000
  C   C376      1.0  0.48942  0.98240  0.64981  1.0000
  C   C377      1.0  0.51844  0.54651  0.58372  1.0000
  C   C378      1.0  0.36561  0.91294  0.65022  1.0000
  H   H610      1.0  0.39345  0.86687  0.48431  1.0000
  S   S155      1.0  0.21404  0.61734  0.79385  1.0000
  S   S156      1.0  0.24684  0.70641  0.79489  1.0000
  C   C379      1.0  0.35269  0.77602  0.81608  1.0000
  C   C380      1.0  0.22264  0.95901  0.65988  1.0000
  C   C381      1.0  0.14465  0.66732  0.77099  1.0000
  Fe  Fe79      1.0  0.20188  0.74133  0.79971  1.0000
  S   S157      1.0  0.19591  0.78438  0.78035  1.0000
  H   H611      1.0  0.21861  0.69876  0.75180  1.0000
  H   H612      1.0  0.13405  0.69161  0.77518  1.0000
  H   H613      1.0  0.37278  0.93840  0.67729  1.0000
  C   C382      1.0  0.22546  0.86621  0.79467  1.0000
  C   C383      1.0  0.34779  0.58951  0.79362  1.0000
  C   C384      1.0  0.51764  0.01375  0.70340  1.0000
  C   C385      1.0  0.25473  0.58191  0.81460  1.0000
  Fe  Fe80      1.0  0.07223  0.84321  0.71962  1.0000
  S   S158      1.0  0.06660  0.84136  0.69387  1.0000
  S   S159      1.0  0.07565  0.79493  0.73665  1.0000
  Fe  Fe81      1.0  0.09793  0.88917  0.69015  1.0000
  H   H614      1.0  0.23878  0.55732  0.77949  1.0000
  C   C386      1.0  0.43256  0.53515  0.78479  1.0000
  S   S160      1.0  0.10699  0.88809  0.71558  1.0000
  S   S161      1.0  0.13807  0.90106  0.66945  1.0000
  H   H615      1.0  0.21176  0.67721  0.77136  1.0000
  C   C387      1.0  0.34687  0.65133  0.79012  1.0000
  H   H616      1.0  0.17389  0.69920  0.73369  1.0000
  S   S162      1.0  0.05189  0.92418  0.69187  1.0000
  H   H617      1.0  0.20800  0.84884  0.79023  1.0000
  C   C388      1.0  0.18047  0.93279  0.68660  1.0000
  C   C389      1.0  0.20930  0.95145  0.68817  1.0000
  C   C390      1.0  0.17291  0.92644  0.67169  1.0000
  H   H618      1.0  0.16448  0.92275  0.69696  1.0000
  H   H619      1.0  0.21522  0.95559  0.69981  1.0000
  H   H620      1.0  0.12304  0.65275  0.76805  1.0000
  H   H621      1.0  0.15561  0.65216  0.78109  1.0000
  C   C391      1.0  0.28556  0.52881  0.80964  1.0000
  H   H622      1.0  0.34218  0.85567  0.66747  1.0000
  H   H623      1.0  0.14592  0.71986  0.74770  1.0000
  C   C392      1.0  0.16149  0.78748  0.76880  1.0000
  C   C393      1.0  0.13322  0.76667  0.77261  1.0000
  C   C394      1.0  0.10677  0.76928  0.76276  1.0000
  C   C395      1.0  0.10837  0.79295  0.74918  1.0000
  C   C396      1.0  0.13648  0.81397  0.74554  1.0000
  C   C397      1.0  0.16293  0.81122  0.75531  1.0000
  H   H624      1.0  0.13155  0.74896  0.78323  1.0000
  H   H625      1.0  0.08489  0.75319  0.76573  1.0000
  H   H626      1.0  0.13815  0.83203  0.73506  1.0000
  H   H627      1.0  0.18469  0.82746  0.75231  1.0000
  C   C398      1.0  0.24109  0.58308  0.80019  1.0000
  C   C399      1.0  0.46334  0.55009  0.77844  1.0000
  H   H628      1.0  0.25222  0.80104  0.79412  1.0000
  H   H629      1.0  0.40237  0.64338  0.80581  1.0000
  C   C400      1.0  0.24939  0.55677  0.79061  1.0000
  H   H630      1.0  0.13308  0.68147  0.74077  1.0000
  C   C401      1.0  0.26634  0.82005  0.79932  1.0000
  N   N38       1.0  0.17058  0.67377  0.75731  1.0000
  H   H631      1.0  0.50729  0.54660  0.76152  1.0000
  H   H632      1.0  0.32794  0.87520  0.68502  1.0000
  C   C402      1.0  0.39427  0.62025  0.80100  1.0000
  C   C403      1.0  0.30585  0.91308  0.66000  1.0000
  H   H633      1.0  0.35302  0.67523  0.79495  1.0000
  C   C404      1.0  0.34613  0.87762  0.67413  1.0000
  H   H634      1.0  0.19520  0.62447  0.76177  1.0000
  Fe  Fe82      1.0  0.30090  0.01777  0.65890  1.0000
  Fe  Fe83      1.0  0.02120  0.87668  0.69784  1.0000
  H   H635      1.0  0.31119  0.62264  0.81600  1.0000
  H   H636      1.0  0.18994  0.71710  0.76642  1.0000
  H   H637      1.0  0.22077  0.89245  0.78888  1.0000
  N   N39       1.0  0.26144  0.85503  0.79152  1.0000
  H   H638      1.0  0.39239  0.91180  0.65322  1.0000
  Fe  Fe84      1.0  0.21335  0.66441  0.80662  1.0000
  H   H639      1.0  0.47498  0.71116  0.80818  1.0000
  C   C405      1.0  0.23053  0.96451  0.67487  1.0000
  S   S163      1.0  0.05405  0.96879  0.72897  1.0000
  H   H640      1.0  0.21786  0.86632  0.80753  1.0000
  C   C406      1.0  0.48406  0.53470  0.76683  1.0000
  C   C407      1.0  0.19896  0.69257  0.76190  1.0000
  H   H641      1.0  0.35363  0.56576  0.80135  1.0000
  C   C408      1.0  0.27035  0.85518  0.77436  1.0000
  C   C409      1.0  0.33928  0.62132  0.81625  1.0000
  H   H642      1.0  0.20365  0.64450  0.74197  1.0000
  C   C410      1.0  0.15517  0.69440  0.74429  1.0000
  H   H643      1.0  0.02601  0.78468  0.71636  1.0000
  S   S164      1.0  0.26746  0.98593  0.67773  1.0000
  H   H644      1.0  0.28666  0.91160  0.67054  1.0000
  H   H645      1.0  0.25701  0.81836  0.81204  1.0000
  S   S165      1.0  0.47581  0.58737  0.78553  1.0000
  H   H646      1.0  0.29365  0.81174  0.79828  1.0000
  N   N40       1.0  0.35706  0.62057  0.80025  1.0000
  H   H647      1.0  0.40849  0.61951  0.78911  1.0000
  H   H648      1.0  0.30071  0.89232  0.65287  1.0000
  H   H649      1.0  0.37237  0.87500  0.67778  1.0000
  H   H650      1.0  0.32012  0.58955  0.79224  1.0000
  H   H651      1.0  0.31894  0.65220  0.78921  1.0000
  C   C411      1.0  0.18365  0.64074  0.75213  1.0000
  Fe  Fe85      1.0  0.05883  0.92006  0.71749  1.0000
  C   C412      1.0  0.28361  0.87855  0.79776  1.0000
  H   H652      1.0  0.16297  0.62585  0.74852  1.0000
  H   H653      1.0  0.32816  0.93836  0.68467  1.0000
  H   H654      1.0  0.31101  0.87093  0.79560  1.0000
  H   H655      1.0  0.26727  0.88125  0.76807  1.0000
  H   H656      1.0  0.36011  0.65188  0.77798  1.0000
  H   H657      1.0  0.29720  0.84636  0.77162  1.0000
  H   H658      1.0  0.28056  0.90532  0.79230  1.0000
  C   C413      1.0  0.49938  0.71780  0.81143  1.0000
  H   H659      1.0  0.27788  0.87857  0.81075  1.0000
  H   H660      1.0  0.36191  0.58725  0.78183  1.0000
  S   S166      1.0  0.16684  0.69879  0.80968  1.0000
  H   H661      1.0  0.25372  0.83783  0.76934  1.0000
  C   C414      1.0  0.34642  0.93893  0.67382  1.0000
  H   H662      1.0  0.34249  0.96403  0.66690  1.0000
  C   C415      1.0  0.19408  0.93971  0.65833  1.0000
  H   H663      1.0  0.38243  0.82151  0.81099  1.0000
  N   N41       1.0  0.34100  0.91063  0.66453  1.0000
  H   H664      1.0  0.41656  0.54667  0.79385  1.0000
  H   H665      1.0  0.37120  0.76049  0.80964  1.0000
  C   C416      1.0  0.27166  0.52973  0.79529  1.0000
  H   H666      1.0  0.49868  0.99326  0.70420  1.0000
  S   S167      1.0  0.02475  0.87539  0.72378  1.0000
  H   H667      1.0  0.40295  0.59740  0.80855  1.0000
  H   H668      1.0  0.30087  0.93790  0.65294  1.0000
  C   C417      1.0  0.35898  0.81061  0.81678  1.0000
  C   C418      1.0  0.52051  0.99399  0.65352  1.0000
  H   H669      1.0  0.40932  0.67442  0.85018  1.0000
  H   H670      1.0  0.25843  0.52405  0.97733  1.0000
  H   H671      1.0  0.20414  0.64776  0.86903  1.0000
  Fe  Fe86      1.0  0.42687  0.84714  0.86422  1.0000
  S   S168      1.0  0.41193  0.89955  0.85371  1.0000
  S   S169      1.0  0.41472  0.82677  0.88974  1.0000
  Fe  Fe87      1.0  0.39573  0.87295  0.83405  1.0000
  H   H672      1.0  0.03039  0.62322  0.96049  1.0000
  Fe  Fe88      1.0  0.46363  0.89816  0.83996  1.0000
  H   H673      1.0  0.46961  0.98331  0.87528  1.0000
  S   S170      1.0  0.40667  0.82119  0.84580  1.0000
  S   S171      1.0  0.47991  0.84676  0.85196  1.0000
  Fe  Fe89      1.0  0.26769  0.71247  0.92681  1.0000
  S   S172      1.0  0.25576  0.73544  0.94958  1.0000
  S   S173      1.0  0.27798  0.74391  0.90324  1.0000
  Fe  Fe90      1.0  0.24965  0.64059  0.94142  1.0000
  S   S174      1.0  0.24507  0.58578  0.93657  1.0000
  Fe  Fe91      1.0  0.21038  0.70196  0.95308  1.0000
  S   S175      1.0  0.15825  0.71684  0.96330  1.0000
  S   S176      1.0  0.21946  0.68301  0.92940  1.0000
  S   S177      1.0  0.29919  0.66838  0.93706  1.0000
  H   H674      1.0  0.22901  0.60098  0.89706  1.0000
  S   S178      1.0  0.10887  0.85927  0.93159  1.0000
  H   H675      1.0  0.47585  0.90799  0.86963  1.0000
  H   H676      1.0  0.36721  0.68689  0.87294  1.0000
  H   H677      1.0  0.22842  0.78989  0.96969  1.0000
  H   H678      1.0  0.44707  0.88847  0.90351  1.0000
  H   H679      1.0  0.15474  0.58870  0.90939  1.0000
  C   C419      1.0  0.12220  0.82097  0.94171  1.0000
  C   C420      1.0  0.15695  0.81425  0.94268  1.0000
  C   C421      1.0  0.16819  0.78198  0.94903  1.0000
  C   C422      1.0  0.14459  0.75700  0.95508  1.0000
  C   C423      1.0  0.10978  0.76421  0.95468  1.0000
  C   C424      1.0  0.09859  0.79600  0.94776  1.0000
  H   H680      1.0  0.17517  0.83370  0.93810  1.0000
  H   H681      1.0  0.19503  0.77660  0.94930  1.0000
  H   H682      1.0  0.09143  0.74497  0.95941  1.0000
  H   H683      1.0  0.07166  0.80123  0.94717  1.0000
  C   C425      1.0  0.20343  0.57050  0.93822  1.0000
  H   H684      1.0  0.21386  0.73002  0.98078  1.0000
  N   N42       1.0  0.18071  0.62246  0.89083  1.0000
  H   H685      1.0  0.28732  0.83197  0.83955  1.0000
  C   C426      1.0  0.14221  0.57893  0.94318  1.0000
  C   C427      1.0  0.17526  0.59151  0.94225  1.0000
  H   H686      1.0  0.13921  0.58873  0.89053  1.0000
  H   H687      1.0  0.13467  0.65242  0.88809  1.0000
  H   H688      1.0  0.41568  0.76629  0.87168  1.0000
  H   H689      1.0  0.17889  0.61750  0.94458  1.0000
  C   C428      1.0  0.48844  0.98498  0.84092  1.0000
  H   H690      1.0  0.44193  0.70458  0.84292  1.0000
  C   C429      1.0  0.42617  0.69352  0.85376  1.0000
  S   S179      1.0  0.31426  0.71880  0.82199  1.0000
  H   H691      1.0  0.41817  0.92459  0.90519  1.0000
  H   H692      1.0  0.17104  0.67665  0.89008  1.0000
  H   H693      1.0  0.43476  0.97907  0.84013  1.0000
  C   C430      1.0  0.15816  0.65212  0.89422  1.0000
  C   C431      1.0  0.37611  0.80469  0.89376  1.0000
  C   C432      1.0  0.35241  0.80709  0.88268  1.0000
  C   C433      1.0  0.32245  0.78831  0.88572  1.0000
  C   C434      1.0  0.31572  0.76729  0.89994  1.0000
  C   C435      1.0  0.33918  0.76508  0.91112  1.0000
  C   C436      1.0  0.36933  0.78374  0.90802  1.0000
  H   H694      1.0  0.35677  0.82389  0.87186  1.0000
  H   H695      1.0  0.30435  0.79031  0.87704  1.0000
  H   H696      1.0  0.33415  0.74898  0.92215  1.0000
  H   H697      1.0  0.38747  0.78184  0.91668  1.0000
  H   H698      1.0  0.46471  0.96068  0.91071  1.0000
  S   S180      1.0  0.46538  0.77417  0.82142  1.0000
  H   H699      1.0  0.05211  0.54781  0.96819  1.0000
  H   H700      1.0  0.24799  0.60160  0.82221  1.0000
  S   S181      1.0  0.05050  0.82658  0.86778  1.0000
  C   C437      1.0  0.12544  0.73730  0.85948  1.0000
  C   C438      1.0  0.12232  0.76433  0.84762  1.0000
  C   C439      1.0  0.09900  0.79147  0.85022  1.0000
  C   C440      1.0  0.07897  0.79188  0.86471  1.0000
  C   C441      1.0  0.08210  0.76479  0.87654  1.0000
  C   C442      1.0  0.10519  0.73753  0.87391  1.0000
  H   H701      1.0  0.20527  0.62299  0.91191  1.0000
  H   H702      1.0  0.09655  0.81225  0.84099  1.0000
  H   H703      1.0  0.06622  0.76449  0.88760  1.0000
  H   H704      1.0  0.10715  0.71651  0.88305  1.0000
  Fe  Fe92      1.0  0.28297  0.68896  0.96026  1.0000
  H   H705      1.0  0.12047  0.59540  0.94611  1.0000
  C   C443      1.0  0.19034  0.62393  0.87365  1.0000
  S   S182      1.0  0.23639  0.65709  0.96543  1.0000
  N   N43       1.0  0.17540  0.78646  0.89669  1.0000
  C   C444      1.0  0.19226  0.75565  0.89072  1.0000
  C   C445      1.0  0.16521  0.81027  0.88333  1.0000
  C   C446      1.0  0.19931  0.80347  0.90522  1.0000
  C   C447      1.0  0.14483  0.77653  0.90751  1.0000
  H   H706      1.0  0.21586  0.76222  0.88279  1.0000
  H   H707      1.0  0.17528  0.74254  0.88391  1.0000
  H   H708      1.0  0.19999  0.73707  0.90054  1.0000
  H   H709      1.0  0.18764  0.81858  0.87499  1.0000
  H   H710      1.0  0.14737  0.79815  0.87657  1.0000
  H   H711      1.0  0.15196  0.83360  0.88747  1.0000
  H   H712      1.0  0.20722  0.78632  0.91549  1.0000
  H   H713      1.0  0.18756  0.82713  0.90969  1.0000
  H   H714      1.0  0.22302  0.81071  0.89751  1.0000
  H   H715      1.0  0.13089  0.79938  0.91176  1.0000
  H   H716      1.0  0.15151  0.75959  0.91808  1.0000
  H   H717      1.0  0.12661  0.76280  0.90164  1.0000
  C   C448      1.0  0.16263  0.59045  0.89649  1.0000
  H   H718      1.0  0.17902  0.56748  0.89435  1.0000
  H   H719      1.0  0.49373  0.92456  0.90958  1.0000
  H   H720      1.0  0.36769  0.75879  0.85584  1.0000
  Fe  Fe93      1.0  0.45819  0.82427  0.83234  1.0000
  Fe  Fe94      1.0  0.05863  0.85200  0.92270  1.0000
  H   H721      1.0  0.44386  0.67972  0.86168  1.0000
  S   S183      1.0  0.34355  0.87410  0.82605  1.0000
  H   H722      1.0  0.32865  0.75212  0.96030  1.0000
  S   S184      1.0  0.21705  0.75191  0.82317  1.0000
  S   S185      1.0  0.22922  0.66820  0.83060  1.0000
  Fe  Fe95      1.0  0.18571  0.70640  0.83289  1.0000
  S   S186      1.0  0.04693  0.80154  0.91496  1.0000
  H   H723      1.0  0.50323  0.96416  0.89753  1.0000
  C   C449      1.0  0.45448  0.99657  0.84143  1.0000
  H   H724      1.0  0.04195  0.91217  0.86774  1.0000
  C   C450      1.0  0.13725  0.54505  0.94052  1.0000
  C   C451      1.0  0.02906  0.55850  0.97475  1.0000
  H   H725      1.0  0.18517  0.52764  0.96874  1.0000
  C   C452      1.0  0.43683  0.91194  0.89692  1.0000
  H   H726      1.0  0.22632  0.64699  0.89487  1.0000
  H   H727      1.0  0.20710  0.60179  0.87060  1.0000
  H   H728      1.0  0.26494  0.78641  0.98052  1.0000
  H   H729      1.0  0.28729  0.55406  0.83049  1.0000
  H   H730      1.0  0.39806  0.75011  0.83952  1.0000
  C   C453      1.0  0.33518  0.83099  0.82502  1.0000
  C   C454      1.0  0.33960  0.78993  0.97527  1.0000
  C   C455      1.0  0.29903  0.78184  0.83212  1.0000
  H   H731      1.0  0.43600  0.95754  0.87112  1.0000
  H   H732      1.0  0.34573  0.80942  0.96552  1.0000
  C   C456      1.0  0.30532  0.81651  0.83281  1.0000
  H   H733      1.0  0.27619  0.77063  0.83835  1.0000
  C   C457      1.0  0.32991  0.75754  0.97229  1.0000
  N   N44       1.0  0.40620  0.72058  0.86150  1.0000
  H   H734      1.0  0.40186  0.69182  0.88443  1.0000
  Fe  Fe96      1.0  0.25906  0.71310  0.81909  1.0000
  C   C458      1.0  0.44954  0.96527  0.88082  1.0000
  H   H735      1.0  0.37046  0.72550  0.88188  1.0000
  C   C459      1.0  0.21170  0.62343  0.89898  1.0000
  C   C460      1.0  0.48229  0.94664  0.90250  1.0000
  C   C461      1.0  0.38336  0.73819  0.85046  1.0000
  H   H736      1.0  0.16749  0.62393  0.86710  1.0000
  H   H737      1.0  0.15024  0.65181  0.90708  1.0000
  C   C462      1.0  0.19842  0.53682  0.93529  1.0000
  C   C463      1.0  0.38557  0.70542  0.87581  1.0000
  S   S187      1.0  0.15500  0.70340  0.85673  1.0000
  H   H738      1.0  0.36539  0.72025  0.84679  1.0000
  C   C464      1.0  0.42975  0.74530  0.86592  1.0000
  H   H739      1.0  0.44718  0.73291  0.87433  1.0000
  H   H740      1.0  0.13771  0.76427  0.83643  1.0000
  H   H741      1.0  0.43097  0.97975  0.88840  1.0000
  S   S188      1.0  0.31224  0.69087  0.98126  1.0000
  S   S189      1.0  0.04853  0.88302  0.90019  1.0000
  H   H742      1.0  0.04512  0.59400  0.94641  1.0000
  Fe  Fe97      1.0  0.03271  0.83342  0.89315  1.0000
  S   S190      1.0  0.50043  0.94177  0.83867  1.0000
  H   H743      1.0  0.44588  0.75719  0.85542  1.0000
  C   C465      1.0  0.48864  0.91695  0.87925  1.0000
  N   N45       1.0  0.46431  0.93520  0.88988  1.0000
  H   H744      1.0  0.42245  0.90316  0.88773  1.0000
  H   H745      1.0  0.02228  0.90088  0.84264  1.0000
  H   H746      1.0  0.03774  0.57698  0.98227  1.0000
  S   S191      1.0  0.09570  0.53014  0.94123  1.0000
  C   C466      1.0  0.23730  0.79329  0.98124  1.0000
  C   C467      1.0  0.51374  0.00818  0.84248  1.0000
  C   C468      1.0  0.02216  0.60337  0.95356  1.0000
  S   S192      1.0  0.44605  0.87542  0.81922  1.0000
  C   C469      1.0  0.27685  0.55486  0.81931  1.0000
  C   C470      1.0  0.32252  0.76170  0.82358  1.0000
  H   H747      1.0  0.03745  0.95760  0.86260  1.0000
  H   H748      1.0  0.23467  0.82101  0.98275  1.0000
  H   H749      1.0  0.17129  0.77664  0.98332  1.0000
  H   H750      1.0  0.02870  0.96312  0.90834  1.0000
  H   H751      1.0  0.04938  0.02260  0.90464  1.0000
  H   H752      1.0  0.50949  0.93381  0.87350  1.0000
  C   C471      1.0  0.02281  0.01808  0.90384  1.0000
  C   C472      1.0  0.02364  0.93437  0.86805  1.0000
  H   H753      1.0  0.50037  0.89404  0.88561  1.0000
  H   H754      1.0  0.34550  0.59799  0.82414  1.0000
  C   C473      1.0  0.16543  0.52393  0.93668  1.0000
  H   H755      1.0  0.34619  0.64414  0.82170  1.0000
  C   C474      1.0  0.50232  0.74814  0.81829  1.0000
  N   N46       1.0  0.69246  0.15258  0.02861  1.0000
  C   C475      1.0  0.60226  0.05267  0.11220  1.0000
  S   S193      1.0  0.54640  0.17358  0.05747  1.0000
  S   S194      1.0  0.54389  0.15931  0.01235  1.0000
  H   H756      1.0  0.73047  0.15971  0.00869  1.0000
  H   H757      1.0  0.70211  0.12514  0.00824  1.0000
  H   H758      1.0  0.57925  0.20687  0.02772  1.0000
  Fe  Fe98      1.0  0.57532  0.12713  0.06750  1.0000
  S   S195      1.0  0.62480  0.12837  0.07855  1.0000
  S   S196      1.0  0.57036  0.09680  0.04741  1.0000
  C   C476      1.0  0.70372  0.15140  0.01169  1.0000
  H   H759      1.0  0.66637  0.50540  0.12009  1.0000
  H   H760      1.0  0.71287  0.10240  0.03573  1.0000
  H   H761      1.0  0.64683  0.14381  0.04444  1.0000
  H   H762      1.0  0.74157  0.13663  0.03590  1.0000
  H   H763      1.0  0.65417  0.11463  0.02972  1.0000
  S   S197      1.0  0.90483  0.02675  0.08097  1.0000
  C   C477      1.0  0.71438  0.12943  0.03821  1.0000
  H   H764      1.0  0.70670  0.13009  0.05104  1.0000
  H   H765      1.0  0.63978  0.15757  0.02444  1.0000
  H   H766      1.0  0.67969  0.20626  0.02515  1.0000
  C   C478      1.0  0.65678  0.14166  0.03196  1.0000
  H   H767      1.0  0.68544  0.19008  0.04513  1.0000
  H   H768      1.0  0.72163  0.19669  0.03058  1.0000
  C   C479      1.0  0.69491  0.18792  0.03258  1.0000
  C   C480      1.0  0.63730  0.22383  0.99568  1.0000
  H   H769      1.0  0.63021  0.24138  0.01870  1.0000
  C   C481      1.0  0.93392  0.51595  0.00751  1.0000
  H   H770      1.0  0.96608  0.06409  0.07961  1.0000
  C   C482      1.0  0.65702  0.09710  0.07501  1.0000
  C   C483      1.0  0.68501  0.09410  0.08390  1.0000
  C   C484      1.0  0.71101  0.06932  0.08122  1.0000
  H   H771      1.0  0.73292  0.50715  0.09746  1.0000
  H   H772      1.0  0.65227  0.02792  0.09262  1.0000
  C   C485      1.0  0.65530  0.07529  0.06339  1.0000
  H   H773      1.0  0.68660  0.11095  0.09290  1.0000
  H   H774      1.0  0.73256  0.06715  0.08808  1.0000
  C   C486      1.0  0.88123  0.03564  0.14795  1.0000
  H   H775      1.0  0.63408  0.07721  0.05646  1.0000
  S   S198      1.0  0.67583  0.24498  0.99041  1.0000
  H   H776      1.0  0.77017  0.47680  0.12559  1.0000
  H   H777      1.0  0.68769  0.16875  0.00414  1.0000
  C   C487      1.0  0.57962  0.18439  0.00601  1.0000
  C   C488      1.0  0.59192  0.20556  0.01601  1.0000
  C   C489      1.0  0.62071  0.22518  0.01086  1.0000
  C   C490      1.0  0.72423  0.48266  0.10428  1.0000
  H   H778      1.0  0.68342  0.44420  0.12578  1.0000
  H   H779      1.0  0.89853  0.08609  0.12501  1.0000
  H   H780      1.0  0.94738  0.02487  0.11996  1.0000
  H   H781      1.0  0.94571  0.05019  0.13610  1.0000
  C   C491      1.0  0.99440  0.47621  0.00722  1.0000
  C   C492      1.0  0.68143  0.05102  0.06053  1.0000
  H   H782      1.0  0.61631  0.07300  0.10428  1.0000
  C   C493      1.0  0.59571  0.18363  0.99068  1.0000
  Fe  Fe99      1.0  0.53799  0.14119  0.03837  1.0000
  H   H783      1.0  0.72702  0.43291  0.12880  1.0000
  C   C494      1.0  0.97121  0.03839  0.08490  1.0000
  H   H784      1.0  0.90149  0.06046  0.10892  1.0000
  H   H785      1.0  0.99809  0.49182  0.03018  1.0000
  H   H786      1.0  0.55780  0.03461  0.09280  1.0000
  H   H787      1.0  0.56278  0.24981  0.98961  1.0000
  C   C495      1.0  0.95303  0.51340  0.02039  1.0000
  C   C496      1.0  0.98321  0.49352  0.02025  1.0000
  C   C497      1.0  0.70683  0.45321  0.12998  1.0000
  C   C498      1.0  0.70930  0.04785  0.06943  1.0000
  C   C499      1.0  0.94470  0.49802  0.99464  1.0000
  C   C500      1.0  0.74946  0.49652  0.12698  1.0000
  H   H788      1.0  0.01720  0.49293  0.10915  1.0000
  N   N47       1.0  0.71782  0.48625  0.12129  1.0000
  C   C501      1.0  0.88929  0.06240  0.12111  1.0000
  S   S199      1.0  0.92398  0.50494  0.14811  1.0000
  H   H789      1.0  0.74440  0.46282  0.10196  1.0000
  H   H790      1.0  0.70085  0.47518  0.09951  1.0000
  H   H791      1.0  0.74554  0.50004  0.13969  1.0000
  S   S200      1.0  0.52921  0.10537  0.08219  1.0000
  H   H792      1.0  0.57592  0.06289  0.11498  1.0000
  C   C502      1.0  0.97489  0.47815  0.99450  1.0000
  H   H793      1.0  0.59717  0.04777  0.08191  1.0000
  H   H794      1.0  0.61467  0.04889  0.12332  1.0000
  Fe  Fe100     1.0  0.52243  0.07766  0.06143  1.0000
  H   H795      1.0  0.86138  0.06567  0.12036  1.0000
  H   H796      1.0  0.68001  0.03448  0.05139  1.0000
  S   S201      1.0  0.83212  0.50889  0.13624  1.0000
  H   H797      1.0  0.70095  0.45529  0.14279  1.0000
  N   N48       1.0  0.89727  0.03179  0.13187  1.0000
  C   C503      1.0  0.00358  0.02973  0.08982  1.0000
  H   H798      1.0  0.85299  0.03830  0.14822  1.0000
  C   C504      1.0  0.93460  0.02768  0.13197  1.0000
  H   H799      1.0  0.55081  0.29427  0.98854  1.0000
  H   H800      1.0  0.75888  0.52107  0.12053  1.0000
  C   C505      1.0  0.58503  0.02688  0.09022  1.0000
  C   C506      1.0  0.62452  0.20338  0.98549  1.0000
  H   H801      1.0  0.68609  0.51664  0.13657  1.0000
  C   C507      1.0  0.69089  0.51269  0.12389  1.0000
  H   H802      1.0  0.87241  0.40935  0.98544  1.0000
  H   H803      1.0  0.89914  0.44494  0.98617  1.0000
  H   H804      1.0  0.92956  0.49908  0.98492  1.0000
  H   H805      1.0  0.98284  0.46388  0.98472  1.0000
  H   H806      1.0  0.75135  0.05956  0.26692  1.0000
  H   H807      1.0  0.53286  0.35038  0.28815  1.0000
  C   C508      1.0  0.76268  0.29031  0.28977  1.0000
  H   H808      1.0  0.52234  0.30656  0.28728  1.0000
  H   H809      1.0  0.80195  0.32622  0.30514  1.0000
  S   S202      1.0  0.73545  0.20741  0.28801  1.0000
  S   S203      1.0  0.71777  0.11555  0.28121  1.0000
  H   H810      1.0  0.75816  0.33824  0.30988  1.0000
  C   C509      1.0  0.66735  0.49332  0.16986  1.0000
  Fe  Fe101     1.0  0.68622  0.23647  0.29274  1.0000
  S   S204      1.0  0.67605  0.28731  0.27864  1.0000
  S   S205      1.0  0.65485  0.18917  0.29835  1.0000
  S   S206      1.0  0.76728  0.46383  0.16826  1.0000
  C   C510      1.0  0.56090  0.36238  0.25829  1.0000
  Fe  Fe102     1.0  0.57909  0.41596  0.18913  1.0000
  S   S207      1.0  0.58843  0.39725  0.21399  1.0000
  S   S208      1.0  0.60614  0.46130  0.17514  1.0000
  Fe  Fe103     1.0  0.57462  0.34583  0.20792  1.0000
  S   S209      1.0  0.59991  0.29589  0.21684  1.0000
  C   C511      1.0  0.98902  0.49273  0.15604  1.0000
  H   H811      1.0  0.54513  0.49951  0.19772  1.0000
  S   S210      1.0  0.56946  0.36379  0.18226  1.0000
  Fe  Fe104     1.0  0.79695  0.51093  0.15845  1.0000
  N   N49       1.0  0.77082  0.32683  0.28603  1.0000
  C   C512      1.0  0.65618  0.28887  0.26113  1.0000
  C   C513      1.0  0.64995  0.32081  0.25276  1.0000
  C   C514      1.0  0.63328  0.32321  0.23901  1.0000
  C   C515      1.0  0.62286  0.29364  0.23348  1.0000
  C   C516      1.0  0.62968  0.26161  0.24169  1.0000
  C   C517      1.0  0.64613  0.25921  0.25553  1.0000
  H   H812      1.0  0.65796  0.34384  0.25694  1.0000
  H   H813      1.0  0.62873  0.34792  0.23265  1.0000
  H   H814      1.0  0.62180  0.23860  0.23744  1.0000
  H   H815      1.0  0.65097  0.23443  0.26185  1.0000
  C   C518      1.0  0.53969  0.32736  0.28195  1.0000
  C   C519      1.0  0.70309  0.49451  0.16855  1.0000
  H   H816      1.0  0.84529  0.10718  0.28724  1.0000
  H   H817      1.0  0.83093  0.04587  0.27028  1.0000
  C   C520      1.0  0.73518  0.06889  0.30586  1.0000
  H   H818      1.0  0.78458  0.27479  0.29414  1.0000
  H   H819      1.0  0.65249  0.51642  0.16711  1.0000
  C   C521      1.0  0.73588  0.07695  0.28955  1.0000
  Fe  Fe105     1.0  0.74052  0.20847  0.31361  1.0000
  H   H820      1.0  0.81643  0.07362  0.29466  1.0000
  N   N50       1.0  0.53741  0.33476  0.26483  1.0000
  C   C522      1.0  0.72246  0.46454  0.17177  1.0000
  C   C523      1.0  0.70581  0.43376  0.17689  1.0000
  C   C524      1.0  0.67007  0.43269  0.17847  1.0000
  C   C525      1.0  0.65077  0.46238  0.17472  1.0000
  H   H821      1.0  0.78631  0.36792  0.29802  1.0000
  H   H822      1.0  0.65751  0.40872  0.18223  1.0000
  H   H823      1.0  0.85998  0.07926  0.26277  1.0000
  H   H824      1.0  0.79400  0.32016  0.26275  1.0000
  H   H825      1.0  0.58750  0.35564  0.26074  1.0000
  H   H826      1.0  0.74575  0.37369  0.27745  1.0000
  S   S211      1.0  0.52367  0.42711  0.19543  1.0000
  C   C526      1.0  0.79994  0.33041  0.27369  1.0000
  H   H827      1.0  0.80675  0.35769  0.27052  1.0000
  Fe  Fe106     1.0  0.70528  0.16008  0.29568  1.0000
  H   H828      1.0  0.71561  0.51846  0.16486  1.0000
  H   H829      1.0  0.82290  0.31616  0.27767  1.0000
  C   C527      1.0  0.77972  0.34045  0.30037  1.0000
  H   H830      1.0  0.56602  0.31892  0.28443  1.0000
  H   H831      1.0  0.74082  0.28675  0.29902  1.0000
  H   H832      1.0  0.73343  0.33616  0.26949  1.0000
  H   H833      1.0  0.75540  0.27934  0.27925  1.0000
  N   N51       1.0  0.86666  0.05625  0.28621  1.0000
  C   C528      1.0  0.90229  0.06711  0.28541  1.0000
  H   H834      1.0  0.54253  0.50507  0.17692  1.0000
  H   H835      1.0  0.72062  0.41049  0.17943  1.0000
  H   H836      1.0  0.54706  0.30847  0.24406  1.0000
  H   H837      1.0  0.55353  0.38683  0.26327  1.0000
  Fe  Fe107     1.0  0.53218  0.40434  0.21965  1.0000
  C   C529      1.0  0.75076  0.05344  0.27954  1.0000
  H   H838      1.0  0.99852  0.23816  0.30916  1.0000
  H   H839      1.0  0.90587  0.09289  0.27875  1.0000
  C   C530      1.0  0.85763  0.05410  0.27010  1.0000
  H   H840      1.0  0.87450  0.03526  0.26400  1.0000
  C   C531      1.0  0.74085  0.34592  0.28030  1.0000
  H   H841      1.0  0.71820  0.34310  0.28923  1.0000
  H   H842      1.0  0.72341  0.08658  0.31367  1.0000
  C   C532      1.0  0.74876  0.03732  0.31209  1.0000
  C   C533      1.0  0.54695  0.30358  0.25710  1.0000
  C   C534      1.0  0.84352  0.08122  0.29389  1.0000
  H   H843      1.0  0.84946  0.08334  0.30610  1.0000
  H   H844      1.0  0.56083  0.36759  0.24530  1.0000
  H   H845      1.0  0.57291  0.29394  0.25950  1.0000
  H   H846      1.0  0.98403  0.46618  0.15519  1.0000
  H   H847      1.0  0.92020  0.04899  0.27942  1.0000
  H   H848      1.0  0.91037  0.06809  0.29737  1.0000
  H   H849      1.0  0.89052  0.05856  0.15250  1.0000
  H   H850      1.0  0.52908  0.28252  0.26128  1.0000
  C   C535      1.0  0.53980  0.51874  0.18767  1.0000
  C   C536      1.0  0.96335  0.51775  0.15337  1.0000
  H   H851      1.0  0.00563  0.38828  0.30538  1.0000
  Fe  Fe108     1.0  0.94266  0.38798  0.35885  1.0000
  S   S212      1.0  0.96742  0.33912  0.36912  1.0000
  H   H852      1.0  0.90849  0.35984  0.47822  1.0000
  Fe  Fe109     1.0  0.87698  0.35097  0.35563  1.0000
  S   S213      1.0  0.89722  0.30000  0.36530  1.0000
  S   S214      1.0  0.82336  0.35291  0.34882  1.0000
  Fe  Fe110     1.0  0.91666  0.32954  0.38317  1.0000
  S   S215      1.0  0.90632  0.31321  0.40925  1.0000
  Fe  Fe111     1.0  0.94581  0.31418  0.35021  1.0000
  S   S216      1.0  0.89340  0.38016  0.37446  1.0000
  S   S217      1.0  0.92370  0.36340  0.33919  1.0000
  S   S218      1.0  0.63204  0.18268  0.34597  1.0000
  C   C537      1.0  0.00073  0.12333  0.33745  1.0000
  S   S219      1.0  0.55226  0.36215  0.39976  1.0000
  Fe  Fe112     1.0  0.57006  0.32894  0.42034  1.0000
  H   H853      1.0  0.54782  0.06304  0.46682  1.0000
  S   S220      1.0  0.62147  0.33249  0.42880  1.0000
  Fe  Fe113     1.0  0.80467  0.16025  0.43949  1.0000
  S   S221      1.0  0.77316  0.20859  0.43955  1.0000
  S   S222      1.0  0.85457  0.16181  0.42416  1.0000
  Fe  Fe114     1.0  0.74950  0.11764  0.45945  1.0000
  H   H854      1.0  0.61661  0.22176  0.47344  1.0000
  Fe  Fe115     1.0  0.73086  0.17581  0.43542  1.0000
  S   S223      1.0  0.69744  0.19354  0.41649  1.0000
  S   S224      1.0  0.76317  0.12836  0.43335  1.0000
  S   S225      1.0  0.79447  0.14530  0.46558  1.0000
  C   C538      1.0  0.64615  0.29650  0.42416  1.0000
  C   C539      1.0  0.67010  0.28262  0.43412  1.0000
  C   C540      1.0  0.68643  0.25115  0.43166  1.0000
  C   C541      1.0  0.67888  0.23373  0.41919  1.0000
  C   C542      1.0  0.65602  0.24835  0.40886  1.0000
  C   C543      1.0  0.63986  0.27981  0.41129  1.0000
  H   H855      1.0  0.67500  0.29551  0.44410  1.0000
  H   H856      1.0  0.70399  0.23996  0.43973  1.0000
  H   H857      1.0  0.65008  0.23512  0.39916  1.0000
  H   H858      1.0  0.62234  0.29109  0.40322  1.0000
  C   C544      1.0  0.60727  0.21793  0.35206  1.0000
  C   C545      1.0  0.59313  0.21700  0.36780  1.0000
  C   C546      1.0  0.57257  0.24438  0.37288  1.0000
  C   C547      1.0  0.56552  0.27260  0.36218  1.0000
  C   C548      1.0  0.57979  0.27357  0.34645  1.0000
  C   C549      1.0  0.60094  0.24650  0.34144  1.0000
  H   H859      1.0  0.59779  0.19490  0.37605  1.0000
  H   H860      1.0  0.56133  0.24311  0.38495  1.0000
  H   H861      1.0  0.57440  0.29527  0.33810  1.0000
  C   C550      1.0  0.79966  0.25478  0.32879  1.0000
  H   H862      1.0  0.86688  0.29994  0.33619  1.0000
  C   C551      1.0  0.91311  0.37605  0.46675  1.0000
  H   H863      1.0  0.58239  0.05353  0.45239  1.0000
  S   S226      1.0  0.52282  0.33766  0.43636  1.0000
  C   C552      1.0  0.86716  0.35022  0.45629  1.0000
  C   C553      1.0  0.96862  0.47669  0.35504  1.0000
  C   C554      1.0  0.93547  0.48845  0.35936  1.0000
  H   H864      1.0  0.91798  0.31257  0.44274  1.0000
  S   S227      1.0  0.97851  0.43286  0.35292  1.0000
  H   H865      1.0  0.91496  0.47053  0.36167  1.0000
  C   C555      1.0  0.57346  0.26000  0.45620  1.0000
  C   C556      1.0  0.87073  0.20325  0.42053  1.0000
  C   C557      1.0  0.89171  0.21270  0.40661  1.0000
  C   C558      1.0  0.90318  0.24634  0.40317  1.0000
  C   C559      1.0  0.89411  0.27045  0.41375  1.0000
  C   C560      1.0  0.87406  0.26068  0.42791  1.0000
  C   C561      1.0  0.86208  0.22725  0.43120  1.0000
  H   H866      1.0  0.89863  0.19414  0.39838  1.0000
  H   H867      1.0  0.91922  0.25351  0.39237  1.0000
  H   H868      1.0  0.86713  0.27905  0.43621  1.0000
  H   H869      1.0  0.84648  0.21990  0.44210  1.0000
  S   S228      1.0  0.75356  0.22951  0.48299  1.0000
  S   S229      1.0  0.71332  0.16282  0.46100  1.0000
  H   H870      1.0  0.99729  0.05989  0.36787  1.0000
  C   C562      1.0  0.92417  0.32631  0.45268  1.0000
  N   N52       1.0  0.99773  0.10929  0.35422  1.0000
  C   C563      1.0  0.69176  0.19471  0.37626  1.0000
  Fe  Fe116     1.0  0.66653  0.19177  0.32329  1.0000
  H   H871      1.0  0.58219  0.18381  0.44093  1.0000
  C   C564      1.0  0.70182  0.04454  0.46555  1.0000
  H   H872      1.0  0.89805  0.40029  0.46786  1.0000
  H   H873      1.0  0.99816  0.15173  0.33606  1.0000
  H   H874      1.0  0.75176  0.18526  0.38809  1.0000
  H   H875      1.0  0.69769  0.07970  0.44470  1.0000
  H   H876      1.0  0.95190  0.33133  0.45081  1.0000
  H   H877      1.0  0.72552  0.20145  0.34749  1.0000
  H   H878      1.0  0.61938  0.18572  0.46217  1.0000
  H   H879      1.0  0.97798  0.06150  0.34975  1.0000
  C   C565      1.0  0.02049  0.24321  0.34598  1.0000
  H   H880      1.0  0.67561  0.20391  0.36674  1.0000
  H   H881      1.0  0.94052  0.38256  0.46515  1.0000
  S   S230      1.0  0.97164  0.28362  0.33116  1.0000
  Fe  Fe117     1.0  0.53136  0.31342  0.39385  1.0000
  C   C566      1.0  0.99493  0.50043  0.35204  1.0000
  H   H882      1.0  0.85086  0.37373  0.45712  1.0000
  H   H883      1.0  0.74760  0.03103  0.32473  1.0000
  H   H884      1.0  0.69123  0.14912  0.35540  1.0000
  H   H885      1.0  0.98105  0.11312  0.33101  1.0000
  H   H886      1.0  0.72750  0.14752  0.39345  1.0000
  H   H887      1.0  0.55705  0.17677  0.46897  1.0000
  H   H888      1.0  0.75993  0.32425  0.34370  1.0000
  H   H889      1.0  0.74702  0.27062  0.33302  1.0000
  H   H890      1.0  0.96342  0.14954  0.36148  1.0000
  S   S231      1.0  0.55293  0.27958  0.41340  1.0000
  C   C567      1.0  0.52877  0.08037  0.43779  1.0000
  C   C568      1.0  0.55347  0.20504  0.46826  1.0000
  C   C569      1.0  0.55667  0.04548  0.45786  1.0000
  C   C570      1.0  0.83337  0.26311  0.32987  1.0000
  C   C571      1.0  0.78045  0.30725  0.33978  1.0000
  H   H891      1.0  0.59605  0.22510  0.43203  1.0000
  C   C572      1.0  0.57718  0.21177  0.44104  1.0000
  H   H892      1.0  0.91940  0.30849  0.46367  1.0000
  C   C573      1.0  0.81429  0.31548  0.34086  1.0000
  H   H893      1.0  0.57098  0.02932  0.42838  1.0000
  S   S232      1.0  0.73572  0.06534  0.47203  1.0000
  H   H894      1.0  0.57521  0.26931  0.46782  1.0000
  H   H895      1.0  0.70054  0.21762  0.38100  1.0000
  H   H896      1.0  0.86136  0.33318  0.46746  1.0000
  H   H897      1.0  0.75187  0.21588  0.36098  1.0000
  H   H898      1.0  0.85927  0.33682  0.44658  1.0000
  H   H899      1.0  0.93770  0.38699  0.43610  1.0000
  H   H900      1.0  0.01424  0.25734  0.35604  1.0000
  N   N53       1.0  0.72075  0.17309  0.37048  1.0000
  N   N54       1.0  0.57949  0.22261  0.45680  1.0000
  C   C574      1.0  0.70777  0.14224  0.36502  1.0000
  H   H901      1.0  0.67503  0.18039  0.38587  1.0000
  H   H902      1.0  0.69211  0.12693  0.37468  1.0000
  H   H903      1.0  0.52731  0.21140  0.46491  1.0000
  C   C575      1.0  0.84068  0.29347  0.33577  1.0000
  N   N55       1.0  0.90369  0.35837  0.45360  1.0000
  H   H904      1.0  0.61163  0.24736  0.32927  1.0000
  H   H905      1.0  0.89548  0.40540  0.43895  1.0000
  H   H906      1.0  0.76287  0.17704  0.35227  1.0000
  C   C576      1.0  0.74217  0.16268  0.38337  1.0000
  H   H907      1.0  0.53538  0.44060  0.40327  1.0000
  H   H908      1.0  0.55438  0.21277  0.48027  1.0000
  H   H909      1.0  0.72887  0.12544  0.36039  1.0000
  H   H910      1.0  0.90311  0.36841  0.42849  1.0000
  H   H911      1.0  0.55139  0.21764  0.43716  1.0000
  H   H912      1.0  0.96179  0.11085  0.37481  1.0000
  H   H913      1.0  0.81778  0.32490  0.38313  1.0000
  H   H914      1.0  0.76456  0.14671  0.37937  1.0000
  N   N56       1.0  0.79067  0.28520  0.39824  1.0000
  C   C577      1.0  0.80068  0.29672  0.41284  1.0000
  C   C578      1.0  0.79173  0.31435  0.38575  1.0000
  C   C579      1.0  0.75577  0.27194  0.40119  1.0000
  C   C580      1.0  0.81463  0.25788  0.39316  1.0000
  H   H915      1.0  0.80089  0.27521  0.42243  1.0000
  H   H916      1.0  0.78283  0.31693  0.41718  1.0000
  H   H917      1.0  0.82671  0.30741  0.41090  1.0000
  H   H918      1.0  0.78441  0.30668  0.37452  1.0000
  H   H919      1.0  0.77412  0.33562  0.38912  1.0000
  H   H920      1.0  0.74713  0.26358  0.39036  1.0000
  H   H921      1.0  0.73706  0.29168  0.40535  1.0000
  H   H922      1.0  0.75418  0.24954  0.41037  1.0000
  H   H923      1.0  0.80810  0.24871  0.38210  1.0000
  H   H924      1.0  0.81475  0.23548  0.40235  1.0000
  H   H925      1.0  0.84115  0.26717  0.39085  1.0000
  Fe  Fe118     1.0  0.75921  0.19142  0.46511  1.0000
  H   H926      1.0  0.54779  0.26762  0.45261  1.0000
  H   H927      1.0  0.82390  0.22086  0.47035  1.0000
  H   H928      1.0  0.85401  0.24615  0.32603  1.0000
  C   C581      1.0  0.77312  0.27694  0.33370  1.0000
  H   H929      1.0  0.63386  0.22661  0.45320  1.0000
  C   C582      1.0  0.74118  0.19270  0.35727  1.0000
  C   C583      1.0  0.91027  0.38083  0.43865  1.0000
  H   H930      1.0  0.98985  0.39575  0.32510  1.0000
  H   H931      1.0  0.98793  0.35381  0.31889  1.0000
  H   H932      1.0  0.87665  0.24778  0.47566  1.0000
  H   H933      1.0  0.01848  0.33030  0.34159  1.0000
  C   C584      1.0  0.00316  0.25073  0.33260  1.0000
  H   H934      1.0  0.59238  0.27408  0.44756  1.0000
  H   H935      1.0  0.55371  0.49959  0.39360  1.0000
  H   H936      1.0  0.94308  0.11270  0.35654  1.0000
  H   H937      1.0  0.55352  0.08991  0.43179  1.0000
  S   S233      1.0  0.71429  0.15897  0.32100  1.0000
  C   C585      1.0  0.52800  0.49543  0.39904  1.0000
  C   C586      1.0  0.82265  0.23951  0.47873  1.0000
  S   S234      1.0  0.53790  0.30629  0.36796  1.0000
  C   C587      1.0  0.96504  0.12108  0.36213  1.0000
  C   C588      1.0  0.99907  0.07151  0.35540  1.0000
  C   C589      1.0  0.68814  0.05661  0.45155  1.0000
  C   C590      1.0  0.61377  0.21373  0.46165  1.0000
  N   N57       1.0  0.53249  0.04543  0.44588  1.0000
  C   C591      1.0  0.66252  0.03834  0.44622  1.0000
  C   C592      1.0  0.01169  0.23235  0.31959  1.0000
  S   S235      1.0  0.79189  0.21630  0.32140  1.0000
  C   C593      1.0  0.85247  0.25472  0.48180  1.0000
  H   H938      1.0  0.65239  0.04756  0.43527  1.0000
  S   S236      1.0  0.69383  0.24109  0.31798  1.0000
  C   C594      1.0  0.00383  0.37688  0.31787  1.0000
  S   S237      1.0  0.00451  0.04258  0.31772  1.0000
  C   C595      1.0  0.92877  0.52360  0.36056  1.0000
  H   H939      1.0  0.58664  0.52374  0.42949  1.0000
  H   H940      1.0  0.80138  0.02390  0.47942  1.0000
  H   H941      1.0  0.57252  0.05908  0.61057  1.0000
  H   H942      1.0  0.96859  0.24306  0.54657  1.0000
  H   H943      1.0  0.94417  0.27974  0.51656  1.0000
  C   C596      1.0  0.93882  0.49527  0.55422  1.0000
  C   C597      1.0  0.67716  0.41076  0.55855  1.0000
  H   H944      1.0  0.94313  0.49302  0.56688  1.0000
  H   H945      1.0  0.61118  0.39809  0.56762  1.0000
  S   S238      1.0  0.88895  0.29726  0.49622  1.0000
  H   H946      1.0  0.93242  0.27151  0.54520  1.0000
  H   H947      1.0  0.67724  0.40712  0.54589  1.0000
  H   H948      1.0  0.70286  0.41954  0.56010  1.0000
  N   N58       1.0  0.93449  0.23117  0.53012  1.0000
  Fe  Fe119     1.0  0.92743  0.35185  0.53980  1.0000
  S   S239      1.0  0.93800  0.35939  0.51359  1.0000
  S   S240      1.0  0.96690  0.33155  0.55594  1.0000
  Fe  Fe120     1.0  0.85380  0.37885  0.53892  1.0000
  S   S241      1.0  0.85852  0.38779  0.51241  1.0000
  S   S242      1.0  0.80655  0.38963  0.55513  1.0000
  Fe  Fe121     1.0  0.88673  0.33700  0.51333  1.0000
  H   H949      1.0  0.61772  0.03089  0.59366  1.0000
  Fe  Fe122     1.0  0.90917  0.40895  0.51518  1.0000
  S   S243      1.0  0.92946  0.45749  0.50200  1.0000
  S   S244      1.0  0.87789  0.32589  0.53965  1.0000
  S   S245      1.0  0.90255  0.40373  0.54156  1.0000
  H   H950      1.0  0.93425  0.17865  0.54022  1.0000
  H   H951      1.0  0.94692  0.24419  0.50520  1.0000
  C   C598      1.0  0.85105  0.27869  0.49277  1.0000
  C   C599      1.0  0.97778  0.50092  0.50817  1.0000
  N   N59       1.0  0.65029  0.43561  0.56351  1.0000
  H   H952      1.0  0.96918  0.41819  0.52408  1.0000
  H   H953      1.0  0.97508  0.19337  0.53131  1.0000
  C   C600      1.0  0.65649  0.46920  0.55424  1.0000
  C   C601      1.0  0.78988  0.27238  0.49753  1.0000
  C   C602      1.0  0.81973  0.28760  0.50061  1.0000
  H   H954      1.0  0.88306  0.21704  0.53859  1.0000
  H   H955      1.0  0.67379  0.38529  0.56554  1.0000
  C   C603      1.0  0.56756  0.03378  0.61747  1.0000
  H   H956      1.0  0.76563  0.27921  0.50364  1.0000
  H   H957      1.0  0.81842  0.30613  0.50906  1.0000
  H   H958      1.0  0.88066  0.49386  0.57369  1.0000
  C   C604      1.0  0.00369  0.51010  0.51674  1.0000
  H   H959      1.0  0.89176  0.22329  0.51746  1.0000
  C   C605      1.0  0.76140  0.49856  0.55541  1.0000
  C   C606      1.0  0.74962  0.47255  0.56694  1.0000
  C   C607      1.0  0.76429  0.43942  0.56696  1.0000
  C   C608      1.0  0.79062  0.43205  0.55541  1.0000
  C   C609      1.0  0.80305  0.45831  0.54413  1.0000
  C   C610      1.0  0.78851  0.49148  0.54417  1.0000
  H   H960      1.0  0.72954  0.47810  0.57593  1.0000
  H   H961      1.0  0.75514  0.41933  0.57591  1.0000
  H   H962      1.0  0.82333  0.45286  0.53518  1.0000
  H   H963      1.0  0.93928  0.46894  0.55061  1.0000
  C   C611      1.0  0.53003  0.51388  0.58033  1.0000
  C   C612      1.0  0.00963  0.30342  0.53290  1.0000
  H   H964      1.0  0.79780  0.51155  0.53524  1.0000
  H   H965      1.0  0.92733  0.22942  0.55542  1.0000
  H   H966      1.0  0.98044  0.25091  0.51706  1.0000
  H   H967      1.0  0.63074  0.45784  0.58452  1.0000
  C   C613      1.0  0.95238  0.25237  0.51664  1.0000
  H   H968      1.0  0.94286  0.18476  0.51912  1.0000
  H   H969      1.0  0.68120  0.47976  0.55629  1.0000
  H   H970      1.0  0.96724  0.51958  0.49965  1.0000
  H   H971      1.0  0.87618  0.46893  0.55780  1.0000
  C   C614      1.0  0.97872  0.44379  0.52193  1.0000
  C   C615      1.0  0.87784  0.49555  0.56087  1.0000
  C   C616      1.0  0.00473  0.45284  0.53035  1.0000
  H   H972      1.0  0.85294  0.50867  0.55894  1.0000
  H   H973      1.0  0.63614  0.48821  0.55744  1.0000
  H   H974      1.0  0.99253  0.31446  0.52462  1.0000
  H   H975      1.0  0.65704  0.46751  0.54138  1.0000
  C   C617      1.0  0.89752  0.23264  0.52863  1.0000
  C   C618      1.0  0.94723  0.19538  0.53020  1.0000
  H   H976      1.0  0.67564  0.44836  0.58294  1.0000
  H   H977      1.0  0.64593  0.41439  0.58785  1.0000
  S   S246      1.0  0.57416  0.50391  0.57638  1.0000
  H   H978      1.0  0.58310  0.03185  0.62762  1.0000
  C   C619      1.0  0.00302  0.30808  0.54884  1.0000
  C   C620      1.0  0.65072  0.43915  0.58044  1.0000
  C   C621      1.0  0.94095  0.24428  0.54497  1.0000
  H   H979      1.0  0.59581  0.44147  0.56455  1.0000
  C   C622      1.0  0.61670  0.42339  0.56082  1.0000
  C   C623      1.0  0.90150  0.51514  0.53446  1.0000
  H   H980      1.0  0.88711  0.25929  0.52842  1.0000
  H   H981      1.0  0.61524  0.42087  0.54814  1.0000
  C   C624      1.0  0.96481  0.46792  0.51101  1.0000
  C   C625      1.0  0.79127  0.24827  0.48661  1.0000
  H   H982      1.0  0.96095  0.50879  0.54747  1.0000
  H   H983      1.0  0.01447  0.43436  0.53914  1.0000
  H   H984      1.0  0.90087  0.48900  0.53069  1.0000
  N   N60       1.0  0.90644  0.51372  0.55133  1.0000
  H   H985      1.0  0.55805  0.03311  0.58700  1.0000
  H   H986      1.0  0.54032  0.03388  0.62243  1.0000
  C   C626      1.0  0.01686  0.48611  0.52797  1.0000
  Fe  Fe123     1.0  0.72306  0.31491  0.80148  1.0000
  C   C627      1.0  0.86684  0.06207  0.76065  1.0000
  H   H987      1.0  0.96645  0.31721  0.70548  1.0000
  Fe  Fe124     1.0  0.79631  0.32426  0.78799  1.0000
  C   C628      1.0  0.92007  0.31279  0.73028  1.0000
  S   S247      1.0  0.82876  0.31702  0.76538  1.0000
  H   H988      1.0  0.86921  0.05294  0.74876  1.0000
  C   C629      1.0  0.97646  0.03748  0.72317  1.0000
  H   H989      1.0  0.92929  0.24757  0.70711  1.0000
  H   H990      1.0  0.95758  0.23367  0.73119  1.0000
  H   H991      1.0  0.69960  0.46703  0.75446  1.0000
  S   S248      1.0  0.74910  0.35670  0.78532  1.0000
  Fe  Fe125     1.0  0.90110  0.08990  0.71441  1.0000
  S   S249      1.0  0.89619  0.11775  0.69042  1.0000
  S   S250      1.0  0.76922  0.28039  0.80237  1.0000
  Fe  Fe126     1.0  0.87989  0.15190  0.73138  1.0000
  S   S251      1.0  0.87284  0.18533  0.70896  1.0000
  S   S252      1.0  0.87134  0.16372  0.75660  1.0000
  Fe  Fe127     1.0  0.84765  0.14000  0.70169  1.0000
  Fe  Fe128     1.0  0.76024  0.37757  0.80731  1.0000
  Fe  Fe129     1.0  0.92196  0.16057  0.69969  1.0000
  S   S253      1.0  0.96245  0.19249  0.68477  1.0000
  S   S254      1.0  0.85081  0.10901  0.72493  1.0000
  S   S255      1.0  0.93092  0.13048  0.72268  1.0000
  C   C630      1.0  0.97045  0.29513  0.71444  1.0000
  H   H992      1.0  0.54594  0.40072  0.80304  1.0000
  H   H993      1.0  0.84604  0.04763  0.76796  1.0000
  C   C631      1.0  0.54616  0.42913  0.80071  1.0000
  H   H994      1.0  0.83006  0.08511  0.68093  1.0000
  C   C632      1.0  0.79152  0.05780  0.67173  1.0000
  C   C633      1.0  0.61305  0.22093  0.81540  1.0000
  C   C634      1.0  0.68658  0.43154  0.80579  1.0000
  H   H995      1.0  0.98358  0.18626  0.71658  1.0000
  H   H996      1.0  0.87494  0.05515  0.79149  1.0000
  H   H997      1.0  0.72871  0.12834  0.68601  1.0000
  H   H998      1.0  0.97340  0.06489  0.72064  1.0000
  C   C635      1.0  0.83913  0.27404  0.76329  1.0000
  C   C636      1.0  0.84556  0.25092  0.77629  1.0000
  C   C637      1.0  0.85513  0.21688  0.77420  1.0000
  C   C638      1.0  0.85782  0.20588  0.75916  1.0000
  C   C639      1.0  0.85017  0.22877  0.74629  1.0000
  C   C640      1.0  0.84118  0.26287  0.74832  1.0000
  H   H999      1.0  0.84404  0.25946  0.78790  1.0000
  H   H1000     1.0  0.86088  0.19923  0.78423  1.0000
  H   H1001     1.0  0.85125  0.22025  0.73478  1.0000
  H   H1002     1.0  0.83556  0.28058  0.73829  1.0000
  C   C641      1.0  0.91659  0.26998  0.71243  1.0000
  H   H1003     1.0  0.88695  0.09724  0.78278  1.0000
  H   H1004     1.0  0.85853  0.08951  0.75925  1.0000
  H   H1005     1.0  0.60571  0.27184  0.80395  1.0000
  H   H1006     1.0  0.70762  0.08095  0.67306  1.0000
  C   C642      1.0  0.71376  0.45224  0.80730  1.0000
  S   S256      1.0  0.75475  0.43426  0.80940  1.0000
  H   H1007     1.0  0.89583  0.30496  0.73738  1.0000
  S   S257      1.0  0.67209  0.29925  0.79604  1.0000
  C   C643      1.0  0.74623  0.10848  0.68217  1.0000
  H   H1008     1.0  0.69666  0.48132  0.77365  1.0000
  S   S258      1.0  0.81028  0.34857  0.80883  1.0000
  N   N61       1.0  0.68534  0.52021  0.75510  1.0000
  H   H1009     1.0  0.92081  0.24754  0.74308  1.0000
  H   H1010     1.0  0.98865  0.30285  0.72235  1.0000
  H   H1011     1.0  0.69064  0.40419  0.80581  1.0000
  H   H1012     1.0  0.56319  0.43854  0.80873  1.0000
  C   C644      1.0  0.70814  0.48770  0.80724  1.0000
  C   C645      1.0  0.80338  0.08419  0.67933  1.0000
  N   N62       1.0  0.89931  0.05746  0.76778  1.0000
  S   S259      1.0  0.79542  0.14464  0.69303  1.0000
  H   H1013     1.0  0.56682  0.04808  0.71360  1.0000
  C   C646      1.0  0.00060  0.20323  0.70896  1.0000
  H   H1014     1.0  0.92929  0.06950  0.74566  1.0000
  C   C647      1.0  0.73423  0.08163  0.67487  1.0000
  H   H1015     1.0  0.91918  0.10532  0.75669  1.0000
  C   C648      1.0  0.64817  0.48148  0.80459  1.0000
  N   N63       1.0  0.93796  0.28358  0.72329  1.0000
  H   H1016     1.0  0.55806  0.43586  0.78845  1.0000
  N   N64       1.0  0.73432  0.24080  0.76087  1.0000
  C   C649      1.0  0.73903  0.27754  0.76190  1.0000
  C   C650      1.0  0.75300  0.22010  0.77278  1.0000
  C   C651      1.0  0.74761  0.23232  0.74498  1.0000
  C   C652      1.0  0.69767  0.23328  0.76386  1.0000
  H   H1017     1.0  0.72929  0.28478  0.77374  1.0000
  H   H1018     1.0  0.72516  0.29402  0.75316  1.0000
  H   H1019     1.0  0.76635  0.28427  0.75978  1.0000
  H   H1020     1.0  0.74329  0.22545  0.78491  1.0000
  H   H1021     1.0  0.75052  0.19222  0.77218  1.0000
  H   H1022     1.0  0.78064  0.22564  0.77107  1.0000
  H   H1023     1.0  0.74449  0.20477  0.74377  1.0000
  H   H1024     1.0  0.77525  0.23761  0.74242  1.0000
  H   H1025     1.0  0.73422  0.24756  0.73567  1.0000
  H   H1026     1.0  0.69308  0.20571  0.76339  1.0000
  H   H1027     1.0  0.68275  0.24844  0.75510  1.0000
  H   H1028     1.0  0.68686  0.23978  0.77571  1.0000
  C   C653      1.0  0.65887  0.25956  0.80560  1.0000
  C   C654      1.0  0.94477  0.25640  0.73601  1.0000
  H   H1029     1.0  0.98325  0.27456  0.70797  1.0000
  H   H1030     1.0  0.73226  0.49310  0.75956  1.0000
  C   C655      1.0  0.52337  0.02784  0.65662  1.0000
  H   H1031     1.0  0.01627  0.23598  0.67064  1.0000
  C   C656      1.0  0.65387  0.44611  0.80454  1.0000
  C   C657      1.0  0.92588  0.07749  0.75774  1.0000
  C   C658      1.0  0.01921  0.23108  0.68308  1.0000
  C   C659      1.0  0.78085  0.10991  0.68439  1.0000
  H   H1032     1.0  0.93590  0.32396  0.73828  1.0000
  H   H1033     1.0  0.80927  0.03850  0.66751  1.0000
  S   S260      1.0  0.60651  0.49837  0.80334  1.0000
  C   C660      1.0  0.62415  0.25257  0.80784  1.0000
  H   H1034     1.0  0.91895  0.06686  0.78924  1.0000
  H   H1035     1.0  0.57893  0.04041  0.69356  1.0000
  C   C661      1.0  0.75697  0.05643  0.66944  1.0000
  H   H1036     1.0  0.91368  0.33350  0.72105  1.0000
  C   C662      1.0  0.89486  0.06961  0.78355  1.0000
  S   S261      1.0  0.90826  0.03297  0.71983  1.0000
  H   H1037     1.0  0.95099  0.07412  0.76253  1.0000
  C   C663      1.0  0.99654  0.20946  0.69290  1.0000
  H   H1038     1.0  0.96151  0.26542  0.74423  1.0000
  H   H1039     1.0  0.63951  0.50781  0.77027  1.0000
  H   H1040     1.0  0.52941  0.49316  0.80733  1.0000
  H   H1041     1.0  0.89171  0.26137  0.71860  1.0000
  C   C664      1.0  0.67541  0.50234  0.80585  1.0000
  H   H1042     1.0  0.70938  0.23979  0.80900  1.0000
  S   S262      1.0  0.56235  0.04355  0.66104  1.0000
  C   C665      1.0  0.57555  0.02787  0.70591  1.0000
  C   C666      1.0  0.70432  0.48907  0.76091  1.0000
  C   C667      1.0  0.68260  0.23454  0.81062  1.0000
  H   H1043     1.0  0.63292  0.42978  0.80362  1.0000
  H   H1044     1.0  0.91137  0.28956  0.70252  1.0000
  H   H1045     1.0  0.64186  0.49202  0.75136  1.0000
  C   C668      1.0  0.64843  0.51386  0.75754  1.0000
  H   H1046     1.0  0.52411  0.48949  0.78717  1.0000
  H   H1047     1.0  0.69019  0.50859  0.73107  1.0000
  H   H1048     1.0  0.72907  0.50378  0.80850  1.0000
  H   H1049     1.0  0.91963  0.02489  0.67616  1.0000
  H   H1050     1.0  0.58610  0.21596  0.81735  1.0000
  Fe  Fe130     1.0  0.56938  0.16482  0.84151  1.0000
  H   H1051     1.0  0.61475  0.20932  0.87413  1.0000
  H   H1052     1.0  0.97376  0.27796  0.92408  1.0000
  H   H1053     1.0  0.91530  0.45929  0.94999  1.0000
  Fe  Fe131     1.0  0.68341  0.27428  0.96616  1.0000
  S   S263      1.0  0.64956  0.32015  0.96081  1.0000
  Fe  Fe132     1.0  0.72658  0.28742  0.93501  1.0000
  S   S264      1.0  0.69642  0.33460  0.92739  1.0000
  S   S265      1.0  0.76814  0.27519  0.91650  1.0000
  Fe  Fe133     1.0  0.69813  0.34739  0.95203  1.0000
  S   S266      1.0  0.70520  0.39998  0.95942  1.0000
  Fe  Fe134     1.0  0.65125  0.30276  0.93668  1.0000
  S   S267      1.0  0.60595  0.30687  0.92247  1.0000
  S   S268      1.0  0.73206  0.30263  0.95897  1.0000
  S   S269      1.0  0.68127  0.25451  0.94271  1.0000
  Fe  Fe135     1.0  0.94913  0.19823  0.88111  1.0000
  S   S270      1.0  0.93058  0.14823  0.89403  1.0000
  S   S271      1.0  0.93877  0.22417  0.85716  1.0000
  Fe  Fe136     1.0  0.99520  0.21171  0.90577  1.0000
  S   S272      1.0  0.98102  0.16329  0.92109  1.0000
  Fe  Fe137     1.0  0.98494  0.13741  0.89895  1.0000
  C   C669      1.0  0.98920  0.32398  0.93267  1.0000
  Fe  Fe138     1.0  0.92781  0.17684  0.91539  1.0000
  S   S273      1.0  0.88514  0.16943  0.93487  1.0000
  H   H1054     1.0  0.53389  0.32481  0.96367  1.0000
  S   S274      1.0  0.94151  0.22786  0.90210  1.0000
  H   H1055     1.0  0.95769  0.38077  0.96828  1.0000
  S   S275      1.0  0.55743  0.21288  0.85278  1.0000
  H   H1056     1.0  0.68327  0.27159  0.87415  1.0000
  C   C670      1.0  0.99495  0.29355  0.92551  1.0000
  H   H1057     1.0  0.93898  0.33148  0.86657  1.0000
  C   C671      1.0  0.79953  0.24495  0.92206  1.0000
  C   C672      1.0  0.82587  0.23724  0.91068  1.0000
  C   C673      1.0  0.85167  0.21358  0.91463  1.0000
  C   C674      1.0  0.85151  0.19768  0.93002  1.0000
  C   C675      1.0  0.82492  0.20497  0.94143  1.0000
  C   C676      1.0  0.79888  0.22871  0.93745  1.0000
  H   H1058     1.0  0.82640  0.24961  0.89878  1.0000
  H   H1059     1.0  0.87158  0.20744  0.90571  1.0000
  H   H1060     1.0  0.82471  0.19267  0.95335  1.0000
  H   H1061     1.0  0.77851  0.23458  0.94627  1.0000
  C   C677      1.0  0.74560  0.41865  0.95609  1.0000
  C   C678      1.0  0.76944  0.41071  0.94370  1.0000
  C   C679      1.0  0.79983  0.42897  0.94031  1.0000
  C   C680      1.0  0.80653  0.45513  0.94931  1.0000
  C   C681      1.0  0.78330  0.46203  0.96208  1.0000
  C   C682      1.0  0.75295  0.44389  0.96543  1.0000
  H   H1062     1.0  0.76403  0.39117  0.93648  1.0000
  H   H1063     1.0  0.81784  0.42326  0.93049  1.0000
  H   H1064     1.0  0.78856  0.48140  0.96935  1.0000
  N   N65       1.0  0.54942  0.27167  0.96694  1.0000
  H   H1065     1.0  0.52507  0.06015  0.84572  1.0000
  C   C683      1.0  0.00033  0.04599  0.90088  1.0000
  H   H1066     1.0  0.80280  0.31019  0.88948  1.0000
  H   H1067     1.0  0.94870  0.06124  0.89730  1.0000
  C   C684      1.0  0.88764  0.42963  0.97807  1.0000
  C   C685      1.0  0.83678  0.24382  0.86335  1.0000
  C   C686      1.0  0.86992  0.23209  0.86602  1.0000
  C   C687      1.0  0.89690  0.23864  0.85425  1.0000
  H   H1068     1.0  0.80883  0.31656  0.86848  1.0000
  C   C688      1.0  0.64994  0.25077  0.85143  1.0000
  H   H1069     1.0  0.81593  0.23826  0.87242  1.0000
  H   H1070     1.0  0.87451  0.21758  0.87708  1.0000
  H   H1071     1.0  0.55899  0.24421  0.94663  1.0000
  C   C689      1.0  0.91756  0.04269  0.95444  1.0000
  H   H1072     1.0  0.95280  0.43216  0.94869  1.0000
  H   H1073     1.0  0.82356  0.34768  0.87968  1.0000
  S   S276      1.0  0.62283  0.15706  0.83058  1.0000
  H   H1074     1.0  0.70598  0.50364  0.96556  1.0000
  C   C690      1.0  0.80257  0.32996  0.87915  1.0000
  H   H1075     1.0  0.97468  0.34390  0.88752  1.0000
  H   H1076     1.0  0.96349  0.33172  0.93667  1.0000
  C   C691      1.0  0.56418  0.21478  0.90315  1.0000
  C   C692      1.0  0.55517  0.24811  0.89730  1.0000
  C   C693      1.0  0.56870  0.27619  0.90310  1.0000
  C   C694      1.0  0.59212  0.27114  0.91438  1.0000
  C   C695      1.0  0.60244  0.23781  0.91961  1.0000
  C   C696      1.0  0.58791  0.20975  0.91429  1.0000
  C   C697      1.0  0.96955  0.06442  0.94004  1.0000
  H   H1077     1.0  0.56058  0.30190  0.89899  1.0000
  H   H1078     1.0  0.62057  0.23353  0.92822  1.0000
  H   H1079     1.0  0.59496  0.18399  0.91885  1.0000
  H   H1080     1.0  0.92726  0.10508  0.92376  1.0000
  H   H1081     1.0  0.00808  0.32809  0.84670  1.0000
  N   N66       1.0  0.98839  0.30889  0.87018  1.0000
  H   H1082     1.0  0.53675  0.25224  0.88878  1.0000
  S   S277      1.0  0.84381  0.47905  0.94416  1.0000
  N   N67       1.0  0.76928  0.34833  0.87894  1.0000
  C   C698      1.0  0.74202  0.32365  0.87885  1.0000
  C   C699      1.0  0.76272  0.36657  0.89313  1.0000
  C   C700      1.0  0.76978  0.37306  0.86460  1.0000
  H   H1083     1.0  0.74597  0.30967  0.86825  1.0000
  H   H1084     1.0  0.71653  0.33663  0.87897  1.0000
  H   H1085     1.0  0.74128  0.30414  0.88931  1.0000
  H   H1086     1.0  0.78249  0.38575  0.89353  1.0000
  H   H1087     1.0  0.73750  0.38017  0.89359  1.0000
  H   H1088     1.0  0.76278  0.34841  0.90408  1.0000
  H   H1089     1.0  0.77467  0.35983  0.85372  1.0000
  H   H1090     1.0  0.79006  0.39210  0.86418  1.0000
  H   H1091     1.0  0.74504  0.38737  0.86398  1.0000
  N   N68       1.0  0.93360  0.07291  0.94517  1.0000
  H   H1092     1.0  0.90516  0.10908  0.95879  1.0000
  C   C701      1.0  0.93793  0.39309  0.97617  1.0000
  H   H1093     1.0  0.91503  0.06164  0.92373  1.0000
  H   H1094     1.0  0.59653  0.25487  0.95489  1.0000
  H   H1095     1.0  0.70298  0.23097  0.87996  1.0000
  H   H1096     1.0  0.53974  0.30406  0.94588  1.0000
  Fe  Fe139     1.0  0.77896  0.30715  0.82310  1.0000
  H   H1097     1.0  0.58627  0.16716  0.98293  1.0000
  C   C702      1.0  0.93198  0.10162  0.95496  1.0000
  H   H1098     1.0  0.65545  0.18209  0.85521  1.0000
  C   C703      1.0  0.83044  0.26234  0.84898  1.0000
  C   C704      1.0  0.69200  0.24664  0.87001  1.0000
  S   S278      1.0  0.78861  0.27719  0.84624  1.0000
  H   H1099     1.0  0.68685  0.17905  0.86892  1.0000
  C   C705      1.0  0.89058  0.25725  0.83988  1.0000
  H   H1100     1.0  0.71307  0.25168  0.86037  1.0000
  C   C706      1.0  0.85745  0.26916  0.83725  1.0000
  H   H1101     1.0  0.63914  0.27547  0.85513  1.0000
  H   H1102     1.0  0.62609  0.24714  0.88202  1.0000
  C   C707      1.0  0.70336  0.51211  0.95293  1.0000
  S   S279      1.0  0.54647  0.12978  0.86196  1.0000
  H   H1103     1.0  0.62923  0.23782  0.84675  1.0000
  H   H1104     1.0  0.91133  0.26229  0.83070  1.0000
  N   N69       1.0  0.91397  0.41479  0.96706  1.0000
  Fe  Fe140     1.0  0.53143  0.17852  0.87260  1.0000
  C   C708      1.0  0.63673  0.19581  0.82031  1.0000
  C   C709      1.0  0.89763  0.39385  0.95688  1.0000
  H   H1105     1.0  0.88832  0.09083  0.93459  1.0000
  H   H1106     1.0  0.68989  0.18297  0.82150  1.0000
  C   C710      1.0  0.98750  0.31856  0.88635  1.0000
  C   C711      1.0  0.96606  0.03994  0.89985  1.0000
  H   H1107     1.0  0.86953  0.44677  0.97165  1.0000
  H   H1108     1.0  0.97361  0.29945  0.89504  1.0000
  H   H1109     1.0  0.94536  0.45899  0.96427  1.0000
  H   H1110     1.0  0.73493  0.44953  0.97525  1.0000
  H   H1111     1.0  0.59167  0.28104  0.97961  1.0000
  H   H1112     1.0  0.57590  0.31529  0.95481  1.0000
  H   H1113     1.0  0.66995  0.25678  0.84144  1.0000
  S   S280      1.0  0.00396  0.18469  0.88399  1.0000
  C   C712      1.0  0.91522  0.08291  0.93120  1.0000
  H   H1114     1.0  0.85281  0.28337  0.82612  1.0000
  C   C713      1.0  0.95321  0.30667  0.86608  1.0000
  H   H1115     1.0  0.88333  0.37249  0.96392  1.0000
  S   S281      1.0  0.73009  0.33829  0.82343  1.0000
  H   H1116     1.0  0.94376  0.12488  0.94829  1.0000
  H   H1117     1.0  0.57005  0.22096  0.96459  1.0000
  S   S282      1.0  0.01620  0.08782  0.89881  1.0000
  C   C714      1.0  0.00689  0.33482  0.85899  1.0000
  S   S283      1.0  0.00815  0.38323  0.94298  1.0000
  H   H1118     1.0  0.67582  0.51185  0.95133  1.0000
  C   C715      1.0  0.63646  0.22280  0.87774  1.0000
  C   C716      1.0  0.01653  0.34430  0.93471  1.0000
  H   H1119     1.0  0.00679  0.26663  0.85744  1.0000
  H   H1120     1.0  0.87928  0.40952  0.94990  1.0000
  H   H1121     1.0  0.64582  0.20663  0.88796  1.0000
  H   H1122     1.0  0.91692  0.38245  0.94839  1.0000
  H   H1123     1.0  0.93077  0.03443  0.96509  1.0000
  C   C717      1.0  0.67627  0.19608  0.85928  1.0000
  H   H1124     1.0  0.94544  0.09513  0.96566  1.0000
  H   H1125     1.0  0.69664  0.19983  0.84928  1.0000
  N   N70       1.0  0.66368  0.22908  0.86461  1.0000
  H   H1126     1.0  0.98457  0.05785  0.95024  1.0000
  C   C718      1.0  0.93267  0.44257  0.95709  1.0000
  H   H1127     1.0  0.71654  0.49241  0.94592  1.0000
  C   C719      1.0  0.56967  0.24681  0.95790  1.0000
  H   H1128     1.0  0.99428  0.36053  0.85931  1.0000
  H   H1129     1.0  0.98219  0.08619  0.93246  1.0000
  H   H1130     1.0  0.93867  0.28707  0.87427  1.0000
  H   H1131     1.0  0.97172  0.04218  0.93303  1.0000
  H   H1132     1.0  0.01364  0.31974  0.88998  1.0000
  H   H1133     1.0  0.63749  0.20190  0.97382  1.0000
  C   C720      1.0  0.54962  0.30545  0.95746  1.0000
  C   C721      1.0  0.00604  0.27531  0.86937  1.0000
  H   H1134     1.0  0.89036  0.04822  0.95842  1.0000
  H   H1135     1.0  0.95292  0.29891  0.85401  1.0000
  C   C722      1.0  0.56431  0.27438  0.98181  1.0000
  H   H1136     1.0  0.99271  0.25544  0.87773  1.0000
  S   S284      1.0  0.54495  0.17897  0.89753  1.0000
  S   S285      1.0  0.52267  0.16847  0.82882  1.0000
  H   H1137     1.0  0.95148  0.40823  0.98365  1.0000
  C   C723      1.0  0.67156  0.20242  0.81771  1.0000
  H   H1138     1.0  0.92458  0.37222  0.98402  1.0000
  S   S286      1.0  0.82876  0.97463  0.06856  1.0000
  N   N71       1.0  0.75280  0.83599  0.13298  1.0000
  S   S287      1.0  0.85148  0.94741  0.10355  1.0000
  Fe  Fe141     1.0  0.85710  0.99524  0.08669  1.0000
  Fe  Fe142     1.0  0.81897  0.92915  0.08648  1.0000
  S   S288      1.0  0.82121  0.87446  0.08093  1.0000
  S   S289      1.0  0.77027  0.95031  0.09777  1.0000
  Fe  Fe143     1.0  0.62858  0.73438  0.04511  1.0000
  S   S290      1.0  0.67328  0.76800  0.03747  1.0000
  S   S291      1.0  0.58522  0.74733  0.03006  1.0000
  Fe  Fe144     1.0  0.66356  0.69708  0.07227  1.0000
  S   S292      1.0  0.71018  0.72873  0.06694  1.0000
  S   S293      1.0  0.66067  0.65777  0.09367  1.0000
  Fe  Fe145     1.0  0.67373  0.77294  0.06304  1.0000
  S   S294      1.0  0.67622  0.82658  0.06929  1.0000
  Fe  Fe146     1.0  0.70559  0.72073  0.04181  1.0000
  S   S295      1.0  0.75516  0.71389  0.02669  1.0000
  S   S296      1.0  0.62697  0.74239  0.07061  1.0000
  S   S297      1.0  0.66111  0.68589  0.04727  1.0000
  H   H1139     1.0  0.77613  0.60337  0.04814  1.0000
  H   H1140     1.0  0.66755  0.64389  0.14645  1.0000
  S   S298      1.0  0.80053  0.57893  0.10498  1.0000
  H   H1141     1.0  0.76933  0.85205  0.04368  1.0000
  Fe  Fe147     1.0  0.78160  0.99738  0.08090  1.0000
  H   H1142     1.0  0.58550  0.80393  0.05618  1.0000
  H   H1143     1.0  0.79106  0.79688  0.13761  1.0000
  C   C724      1.0  0.78657  0.68304  0.00200  1.0000
  H   H1144     1.0  0.57015  0.88035  0.07770  1.0000
  C   C725      1.0  0.75615  0.68685  0.01170  1.0000
  H   H1145     1.0  0.72964  0.97072  0.12568  1.0000
  C   C726      1.0  0.72796  0.66786  0.00981  1.0000
  H   H1146     1.0  0.61145  0.86187  0.07238  1.0000
  H   H1147     1.0  0.70436  0.67072  0.01722  1.0000
  C   C727      1.0  0.69957  0.63585  0.09672  1.0000
  C   C728      1.0  0.70347  0.61697  0.11132  1.0000
  C   C729      1.0  0.73459  0.60015  0.11412  1.0000
  C   C730      1.0  0.76173  0.60130  0.10220  1.0000
  C   C731      1.0  0.75757  0.61956  0.08751  1.0000
  C   C732      1.0  0.72674  0.63709  0.08482  1.0000
  H   H1148     1.0  0.68252  0.61556  0.12052  1.0000
  H   H1149     1.0  0.73736  0.58599  0.12543  1.0000
  H   H1150     1.0  0.77844  0.62052  0.07826  1.0000
  H   H1151     1.0  0.72390  0.65129  0.07348  1.0000
  C   C733      1.0  0.78146  0.86124  0.07695  1.0000
  C   C734      1.0  0.75547  0.88522  0.07372  1.0000
  C   C735      1.0  0.72310  0.87431  0.07160  1.0000
  C   C736      1.0  0.71676  0.83939  0.07239  1.0000
  C   C737      1.0  0.74292  0.81536  0.07530  1.0000
  C   C738      1.0  0.77525  0.82629  0.07758  1.0000
  H   H1152     1.0  0.76033  0.91226  0.07270  1.0000
  H   H1153     1.0  0.70307  0.89305  0.06918  1.0000
  H   H1154     1.0  0.73814  0.78839  0.07612  1.0000
  H   H1155     1.0  0.79527  0.80766  0.08019  1.0000
  H   H1156     1.0  0.80239  0.76474  0.03596  1.0000
  H   H1157     1.0  0.62684  0.64756  0.12614  1.0000
  H   H1158     1.0  0.59643  0.98860  0.12689  1.0000
  S   S299      1.0  0.89698  0.54205  0.00763  1.0000
  H   H1159     1.0  0.80835  0.69795  0.00330  1.0000
  C   C739      1.0  0.61873  0.71686  0.14668  1.0000
  H   H1160     1.0  0.53053  0.85354  0.04391  1.0000
  C   C740      1.0  0.54601  0.76333  0.03841  1.0000
  C   C741      1.0  0.78911  0.65981  0.99067  1.0000
  H   H1161     1.0  0.54946  0.73688  0.06154  1.0000
  H   H1162     1.0  0.85088  0.58697  0.05257  1.0000
  H   H1163     1.0  0.75448  0.86230  0.02468  1.0000
  C   C742      1.0  0.58597  0.88997  0.04613  1.0000
  H   H1164     1.0  0.69807  0.53777  0.11724  1.0000
  C   C743      1.0  0.83841  0.57393  0.04394  1.0000
  H   H1165     1.0  0.80761  0.63427  0.04965  1.0000
  H   H1166     1.0  0.86117  0.63602  0.03185  1.0000
  S   S300      1.0  0.85614  0.58572  0.14034  1.0000
  C   C744      1.0  0.79622  0.61961  0.04126  1.0000
  H   H1167     1.0  0.61394  0.89318  0.04580  1.0000
  C   C745      1.0  0.84851  0.62150  0.02383  1.0000
  N   N72       1.0  0.57506  0.85801  0.05582  1.0000
  H   H1168     1.0  0.94163  0.00451  0.13976  1.0000
  C   C746      1.0  0.94544  0.01414  0.08684  1.0000
  C   C747      1.0  0.72676  0.95437  0.13670  1.0000
  H   H1169     1.0  0.85830  0.55790  0.03779  1.0000
  H   H1170     1.0  0.70861  0.63001  0.99699  1.0000
  H   H1171     1.0  0.83732  0.64039  0.01506  1.0000
  C   C748      1.0  0.73040  0.64483  0.99835  1.0000
  N   N73       1.0  0.78185  0.81409  0.02772  1.0000
  C   C749      1.0  0.81539  0.82880  0.02202  1.0000
  C   C750      1.0  0.78603  0.78599  0.04037  1.0000
  C   C751      1.0  0.76725  0.80064  0.01458  1.0000
  C   C752      1.0  0.75874  0.84091  0.03394  1.0000
  H   H1172     1.0  0.81325  0.85010  0.01245  1.0000
  H   H1173     1.0  0.83349  0.80918  0.01729  1.0000
  H   H1174     1.0  0.82705  0.83922  0.03168  1.0000
  H   H1175     1.0  0.76109  0.77486  0.04522  1.0000
  H   H1176     1.0  0.79787  0.79495  0.05029  1.0000
  H   H1177     1.0  0.74197  0.78924  0.01853  1.0000
  H   H1178     1.0  0.78384  0.78000  0.00972  1.0000
  H   H1179     1.0  0.76381  0.82102  0.00476  1.0000
  H   H1180     1.0  0.73340  0.83050  0.03871  1.0000
  C   C753      1.0  0.63774  0.00861  0.10088  1.0000
  H   H1181     1.0  0.78612  0.56307  0.02762  1.0000
  N   N74       1.0  0.60226  0.02057  0.10477  1.0000
  C   C754      1.0  0.61360  0.66935  0.13166  1.0000
  H   H1182     1.0  0.82507  0.56460  0.01470  1.0000
  H   H1183     1.0  0.62096  0.83013  0.04870  1.0000
  H   H1184     1.0  0.75271  0.86360  0.10991  1.0000
  H   H1185     1.0  0.76480  0.88853  0.13360  1.0000
  C   C755      1.0  0.58363  0.85881  0.07210  1.0000
  C   C756      1.0  0.66457  0.70246  0.12739  1.0000
  N   N75       1.0  0.63739  0.68848  0.13933  1.0000
  H   H1186     1.0  0.79990  0.85903  0.13594  1.0000
  N   N76       1.0  0.82228  0.59887  0.03262  1.0000
  S   S301      1.0  0.81055  0.02220  0.09755  1.0000
  C   C757      1.0  0.95238  0.98099  0.09369  1.0000
  H   H1187     1.0  0.79371  0.59847  0.01270  1.0000
  C   C758      1.0  0.98478  0.97231  0.09857  1.0000
  H   H1188     1.0  0.85565  0.00347  0.12622  1.0000
  C   C759      1.0  0.58397  0.99417  0.11581  1.0000
  H   H1189     1.0  0.93288  0.96198  0.09513  1.0000
  H   H1190     1.0  0.73998  0.68656  0.14237  1.0000
  H   H1191     1.0  0.57300  0.91284  0.05086  1.0000
  H   H1192     1.0  0.98997  0.94661  0.10384  1.0000
  H   H1193     1.0  0.58555  0.00370  0.08388  1.0000
  C   C760      1.0  0.59283  0.82846  0.04907  1.0000
  Fe  Fe148     1.0  0.81352  0.56273  0.12986  1.0000
  H   H1194     1.0  0.94469  0.52700  0.03043  1.0000
  C   C761      1.0  0.53788  0.85479  0.05598  1.0000
  C   C762      1.0  0.76112  0.64045  0.98889  1.0000
  C   C763      1.0  0.88378  0.00129  0.12638  1.0000
  C   C764      1.0  0.80606  0.58042  0.02144  1.0000
  H   H1195     1.0  0.68039  0.68173  0.12225  1.0000
  H   H1196     1.0  0.60226  0.68591  0.12208  1.0000
  H   H1197     1.0  0.78332  0.63850  0.03308  1.0000
  Fe  Fe149     1.0  0.80331  0.97285  0.11329  1.0000
  H   H1198     1.0  0.57658  0.83464  0.07961  1.0000
  S   S302      1.0  0.74146  0.01731  0.06498  1.0000
  H   H1199     1.0  0.59239  0.65889  0.14023  1.0000
  H   H1200     1.0  0.74985  0.78115  0.13568  1.0000
  H   H1201     1.0  0.86864  0.60662  0.01723  1.0000
  H   H1202     1.0  0.67573  0.94039  0.13396  1.0000
  C   C765      1.0  0.76005  0.83799  0.11568  1.0000
  C   C766      1.0  0.76324  0.80183  0.14017  1.0000
  H   H1203     1.0  0.89497  0.99782  0.11422  1.0000
  H   H1204     1.0  0.78767  0.83379  0.11205  1.0000
  H   H1205     1.0  0.60716  0.73512  0.13777  1.0000
  H   H1206     1.0  0.58674  0.82661  0.03684  1.0000
  S   S303      1.0  0.79285  0.96910  0.13968  1.0000
  C   C767      1.0  0.01048  0.99663  0.09669  1.0000
  H   H1207     1.0  0.74581  0.81856  0.11075  1.0000
  H   H1208     1.0  0.70693  0.86695  0.13160  1.0000
  C   C768      1.0  0.53427  0.75407  0.05420  1.0000
  H   H1209     1.0  0.57992  0.89011  0.03376  1.0000
  H   H1210     1.0  0.55715  0.00245  0.11909  1.0000
  C   C769      1.0  0.71592  0.84174  0.13713  1.0000
  C   C770      1.0  0.77197  0.86249  0.13889  1.0000
  H   H1211     1.0  0.65157  0.00370  0.11158  1.0000
  H   H1212     1.0  0.65393  0.71851  0.11747  1.0000
  C   C771      1.0  0.52594  0.78540  0.02896  1.0000
  H   H1213     1.0  0.78175  0.64087  0.14992  1.0000
  H   H1214     1.0  0.63887  0.98457  0.09514  1.0000
  C   C772      1.0  0.75339  0.95048  0.14627  1.0000
  H   H1215     1.0  0.70069  0.82154  0.13334  1.0000
  C   C773      1.0  0.69618  0.93740  0.14145  1.0000
  H   H1216     1.0  0.88935  0.97752  0.13409  1.0000
  H   H1217     1.0  0.81942  0.55634  0.05077  1.0000
  H   H1218     1.0  0.68208  0.71849  0.13251  1.0000
  H   H1219     1.0  0.52872  0.83118  0.06336  1.0000
  H   H1220     1.0  0.58330  0.96971  0.11051  1.0000
  Fe  Fe150     1.0  0.87158  0.53166  0.14874  1.0000
  Fe  Fe151     1.0  0.87702  0.55341  0.98409  1.0000
  H   H1221     1.0  0.53505  0.79281  0.01675  1.0000
  H   H1222     1.0  0.52359  0.87688  0.06078  1.0000
  H   H1223     1.0  0.70962  0.84162  0.15006  1.0000
  C   C774      1.0  0.55339  0.71184  0.19145  1.0000
  C   C775      1.0  0.00291  0.88186  0.29089  1.0000
  S   S304      1.0  0.81322  0.62299  0.17869  1.0000
  Fe  Fe152     1.0  0.61054  0.78787  0.19404  1.0000
  S   S305      1.0  0.65492  0.75495  0.20144  1.0000
  S   S306      1.0  0.55435  0.77721  0.20047  1.0000
  Fe  Fe153     1.0  0.65681  0.84497  0.17738  1.0000
  S   S307      1.0  0.70491  0.81711  0.18362  1.0000
  S   S308      1.0  0.65450  0.89321  0.16057  1.0000
  Fe  Fe154     1.0  0.68026  0.77102  0.17716  1.0000
  H   H1224     1.0  0.94622  0.55218  0.18585  1.0000
  Fe  Fe155     1.0  0.67568  0.80405  0.20738  1.0000
  S   S309      1.0  0.69631  0.80389  0.23090  1.0000
  S   S310      1.0  0.63403  0.79973  0.16921  1.0000
  S   S311      1.0  0.62945  0.83597  0.20170  1.0000
  Fe  Fe156     1.0  0.82399  0.91215  0.26368  1.0000
  S   S312      1.0  0.80234  0.91487  0.24032  1.0000
  Fe  Fe157     1.0  0.88483  0.93714  0.27802  1.0000
  S   S313      1.0  0.93524  0.96203  0.27053  1.0000
  S   S314      1.0  0.87488  0.88865  0.26819  1.0000
  S   S315      1.0  0.83632  0.96264  0.27113  1.0000
  N   N77       1.0  0.90481  0.58495  0.19400  1.0000
  H   H1225     1.0  0.69822  0.99705  0.27542  1.0000
  H   H1226     1.0  0.87924  0.00262  0.28962  1.0000
  S   S316      1.0  0.78022  0.97438  0.31035  1.0000
  H   H1227     1.0  0.58091  0.71230  0.18999  1.0000
  C   C776      1.0  0.72606  0.83472  0.23317  1.0000
  C   C777      1.0  0.73510  0.86088  0.22118  1.0000
  C   C778      1.0  0.75884  0.88516  0.22342  1.0000
  C   C779      1.0  0.77369  0.88332  0.23762  1.0000
  C   C780      1.0  0.76455  0.85725  0.24962  1.0000
  C   C781      1.0  0.74072  0.83310  0.24741  1.0000
  H   H1228     1.0  0.72382  0.86238  0.21019  1.0000
  H   H1229     1.0  0.76579  0.90532  0.21410  1.0000
  H   H1230     1.0  0.77600  0.85545  0.26056  1.0000
  H   H1231     1.0  0.73388  0.81283  0.25669  1.0000
  C   C782      1.0  0.69228  0.91592  0.15565  1.0000
  Fe  Fe158     1.0  0.81408  0.94110  0.29507  1.0000
  C   C783      1.0  0.68899  0.93422  0.25211  1.0000
  C   C784      1.0  0.99944  0.02033  0.28890  1.0000
  C   C785      1.0  0.73059  0.97855  0.24845  1.0000
  H   H1232     1.0  0.76696  0.86194  0.15192  1.0000
  H   H1233     1.0  0.67037  0.67890  0.15777  1.0000
  S   S317      1.0  0.70590  0.73908  0.15893  1.0000
  C   C786      1.0  0.71871  0.91230  0.16536  1.0000
  H   H1234     1.0  0.91645  0.62942  0.20460  1.0000
  C   C787      1.0  0.78325  0.65521  0.17328  1.0000
  C   C788      1.0  0.77073  0.67823  0.18398  1.0000
  C   C789      1.0  0.74671  0.70399  0.17978  1.0000
  H   H1235     1.0  0.90481  0.53666  0.18440  1.0000
  C   C790      1.0  0.94270  0.87751  0.29865  1.0000
  H   H1236     1.0  0.77940  0.67600  0.19559  1.0000
  H   H1237     1.0  0.73700  0.72154  0.18812  1.0000
  H   H1238     1.0  0.71563  0.99528  0.24023  1.0000
  Fe  Fe159     1.0  0.81926  0.58202  0.16227  1.0000
  C   C791      1.0  0.90419  0.76886  0.31513  1.0000
  H   H1239     1.0  0.91892  0.86424  0.29744  1.0000
  H   H1240     1.0  0.74823  0.96255  0.24115  1.0000
  C   C792      1.0  0.77193  0.65823  0.15830  1.0000
  C   C793      1.0  0.98617  0.01925  0.30469  1.0000
  H   H1241     1.0  0.88676  0.01288  0.15632  1.0000
  H   H1242     1.0  0.55100  0.65981  0.18596  1.0000
  H   H1243     1.0  0.71569  0.89608  0.17643  1.0000
  H   H1244     1.0  0.00823  0.88141  0.30338  1.0000
  H   H1245     1.0  0.67184  0.91758  0.26060  1.0000
  C   C794      1.0  0.96589  0.86395  0.27292  1.0000
  C   C795      1.0  0.86318  0.02230  0.29542  1.0000
  H   H1246     1.0  0.87208  0.56718  0.21481  1.0000
  Fe  Fe160     1.0  0.85047  0.87175  0.29253  1.0000
  H   H1247     1.0  0.56018  0.53792  0.18625  1.0000
  H   H1248     1.0  0.99400  0.00343  0.26632  1.0000
  S   S318      1.0  0.86206  0.81604  0.30056  1.0000
  H   H1249     1.0  0.95297  0.60652  0.19631  1.0000
  H   H1250     1.0  0.99966  0.81403  0.28978  1.0000
  C   C796      1.0  0.91981  0.55060  0.19181  1.0000
  N   N78       1.0  0.70822  0.95714  0.26024  1.0000
  H   H1251     1.0  0.74761  0.91952  0.26483  1.0000
  H   H1252     1.0  0.67316  0.94892  0.24359  1.0000
  H   H1253     1.0  0.71312  0.91944  0.28014  1.0000
  H   H1254     1.0  0.63284  0.65395  0.16071  1.0000
  H   H1255     1.0  0.76958  0.92699  0.16825  1.0000
  C   C797      1.0  0.72908  0.93632  0.27122  1.0000
  H   H1256     1.0  0.74382  0.95257  0.27771  1.0000
  H   H1257     1.0  0.75713  0.79911  0.15322  1.0000
  H   H1258     1.0  0.77612  0.00432  0.27796  1.0000
  C   C798      1.0  0.53642  0.68217  0.18924  1.0000
  C   C799      1.0  0.74832  0.68421  0.15403  1.0000
  S   S319      1.0  0.83752  0.52959  0.17147  1.0000
  C   C800      1.0  0.73559  0.70704  0.16477  1.0000
  H   H1259     1.0  0.88542  0.59094  0.17140  1.0000
  C   C801      1.0  0.90158  0.60442  0.17845  1.0000
  H   H1260     1.0  0.96137  0.89083  0.26776  1.0000
  H   H1261     1.0  0.99971  0.90923  0.28610  1.0000
  C   C802      1.0  0.95746  0.99975  0.31016  1.0000
  H   H1262     1.0  0.94297  0.84932  0.27156  1.0000
  C   C803      1.0  0.92708  0.60340  0.20277  1.0000
  C   C804      1.0  0.76355  0.01381  0.30209  1.0000
  H   H1263     1.0  0.85323  0.56786  0.19668  1.0000
  H   H1264     1.0  0.89856  0.75266  0.30641  1.0000
  H   H1265     1.0  0.93885  0.90497  0.29441  1.0000
  C   C805      1.0  0.53462  0.74056  0.19602  1.0000
  H   H1266     1.0  0.66718  0.96415  0.27825  1.0000
  H   H1267     1.0  0.93013  0.58942  0.21456  1.0000
  S   S320      1.0  0.86388  0.91905  0.30275  1.0000
  S   S321      1.0  0.79822  0.89190  0.28730  1.0000
  C   C806      1.0  0.68434  0.97943  0.26918  1.0000
  H   H1268     1.0  0.95458  0.81094  0.29505  1.0000
  C   C807      1.0  0.94203  0.98138  0.29987  1.0000
  H   H1269     1.0  0.74649  0.99525  0.25415  1.0000
  C   C808      1.0  0.74908  0.92999  0.16077  1.0000
  H   H1270     1.0  0.85851  0.60703  0.20461  1.0000
  H   H1271     1.0  0.92010  0.96622  0.30423  1.0000
  H   H1272     1.0  0.70645  0.91691  0.24536  1.0000
  C   C809      1.0  0.95498  0.98293  0.28401  1.0000
  H   H1273     1.0  0.66811  0.99555  0.26129  1.0000
  N   N79       1.0  0.97225  0.86236  0.28964  1.0000
  C   C810      1.0  0.87079  0.58154  0.20297  1.0000
  H   H1274     1.0  0.92679  0.60828  0.17148  1.0000
  C   C811      1.0  0.97721  0.82627  0.29609  1.0000
  H   H1275     1.0  0.94593  0.87578  0.31143  1.0000
  H   H1276     1.0  0.92094  0.53451  0.20325  1.0000
  C   C812      1.0  0.88956  0.80196  0.31496  1.0000
  C   C813      1.0  0.98385  0.00219  0.27859  1.0000
  H   H1277     1.0  0.88930  0.63008  0.17964  1.0000
  C   C814      1.0  0.76479  0.02213  0.28578  1.0000
  H   H1278     1.0  0.83649  0.01372  0.29666  1.0000
  H   H1279     1.0  0.00723  0.58746  0.15918  1.0000
  C   C815      1.0  0.00209  0.56091  0.15844  1.0000
  H   H1280     1.0  0.98780  0.85311  0.26567  1.0000
  C   C816      1.0  0.97012  0.55197  0.15446  1.0000
  H   H1281     1.0  0.59795  0.70733  0.15574  1.0000
  H   H1282     1.0  0.63596  0.73166  0.15267  1.0000
  S   S322      1.0  0.77554  0.56320  0.15126  1.0000
  H   H1283     1.0  0.95092  0.57151  0.15198  1.0000
  H   H1284     1.0  0.98104  0.82396  0.30884  1.0000
  C   C817      1.0  0.65264  0.66522  0.15159  1.0000
  H   H1285     1.0  0.52178  0.57216  0.20418  1.0000
  H   H1286     1.0  0.87076  0.02248  0.30752  1.0000
  S   S323      1.0  0.52122  0.85361  0.44170  1.0000
  S   S324      1.0  0.61531  0.88478  0.44900  1.0000
  S   S325      1.0  0.98921  0.67324  0.33551  1.0000
  H   H1287     1.0  0.65459  0.97296  0.47571  1.0000
  S   S326      1.0  0.54710  0.92379  0.46473  1.0000
  H   H1288     1.0  0.56885  0.79167  0.36086  1.0000
  Fe  Fe161     1.0  0.56009  0.87304  0.45578  1.0000
  C   C818      1.0  0.89695  0.82279  0.32622  1.0000
  Fe  Fe162     1.0  0.60315  0.93357  0.46014  1.0000
  H   H1289     1.0  0.90303  0.53243  0.36381  1.0000
  H   H1290     1.0  0.83158  0.99107  0.47387  1.0000
  H   H1291     1.0  0.88177  0.72741  0.35261  1.0000
  Fe  Fe163     1.0  0.98543  0.63264  0.35642  1.0000
  H   H1292     1.0  0.52278  0.73946  0.39466  1.0000
  H   H1293     1.0  0.88535  0.84811  0.32635  1.0000
  C   C819      1.0  0.76843  0.96812  0.47455  1.0000
  C   C820      1.0  0.58435  0.57760  0.44652  1.0000
  H   H1294     1.0  0.55685  0.73908  0.37918  1.0000
  Fe  Fe164     1.0  0.98704  0.71105  0.35326  1.0000
  H   H1295     1.0  0.57086  0.59648  0.45389  1.0000
  S   S327      1.0  0.95882  0.76228  0.35286  1.0000
  H   H1296     1.0  0.57244  0.81532  0.37730  1.0000
  C   C821      1.0  0.87944  0.64754  0.37247  1.0000
  S   S328      1.0  0.94533  0.59145  0.35898  1.0000
  H   H1297     1.0  0.87227  0.71530  0.37336  1.0000
  S   S329      1.0  0.97908  0.67120  0.37415  1.0000
  H   H1298     1.0  0.52525  0.81484  0.39905  1.0000
  C   C822      1.0  0.92631  0.75672  0.32640  1.0000
  C   C823      1.0  0.95511  0.54733  0.35756  1.0000
  C   C824      1.0  0.65058  0.00785  0.45479  1.0000
  H   H1299     1.0  0.82794  0.65146  0.35431  1.0000
  H   H1300     1.0  0.59189  0.61822  0.41908  1.0000
  C   C825      1.0  0.89372  0.66327  0.34464  1.0000
  C   C826      1.0  0.91862  0.81043  0.33766  1.0000
  C   C827      1.0  0.93326  0.77736  0.33781  1.0000
  H   H1301     1.0  0.57340  0.54710  0.41198  1.0000
  C   C828      1.0  0.66382  0.99616  0.46892  1.0000
  C   C829      1.0  0.53189  0.56299  0.43720  1.0000
  H   H1302     1.0  0.92371  0.82640  0.34655  1.0000
  H   H1303     1.0  0.55312  0.60721  0.41206  1.0000
  H   H1304     1.0  0.86442  0.65384  0.38352  1.0000
  H   H1305     1.0  0.00879  0.55342  0.35097  1.0000
  S   S330      1.0  0.61878  0.98530  0.44766  1.0000
  H   H1306     1.0  0.54816  0.99520  0.43992  1.0000
  C   C830      1.0  0.55413  0.80667  0.36967  1.0000
  H   H1307     1.0  0.55178  0.62792  0.42968  1.0000
  C   C831      1.0  0.55795  0.79318  0.43914  1.0000
  C   C832      1.0  0.56242  0.75962  0.43499  1.0000
  H   H1308     1.0  0.74712  0.95005  0.47779  1.0000
  C   C833      1.0  0.56592  0.60843  0.42290  1.0000
  C   C834      1.0  0.98828  0.53551  0.35334  1.0000
  H   H1309     1.0  0.57868  0.80552  0.44335  1.0000
  H   H1310     1.0  0.58664  0.74628  0.43603  1.0000
  N   N80       1.0  0.87412  0.67354  0.35907  1.0000
  H   H1311     1.0  0.75743  0.99284  0.46948  1.0000
  C   C835      1.0  0.68914  0.01457  0.47433  1.0000
  H   H1312     1.0  0.56002  0.01945  0.46419  1.0000
  H   H1313     1.0  0.90672  0.64543  0.37472  1.0000
  C   C836      1.0  0.52697  0.81086  0.43752  1.0000
  H   H1314     1.0  0.54330  0.82987  0.36312  1.0000
  H   H1315     1.0  0.83288  0.69562  0.34662  1.0000
  C   C837      1.0  0.88585  0.70699  0.36235  1.0000
  C   C838      1.0  0.81300  0.99867  0.48361  1.0000
  N   N81       1.0  0.56698  0.57466  0.43235  1.0000
  S   S331      1.0  0.54300  0.70223  0.42326  1.0000
  H   H1316     1.0  0.94727  0.99869  0.32241  1.0000
  H   H1317     1.0  0.56043  0.76260  0.39570  1.0000
  H   H1318     1.0  0.61236  0.55754  0.41898  1.0000
  C   C839      1.0  0.54537  0.02189  0.43423  1.0000
  H   H1319     1.0  0.52799  0.02155  0.42489  1.0000
  C   C840      1.0  0.83758  0.67635  0.35675  1.0000
  Fe  Fe165     1.0  0.62271  0.86231  0.47374  1.0000
  H   H1320     1.0  0.58549  0.55263  0.45399  1.0000
  C   C841      1.0  0.54256  0.75554  0.38749  1.0000
  H   H1321     1.0  0.93760  0.73128  0.32637  1.0000
  H   H1322     1.0  0.91355  0.70601  0.36375  1.0000
  H   H1323     1.0  0.61091  0.58634  0.44330  1.0000
  H   H1324     1.0  0.88556  0.63816  0.34174  1.0000
  C   C842      1.0  0.53588  0.74348  0.42935  1.0000
  H   H1325     1.0  0.82202  0.68433  0.36737  1.0000
  H   H1326     1.0  0.87230  0.62162  0.37012  1.0000
  N   N82       1.0  0.52710  0.78607  0.37909  1.0000
  C   C843      1.0  0.58575  0.54966  0.42282  1.0000
  H   H1327     1.0  0.92120  0.66010  0.34620  1.0000
  H   H1328     1.0  0.53166  0.53731  0.44412  1.0000
  H   H1329     1.0  0.89114  0.68261  0.33430  1.0000
  H   H1330     1.0  0.01981  0.69790  0.43924  1.0000
  S   S332      1.0  0.56852  0.84639  0.47948  1.0000
  S   S333      1.0  0.66266  0.82259  0.48059  1.0000
  H   H1331     1.0  0.78570  0.95790  0.46498  1.0000
  C   C844      1.0  0.73206  0.74549  0.62789  1.0000
  Fe  Fe166     1.0  0.64120  0.61306  0.56388  1.0000
  S   S334      1.0  0.68926  0.60478  0.57559  1.0000
  S   S335      1.0  0.63554  0.66367  0.54909  1.0000
  Fe  Fe167     1.0  0.55951  0.89780  0.48803  1.0000
  S   S336      1.0  0.60727  0.59469  0.58560  1.0000
  Fe  Fe168     1.0  0.76851  0.77900  0.57058  1.0000
  S   S337      1.0  0.81417  0.78866  0.58262  1.0000
  S   S338      1.0  0.73647  0.73768  0.58384  1.0000
  Fe  Fe169     1.0  0.78283  0.83611  0.54437  1.0000
  S   S339      1.0  0.83003  0.85015  0.55426  1.0000
  S   S340      1.0  0.76595  0.87208  0.52410  1.0000
  Fe  Fe170     1.0  0.84087  0.79345  0.55817  1.0000
  S   S341      1.0  0.89422  0.77295  0.55204  1.0000
  Fe  Fe171     1.0  0.79864  0.84382  0.57768  1.0000
  S   S342      1.0  0.79885  0.88224  0.59525  1.0000
  S   S343      1.0  0.79609  0.77970  0.54628  1.0000
  S   S344      1.0  0.75062  0.83364  0.56759  1.0000
  Fe  Fe172     1.0  0.65224  0.96163  0.64097  1.0000
  H   H1332     1.0  0.74593  0.76112  0.63500  1.0000
  S   S345      1.0  0.65105  0.93266  0.61999  1.0000
  H   H1333     1.0  0.54220  0.97022  0.62239  1.0000
  C   C845      1.0  0.56939  0.97240  0.61753  1.0000
  S   S346      1.0  0.66002  0.59909  0.62086  1.0000
  H   H1334     1.0  0.73960  0.71826  0.63092  1.0000
  H   H1335     1.0  0.61918  0.98496  0.59410  1.0000
  S   S347      1.0  0.95096  0.62178  0.56951  1.0000
  C   C846      1.0  0.89695  0.74263  0.62355  1.0000
  H   H1336     1.0  0.70831  0.78493  0.50056  1.0000
  H   H1337     1.0  0.74169  0.96572  0.50468  1.0000
  S   S348      1.0  0.66184  0.52896  0.58971  1.0000
  C   C847      1.0  0.73742  0.85745  0.51218  1.0000
  C   C848      1.0  0.69682  0.87098  0.49289  1.0000
  C   C849      1.0  0.75624  0.63382  0.61959  1.0000
  C   C850      1.0  0.73331  0.82254  0.51144  1.0000
  H   H1338     1.0  0.74763  0.80382  0.51847  1.0000
  C   C851      1.0  0.75751  0.89648  0.60162  1.0000
  C   C852      1.0  0.75225  0.92951  0.60616  1.0000
  C   C853      1.0  0.71957  0.94073  0.61186  1.0000
  C   C854      1.0  0.69199  0.91906  0.61281  1.0000
  C   C855      1.0  0.69712  0.88624  0.60804  1.0000
  C   C856      1.0  0.72989  0.87482  0.60263  1.0000
  H   H1339     1.0  0.77343  0.94651  0.60520  1.0000
  H   H1340     1.0  0.71570  0.96620  0.61543  1.0000
  H   H1341     1.0  0.67584  0.86942  0.60880  1.0000
  H   H1342     1.0  0.73389  0.84905  0.59951  1.0000
  C   C857      1.0  0.90829  0.73030  0.55678  1.0000
  C   C858      1.0  0.88815  0.70628  0.56655  1.0000
  C   C859      1.0  0.90116  0.67282  0.57031  1.0000
  C   C860      1.0  0.93429  0.66333  0.56431  1.0000
  C   C861      1.0  0.95400  0.68726  0.55439  1.0000
  C   C862      1.0  0.94112  0.72057  0.55072  1.0000
  H   H1343     1.0  0.86289  0.71370  0.57134  1.0000
  H   H1344     1.0  0.88575  0.65437  0.57796  1.0000
  H   H1345     1.0  0.97930  0.68023  0.54954  1.0000
  H   H1346     1.0  0.95676  0.73897  0.54311  1.0000
  C   C863      1.0  0.65728  0.69108  0.55891  1.0000
  C   C864      1.0  0.67697  0.71753  0.55065  1.0000
  C   C865      1.0  0.70026  0.73386  0.55843  1.0000
  C   C866      1.0  0.70392  0.72309  0.57429  1.0000
  C   C867      1.0  0.68296  0.69794  0.58257  1.0000
  C   C868      1.0  0.65914  0.68266  0.57499  1.0000
  H   H1347     1.0  0.67577  0.72383  0.53812  1.0000
  H   H1348     1.0  0.71654  0.75333  0.55199  1.0000
  H   H1349     1.0  0.68616  0.68878  0.59469  1.0000
  H   H1350     1.0  0.64354  0.66271  0.58148  1.0000
  H   H1351     1.0  0.55940  0.98738  0.58710  1.0000
  H   H1352     1.0  0.77954  0.63424  0.61174  1.0000
  H   H1353     1.0  0.72779  0.60877  0.60421  1.0000
  H   H1354     1.0  0.69432  0.79542  0.61373  1.0000
  N   N83       1.0  0.61056  0.80734  0.52753  1.0000
  C   C869      1.0  0.61928  0.79491  0.54353  1.0000
  C   C870      1.0  0.57333  0.81310  0.52778  1.0000
  C   C871      1.0  0.62187  0.78150  0.51672  1.0000
  C   C872      1.0  0.62780  0.83987  0.52202  1.0000
  H   H1355     1.0  0.64728  0.79051  0.54367  1.0000
  H   H1356     1.0  0.60701  0.77015  0.54801  1.0000
  H   H1357     1.0  0.61107  0.81367  0.55204  1.0000
  C   C873      1.0  0.69260  0.83617  0.49212  1.0000
  H   H1358     1.0  0.55940  0.78908  0.53175  1.0000
  H   H1359     1.0  0.77521  0.98723  0.51171  1.0000
  H   H1360     1.0  0.61489  0.78951  0.50460  1.0000
  H   H1361     1.0  0.61027  0.75625  0.52079  1.0000
  H   H1362     1.0  0.65000  0.77751  0.51575  1.0000
  H   H1363     1.0  0.62328  0.84898  0.50964  1.0000
  H   H1364     1.0  0.65583  0.83700  0.52238  1.0000
  H   H1365     1.0  0.61860  0.86050  0.52939  1.0000
  H   H1366     1.0  0.91187  0.54887  0.56836  1.0000
  C   C874      1.0  0.69625  0.63179  0.63997  1.0000
  S   S349      1.0  0.52796  0.89826  0.51133  1.0000
  H   H1367     1.0  0.80664  0.93287  0.62794  1.0000
  H   H1368     1.0  0.90646  0.67077  0.60477  1.0000
  H   H1369     1.0  0.57632  0.95027  0.61071  1.0000
  Fe  Fe173     1.0  0.65613  0.58268  0.59665  1.0000
  H   H1370     1.0  0.82236  0.93079  0.48485  1.0000
  N   N84       1.0  0.78030  0.65236  0.55708  1.0000
  C   C875      1.0  0.79017  0.68847  0.55345  1.0000
  C   C876      1.0  0.76994  0.64508  0.57416  1.0000
  C   C877      1.0  0.80953  0.62976  0.55253  1.0000
  C   C878      1.0  0.75155  0.64608  0.54819  1.0000
  H   H1371     1.0  0.79854  0.69492  0.54071  1.0000
  H   H1372     1.0  0.81137  0.69440  0.56016  1.0000
  H   H1373     1.0  0.76851  0.70610  0.55658  1.0000
  H   H1374     1.0  0.79064  0.65046  0.58127  1.0000
  H   H1375     1.0  0.74742  0.66112  0.57797  1.0000
  H   H1376     1.0  0.76299  0.61784  0.57737  1.0000
  H   H1377     1.0  0.80274  0.60228  0.55512  1.0000
  H   H1378     1.0  0.83171  0.63392  0.55900  1.0000
  H   H1379     1.0  0.81793  0.63455  0.53970  1.0000
  H   H1380     1.0  0.75785  0.65278  0.53530  1.0000
  H   H1381     1.0  0.72845  0.66148  0.55188  1.0000
  H   H1382     1.0  0.74443  0.61868  0.55007  1.0000
  C   C879      1.0  0.71916  0.88156  0.50287  1.0000
  C   C880      1.0  0.80287  0.93975  0.49392  1.0000
  N   N85       1.0  0.69481  0.75101  0.63078  1.0000
  H   H1383     1.0  0.64933  0.73140  0.62375  1.0000
  C   C881      1.0  0.67747  0.72967  0.62116  1.0000
  C   C882      1.0  0.71120  0.81193  0.50126  1.0000
  H   H1384     1.0  0.86222  0.69422  0.64265  1.0000
  H   H1385     1.0  0.81547  0.94158  0.50477  1.0000
  H   H1386     1.0  0.75035  0.00952  0.49730  1.0000
  H   H1387     1.0  0.83355  0.72414  0.62033  1.0000
  H   H1388     1.0  0.78382  0.91929  0.49689  1.0000
  Fe  Fe174     1.0  0.00396  0.61054  0.55776  1.0000
  H   H1389     1.0  0.92905  0.56333  0.54872  1.0000
  C   C883      1.0  0.88203  0.68487  0.63382  1.0000
  C   C884      1.0  0.69692  0.61819  0.62550  1.0000
  H   H1390     1.0  0.92115  0.74012  0.62917  1.0000
  H   H1391     1.0  0.84534  0.68911  0.60919  1.0000
  H   H1392     1.0  0.74140  0.75259  0.61530  1.0000
  H   H1393     1.0  0.87364  0.65959  0.63122  1.0000
  S   S350      1.0  0.74330  0.54029  0.55476  1.0000
  H   H1394     1.0  0.62902  0.00430  0.61079  1.0000
  H   H1395     1.0  0.68540  0.70219  0.62326  1.0000
  H   H1396     1.0  0.72202  0.90852  0.50348  1.0000
  N   N86       1.0  0.88662  0.70934  0.61941  1.0000
  C   C885      1.0  0.85423  0.71387  0.61217  1.0000
  S   S351      1.0  0.64579  0.56249  0.55419  1.0000
  C   C886      1.0  0.91329  0.69599  0.60809  1.0000
  C   C887      1.0  0.90773  0.54889  0.55573  1.0000
  H   H1397     1.0  0.87747  0.75342  0.63211  1.0000
  C   C888      1.0  0.72697  0.61951  0.61526  1.0000
  H   H1398     1.0  0.56611  0.82285  0.51586  1.0000
  H   H1399     1.0  0.82739  0.00266  0.49367  1.0000
  H   H1400     1.0  0.68354  0.73797  0.60841  1.0000
  H   H1401     1.0  0.69926  0.80434  0.63330  1.0000
  H   H1402     1.0  0.58500  0.96948  0.62764  1.0000
  H   H1403     1.0  0.90064  0.76177  0.61296  1.0000
  H   H1404     1.0  0.91725  0.71372  0.59700  1.0000
  H   H1405     1.0  0.53653  0.56629  0.58402  1.0000
  C   C889      1.0  0.75562  0.64713  0.63411  1.0000
  S   S352      1.0  0.61436  0.91182  0.48443  1.0000
  H   H1406     1.0  0.85686  0.73188  0.60116  1.0000
  H   H1407     1.0  0.90593  0.68075  0.63961  1.0000
  Fe  Fe175     1.0  0.69169  0.55260  0.56756  1.0000
  H   H1408     1.0  0.65837  0.79282  0.62856  1.0000
  C   C890      1.0  0.81471  0.90938  0.63523  1.0000
  H   H1409     1.0  0.01347  0.53567  0.51464  1.0000
  C   C891      1.0  0.55393  0.00853  0.59466  1.0000
  C   C892      1.0  0.68620  0.78748  0.62641  1.0000
  N   N87       1.0  0.78668  0.97268  0.48829  1.0000
  H   H1410     1.0  0.68322  0.88980  0.48564  1.0000
  H   H1411     1.0  0.93818  0.69245  0.61308  1.0000
  H   H1412     1.0  0.56384  0.83255  0.53577  1.0000
  S   S353      1.0  0.00754  0.59326  0.53366  1.0000
  C   C893      1.0  0.76238  0.98429  0.50104  1.0000
  H   H1413     1.0  0.88376  0.56368  0.55377  1.0000
  H   H1414     1.0  0.74675  0.92020  0.63872  1.0000
  H   H1415     1.0  0.75658  0.87545  0.63799  1.0000
  Fe  Fe176     1.0  0.61516  0.54297  0.57694  1.0000
  S   S354      1.0  0.79304  0.66450  0.63918  1.0000
  N   N88       1.0  0.57571  0.00534  0.60772  1.0000
  H   H1416     1.0  0.67315  0.63059  0.64799  1.0000
  C   C894      1.0  0.61191  0.00654  0.60124  1.0000
  H   H1417     1.0  0.81547  0.88802  0.62769  1.0000
  S   S355      1.0  0.65376  0.01860  0.64042  1.0000
  H   H1418     1.0  0.52643  0.00770  0.59917  1.0000
  C   C895      1.0  0.68355  0.74129  0.64761  1.0000
  C   C896      1.0  0.72544  0.64633  0.64424  1.0000
  H   H1419     1.0  0.84109  0.91300  0.63797  1.0000
  H   H1420     1.0  0.65559  0.74519  0.65023  1.0000
  C   C897      1.0  0.75679  0.89693  0.64539  1.0000
  H   H1421     1.0  0.69892  0.00540  0.48533  1.0000
  H   H1422     1.0  0.92252  0.52877  0.52688  1.0000
  H   H1423     1.0  0.87715  0.52852  0.53182  1.0000
  H   H1424     1.0  0.68297  0.85085  0.65034  1.0000
  N   N89       1.0  0.79114  0.90230  0.64971  1.0000
  S   S356      1.0  0.96722  0.87647  0.69082  1.0000
  C   C898      1.0  0.93615  0.96350  0.69069  1.0000
  Fe  Fe177     1.0  0.84161  0.73860  0.67388  1.0000
  S   S357      1.0  0.80050  0.76165  0.68989  1.0000
  S   S358      1.0  0.89853  0.74749  0.66997  1.0000
  Fe  Fe178     1.0  0.79121  0.69503  0.66013  1.0000
  S   S359      1.0  0.74592  0.71379  0.67519  1.0000
  H   H1425     1.0  0.80413  0.84861  0.65226  1.0000
  Fe  Fe179     1.0  0.76934  0.76522  0.66944  1.0000
  H   H1426     1.0  0.72479  0.65609  0.65554  1.0000
  Fe  Fe180     1.0  0.78021  0.70814  0.69469  1.0000
  S   S360      1.0  0.76468  0.68930  0.72030  1.0000
  H   H1427     1.0  0.57945  0.75135  0.76545  1.0000
  S   S361      1.0  0.82391  0.68463  0.68010  1.0000
  H   H1428     1.0  0.89741  0.85942  0.69066  1.0000
  S   S362      1.0  0.64463  0.90758  0.69646  1.0000
  S   S363      1.0  0.56109  0.63947  0.77458  1.0000
  Fe  Fe181     1.0  0.59600  0.55396  0.79510  1.0000
  S   S364      1.0  0.57100  0.55736  0.77280  1.0000
  Fe  Fe182     1.0  0.60213  0.60392  0.76527  1.0000
  S   S365      1.0  0.62682  0.61070  0.74024  1.0000
  S   S366      1.0  0.69032  0.95148  0.65832  1.0000
  C   C899      1.0  0.59536  0.73310  0.77258  1.0000
  S   S367      1.0  0.63021  0.59829  0.78674  1.0000
  C   C900      1.0  0.70892  0.83005  0.67026  1.0000
  H   H1429     1.0  0.63547  0.67655  0.77704  1.0000
  H   H1430     1.0  0.61006  0.68515  0.75220  1.0000
  C   C901      1.0  0.66585  0.87399  0.68732  1.0000
  C   C902      1.0  0.68902  0.85203  0.69503  1.0000
  C   C903      1.0  0.71067  0.82994  0.68646  1.0000
  Fe  Fe183     1.0  0.61124  0.01121  0.66016  1.0000
  H   H1431     1.0  0.69164  0.85358  0.70733  1.0000
  H   H1432     1.0  0.72984  0.81433  0.69218  1.0000
  C   C904      1.0  0.72621  0.66763  0.72566  1.0000
  C   C905      1.0  0.71514  0.65942  0.74170  1.0000
  C   C906      1.0  0.68458  0.64212  0.74635  1.0000
  C   C907      1.0  0.66503  0.63278  0.73497  1.0000
  C   C908      1.0  0.67621  0.64077  0.71896  1.0000
  C   C909      1.0  0.70662  0.65827  0.71431  1.0000
  H   H1433     1.0  0.73039  0.66640  0.75052  1.0000
  H   H1434     1.0  0.67631  0.63587  0.75871  1.0000
  H   H1435     1.0  0.66127  0.63346  0.71009  1.0000
  H   H1436     1.0  0.71506  0.66418  0.70194  1.0000
  H   H1437     1.0  0.91878  0.94638  0.68606  1.0000
  Fe  Fe184     1.0  0.64599  0.95014  0.67675  1.0000
  S   S368      1.0  0.73993  0.80931  0.65834  1.0000
  C   C910      1.0  0.56359  0.97389  0.69707  1.0000
  H   H1438     1.0  0.95250  0.94687  0.69834  1.0000
  N   N90       1.0  0.62853  0.72550  0.76378  1.0000
  H   H1439     1.0  0.99295  0.94254  0.67416  1.0000
  H   H1440     1.0  0.64481  0.88878  0.66539  1.0000
  C   C911      1.0  0.98522  0.96633  0.72853  1.0000
  C   C912      1.0  0.95283  0.98092  0.72687  1.0000
  N   N91       1.0  0.55110  0.99981  0.70763  1.0000
  H   H1441     1.0  0.98846  0.93888  0.73055  1.0000
  H   H1442     1.0  0.93121  0.96454  0.72753  1.0000
  C   C913      1.0  0.94860  0.84089  0.68453  1.0000
  C   C914      1.0  0.93999  0.77820  0.71956  1.0000
  C   C915      1.0  0.95269  0.78605  0.67392  1.0000
  C   C916      1.0  0.91705  0.78386  0.67558  1.0000
  C   C917      1.0  0.89720  0.81046  0.68162  1.0000
  C   C918      1.0  0.91294  0.83899  0.68596  1.0000
  H   H1443     1.0  0.94913  0.02289  0.65884  1.0000
  H   H1444     1.0  0.89021  0.00486  0.77653  1.0000
  H   H1445     1.0  0.86974  0.80905  0.68292  1.0000
  H   H1446     1.0  0.93331  0.80504  0.71515  1.0000
  S   S369      1.0  0.55539  0.58601  0.80732  1.0000
  H   H1447     1.0  0.98148  0.72263  0.72230  1.0000
  C   C919      1.0  0.64856  0.70130  0.77383  1.0000
  H   H1448     1.0  0.68175  0.55295  0.73348  1.0000
  H   H1449     1.0  0.95533  0.79023  0.74833  1.0000
  C   C920      1.0  0.90968  0.02086  0.76907  1.0000
  H   H1450     1.0  0.67419  0.69579  0.76781  1.0000
  H   H1451     1.0  0.78508  0.86459  0.66991  1.0000
  C   C921      1.0  0.62296  0.71012  0.74936  1.0000
  N   N92       1.0  0.95690  0.98377  0.67782  1.0000
  H   H1452     1.0  0.96226  0.73079  0.74150  1.0000
  S   S370      1.0  0.81202  0.74719  0.65298  1.0000
  H   H1453     1.0  0.54604  0.95210  0.69814  1.0000
  H   H1454     1.0  0.73858  0.89103  0.65603  1.0000
  H   H1455     1.0  0.72038  0.55463  0.76219  1.0000
  C   C922      1.0  0.66280  0.87219  0.67139  1.0000
  C   C923      1.0  0.68427  0.85038  0.66288  1.0000
  Fe  Fe185     1.0  0.58674  0.63101  0.79677  1.0000
  H   H1456     1.0  0.93429  0.01642  0.77425  1.0000
  C   C924      1.0  0.00882  0.02287  0.72533  1.0000
  C   C925      1.0  0.69281  0.54877  0.76386  1.0000
  H   H1457     1.0  0.52930  0.96255  0.72584  1.0000
  H   H1458     1.0  0.77178  0.92731  0.66998  1.0000
  H   H1459     1.0  0.65214  0.71149  0.78511  1.0000
  H   H1460     1.0  0.56592  0.98513  0.68455  1.0000
  H   H1461     1.0  0.64746  0.70520  0.74217  1.0000
  H   H1462     1.0  0.99573  0.81413  0.70787  1.0000
  H   H1463     1.0  0.68545  0.54278  0.77671  1.0000
  H   H1464     1.0  0.91962  0.76928  0.72894  1.0000
  H   H1465     1.0  0.63301  0.77637  0.75177  1.0000
  N   N93       1.0  0.97388  0.77583  0.72546  1.0000
  H   H1466     1.0  0.93906  0.76252  0.70960  1.0000
  C   C926      1.0  0.80289  0.87113  0.65910  1.0000
  H   H1467     1.0  0.72336  0.53454  0.73583  1.0000
  C   C927      1.0  0.01330  0.98723  0.72769  1.0000
  S   S371      1.0  0.59568  0.67757  0.80888  1.0000
  H   H1468     1.0  0.65207  0.76972  0.76999  1.0000
  H   H1469     1.0  0.99980  0.79773  0.74257  1.0000
  H   H1470     1.0  0.58053  0.70952  0.77616  1.0000
  H   H1471     1.0  0.96773  0.02323  0.69176  1.0000
  C   C928      1.0  0.98146  0.74009  0.73164  1.0000
  C   C929      1.0  0.64737  0.75750  0.75938  1.0000
  C   C930      1.0  0.96842  0.81442  0.67838  1.0000
  H   H1472     1.0  0.99588  0.81596  0.67691  1.0000
  H   H1473     1.0  0.96820  0.76572  0.66911  1.0000
  H   H1474     1.0  0.82862  0.87419  0.66278  1.0000
  S   S372      1.0  0.60773  0.95495  0.65932  1.0000
  C   C931      1.0  0.00002  0.78692  0.71246  1.0000
  H   H1475     1.0  0.99184  0.97464  0.65761  1.0000
  H   H1476     1.0  0.58909  0.96312  0.69972  1.0000
  H   H1477     1.0  0.96813  0.82529  0.73390  1.0000
  C   C932      1.0  0.97425  0.79820  0.73815  1.0000
  H   H1478     1.0  0.59867  0.74431  0.78365  1.0000
  H   H1479     1.0  0.60691  0.72711  0.74174  1.0000
  H   H1480     1.0  0.54214  0.97665  0.65390  1.0000
  H   H1481     1.0  0.99843  0.01857  0.67517  1.0000
  H   H1482     1.0  0.63346  0.53665  0.75295  1.0000
  H   H1483     1.0  0.81521  0.93668  0.66265  1.0000
  H   H1484     1.0  0.67854  0.57245  0.75986  1.0000
  Fe  Fe186     1.0  0.68908  0.00811  0.65951  1.0000
  S   S373      1.0  0.64676  0.00609  0.67933  1.0000
  H   H1485     1.0  0.00696  0.73765  0.73614  1.0000
  H   H1486     1.0  0.67257  0.75265  0.75273  1.0000
  H   H1487     1.0  0.92025  0.98031  0.69830  1.0000
  C   C933      1.0  0.54770  0.98372  0.72411  1.0000
  C   C934      1.0  0.78981  0.93170  0.65909  1.0000
  Fe  Fe187     1.0  0.53270  0.59215  0.78434  1.0000
  H   H1488     1.0  0.99996  0.77129  0.70245  1.0000
  H   H1489     1.0  0.95830  0.94421  0.66237  1.0000
  C   C935      1.0  0.97582  0.96038  0.66748  1.0000
  H   H1490     1.0  0.60110  0.01835  0.70904  1.0000
  H   H1491     1.0  0.57256  0.97267  0.72755  1.0000
  H   H1492     1.0  0.67109  0.52956  0.80619  1.0000
  H   H1493     1.0  0.69602  0.75683  0.65528  1.0000
  H   H1494     1.0  0.52507  0.67267  0.80340  1.0000
  H   H1495     1.0  0.99753  0.98768  0.69229  1.0000
  H   H1496     1.0  0.78078  0.95562  0.65233  1.0000
  C   C936      1.0  0.94853  0.01638  0.72380  1.0000
  C   C937      1.0  0.98124  0.00417  0.68454  1.0000
  H   H1497     1.0  0.91558  0.99251  0.66338  1.0000
  H   H1498     1.0  0.53866  0.00258  0.73246  1.0000
  C   C938      1.0  0.93433  0.00701  0.66861  1.0000
  C   C939      1.0  0.69566  0.52939  0.73813  1.0000
  C   C940      1.0  0.55951  0.70430  0.81273  1.0000
  C   C941      1.0  0.52780  0.69599  0.80866  1.0000
  H   H1499     1.0  0.91314  0.01127  0.75725  1.0000
  H   H1500     1.0  0.68981  0.71390  0.65120  1.0000
  S   S374      1.0  0.74384  0.02373  0.65906  1.0000
  N   N94       1.0  0.00522  0.57497  0.96388  1.0000
  Fe  Fe188     1.0  0.99500  0.88857  0.91124  1.0000
  S   S375      1.0  0.97796  0.84074  0.90258  1.0000
  S   S376      1.0  0.96123  0.93632  0.90726  1.0000
  H   H1501     1.0  0.72424  0.58231  0.92731  1.0000
  Fe  Fe189     1.0  0.99337  0.81307  0.92518  1.0000
  S   S377      1.0  0.95829  0.77811  0.94194  1.0000
  H   H1502     1.0  0.01853  0.94623  0.83709  1.0000
  H   H1503     1.0  0.58704  0.74121  0.82281  1.0000
  H   H1504     1.0  0.98274  0.91939  0.83683  1.0000
  C   C942      1.0  0.71355  0.55661  0.93132  1.0000
  Fe  Fe190     1.0  0.81761  0.58925  0.96936  1.0000
  S   S378      1.0  0.83872  0.57958  0.94480  1.0000
  S   S379      1.0  0.00641  0.86162  0.93465  1.0000
  H   H1505     1.0  0.95643  0.60114  0.96528  1.0000
  S   S380      1.0  0.90266  0.54031  0.96095  1.0000
  C   C943      1.0  0.75428  0.54522  0.95033  1.0000
  Fe  Fe191     1.0  0.88882  0.59430  0.95202  1.0000
  S   S381      1.0  0.93065  0.62211  0.93596  1.0000
  C   C944      1.0  0.97592  0.89799  0.86777  1.0000
  H   H1506     1.0  0.99312  0.87491  0.86791  1.0000
  S   S382      1.0  0.86664  0.60834  0.97571  1.0000
  H   H1507     1.0  0.75839  0.53791  0.96290  1.0000
  H   H1508     1.0  0.92783  0.00163  0.90114  1.0000
  H   H1509     1.0  0.91840  0.02057  0.94736  1.0000
  C   C945      1.0  0.97492  0.58845  0.97311  1.0000
  H   H1510     1.0  0.67204  0.57296  0.95661  1.0000
  H   H1511     1.0  0.54010  0.99952  0.84205  1.0000
  N   N95       1.0  0.71770  0.54632  0.94811  1.0000
  H   H1512     1.0  0.71008  0.59758  0.95450  1.0000
  H   H1513     1.0  0.98201  0.52763  0.96141  1.0000
  H   H1514     1.0  0.70304  0.56478  0.97056  1.0000
  C   C946      1.0  0.97686  0.97829  0.90504  1.0000
  C   C947      1.0  0.56257  0.73464  0.81961  1.0000
  C   C948      1.0  0.01115  0.98436  0.90594  1.0000
  S   S383      1.0  0.76441  0.60987  0.97534  1.0000
  C   C949      1.0  0.99474  0.54955  0.95405  1.0000
  C   C950      1.0  0.95115  0.73484  0.93986  1.0000
  C   C951      1.0  0.92641  0.71727  0.95041  1.0000
  C   C952      1.0  0.91978  0.68284  0.94925  1.0000
  C   C953      1.0  0.93803  0.66557  0.93757  1.0000
  C   C954      1.0  0.96304  0.68298  0.92708  1.0000
  C   C955      1.0  0.96952  0.71757  0.92817  1.0000
  H   H1515     1.0  0.91211  0.73050  0.95946  1.0000
  H   H1516     1.0  0.90042  0.66983  0.95735  1.0000
  H   H1517     1.0  0.97724  0.66980  0.91799  1.0000
  H   H1518     1.0  0.98864  0.73087  0.92000  1.0000
  H   H1519     1.0  0.76888  0.52655  0.94321  1.0000
  C   C956      1.0  0.95437  0.00618  0.90197  1.0000
  C   C957      1.0  0.97015  0.95884  0.86059  1.0000
  C   C958      1.0  0.00475  0.92368  0.84335  1.0000
  H   H1520     1.0  0.95347  0.89247  0.86180  1.0000
  H   H1521     1.0  0.01611  0.93801  0.88063  1.0000
  C   C959      1.0  0.53401  0.75653  0.82242  1.0000
  H   H1522     1.0  0.76567  0.57075  0.94684  1.0000
  S   S384      1.0  0.82618  0.53530  0.97995  1.0000
  H   H1523     1.0  0.94708  0.95555  0.85462  1.0000
  H   H1524     1.0  0.98272  0.98266  0.85498  1.0000
  H   H1525     1.0  0.00471  0.61623  0.94520  1.0000
  H   H1526     1.0  0.96137  0.56773  0.98098  1.0000
  H   H1527     1.0  0.98194  0.60778  0.98062  1.0000
  N   N96       1.0  0.99359  0.92876  0.85992  1.0000
  Fe  Fe192     1.0  0.85058  0.52668  0.95593  1.0000
  H   H1528     1.0  0.53653  0.77983  0.82773  1.0000
  H   H1529     1.0  0.01709  0.53907  0.94688  1.0000
  H   H1530     1.0  0.96133  0.96300  0.87303  1.0000
  H   H1531     1.0  0.72695  0.53818  0.92369  1.0000
  C   C960      1.0  0.69979  0.57146  0.95784  1.0000
  H   H1532     1.0  0.96656  0.90117  0.88021  1.0000
  H   H1533     1.0  0.97670  0.56118  0.94571  1.0000
  H   H1534     1.0  0.68624  0.55777  0.92918  1.0000
  H   H1535     1.0  0.81259  0.65728  0.98316  1.0000
  H   H1536     1.0  0.01704  0.53697  0.98272  1.0000
