data_image0
_chemical_formula_structural       FeS2FeS2FeSFeS3FeS2FeS2FeSFeS3FeS2FeS2FeSFeS3FeS2FeS2FeSFeS3FeS2FeS2FeSFeS3FeS2FeS2FeSFeS3FeS2FeS2FeSFeS3FeS2FeS2FeSFeS3FeS2FeS2FeSFeS3FeS2FeS2FeSFeS3FeS2FeS2FeSFeS3FeS2FeS2FeSFeS3FeS2FeS2FeSFeS3FeS2FeS2FeSFeS3FeS2FeS2FeSFeS3FeS2FeS2FeSFeS3C6H4C6H4C6H4C6H4C6H4C6H4C6H4C6H4C6H4C6H4C6H4C6H4C6H4C6H4C6H4C6H4C6H4C6H4C6H4C6H4C6H4C6H4C6H4C6H4C6H4C6H4C6H4C6H4C6H4C6H4C6H4C6H4FeS2FeS2FeSFeS3FeS2FeS2FeSFeS3FeS2FeS2FeSFeS3FeS2FeS2FeSFeS3FeS2FeS2FeSFeS3FeS2FeS2FeSFeS3FeS2FeS2FeSFeS3FeS2FeS2FeSFeS3FeS2FeS2FeSFeS3FeS2FeS2FeSFeS3FeS2FeS2FeSFeS3FeS2FeS2FeSFeS3FeS2FeS2FeSFeS3FeS2FeS2FeSFeS3FeS2FeS2FeSFeS3FeS2FeS2FeSFeS3C6H4C6H4C6H4C6H4C6H4C6H4C6H4C6H4C6H4C6H4C6H4C6H4C6H4C6H4C6H4C6H4C6H4C6H4C6H4C6H4C6H4C6H4C6H4C6H4C6H4C6H4C6H4C6H4C6H4C6H4C6H4C6H4NC4H12NC4H12NC4H12NC4H12NC4H12NC4H12NC4H12NC4H12NC4H12NC4H12NC4H12NC4H12NC4H12NC4H12NC4H12NC4H12NC4H12NC4H12NC4H12NC4H12NC4H12NC4H12NC4H12NC4H12NC4H12NC4H12NC4H12NC4H12NC4H12NC4H12NC4H12NC4H12NC4H12NC4H12NC4H12NC4H12NC4H12NC4H12NC4H12NC4H12NC4H12NC4H12NC4H12NC4H12NC4H12NC4H12NC4H12NC4H12NC4H12NC4H12NC4H12NC4H12NC4H12NC4H12NC4H12NC4H12NC4H12NC4H12NC4H12NC4H12NC4H12NC4H12NC4H12NC4H12
_chemical_formula_sum              "Fe128 S256 C640 H1024 N64"
_cell_length_a       27.015220709567394
_cell_length_b       30.149486968412827
_cell_length_c       43.90742638352403
_cell_angle_alpha    90.06644087054919
_cell_angle_beta     90.56118291507565
_cell_angle_gamma    89.02691065268473

_space_group_name_H-M_alt    "P 1"
_space_group_IT_number       1

loop_
  _space_group_symop_operation_xyz
  'x, y, z'

loop_
  _atom_site_type_symbol
  _atom_site_label
  _atom_site_symmetry_multiplicity
  _atom_site_fract_x
  _atom_site_fract_y
  _atom_site_fract_z
  _atom_site_occupancy
  Fe  Fe1       1.0  0.07801553814931506  0.33251089358783853  0.00945292340187298  1.0000
  S   S1        1.0  0.06098298123748247  0.3560268817050329  0.056752019696243175  1.0000
  S   S2        1.0  0.08731417651831075  0.42170830391643993  0.5026209599582376  1.0000
  Fe  Fe2       1.0  0.10887370515426631  0.24113116752878647  0.029601466365604102  1.0000
  S   S3        1.0  0.09634020908160168  0.2551753502207354  0.07882252004725512  1.0000
  S   S4        1.0  0.13065499707323064  0.17524682396940208  0.010300344315152586  1.0000
  Fe  Fe3       1.0  0.026852414818387516  0.28929509183334884  0.062478782595384356  1.0000
  S   S5        1.0  0.9554848329713883  0.2821098034380085  0.08720765414826058  1.0000
  Fe  Fe4       1.0  0.13157407776314578  0.3203020575128451  0.0696878107847815  1.0000
  S   S6        1.0  0.18355205077781261  0.34959963397060656  0.10402252276499006  1.0000
  S   S7        1.0  0.03610744973797586  0.2696132040493921  0.01381694582716153  1.0000
  S   S8        1.0  0.1811274778539027  0.33041511606265306  0.5299340246139929  1.0000
  Fe  Fe5       1.0  0.058820716963366104  0.3378062826171007  0.2686879220394922  1.0000
  S   S9        1.0  0.050384698879190504  0.3410920472905795  0.3195674664286202  1.0000
  S   S10       1.0  0.9996296245142869  0.36005855004375387  0.2352762471068263  1.0000
  Fe  Fe6       1.0  0.15954712728095632  0.2918456504131437  0.27248798816368747  1.0000
  S   S11       1.0  0.160581287194407  0.2925411782973938  0.3234913801241498  1.0000
  S   S12       1.0  0.21904718675099183  0.260886693217352  0.24337830476689049  1.0000
  Fe  Fe7       1.0  0.08144608599403091  0.27158259216299485  0.3196856373211976  1.0000
  S   S13       1.0  0.061765921393689194  0.21137223043584571  0.3471874709636241  1.0000
  Fe  Fe8       1.0  0.12997413415817993  0.36152504830745796  0.31889129147638057  1.0000
  S   S14       1.0  0.1570396483947065  0.413065655205268  0.3516834165425537  1.0000
  S   S15       1.0  0.08268563636738557  0.2660605849876845  0.26886301735611967  1.0000
  S   S16       1.0  0.13615258752732595  0.3632894837768799  0.26796043972885425  1.0000
  Fe  Fe9       1.0  0.9434635956032957  0.5622135166511244  0.13886296633412826  1.0000
  S   S17       1.0  0.9510001879041997  0.5893968711290063  0.09170332283793435  1.0000
  S   S18       1.0  0.013944363499854395  0.5408925702113272  0.16366209196223327  1.0000
  Fe  Fe10      1.0  0.8315993355139026  0.577004239697278  0.13795885499071367  1.0000
  S   S19       1.0  0.8300886278391729  0.603811936475825  0.09043998460470863  1.0000
  S   S20       1.0  0.7627728798681256  0.5738850345871471  0.16601681362279486  1.0000
  Fe  Fe11      1.0  0.8844044029792653  0.5490284924734218  0.08089359251488398  1.0000
  S   S21       1.0  0.8831916657300987  0.511019762054643  0.037178624969590644  1.0000
  Fe  Fe12      1.0  0.8960560705299254  0.6416402966937311  0.105877042766435  1.0000
  S   S22       1.0  0.9025108991054722  0.7124055042477577  0.0914077547969577  1.0000
  S   S23       1.0  0.8799957903689964  0.5179972446517733  0.1270878310241104  1.0000
  S   S24       1.0  0.8943801852585285  0.6187907500196852  0.1543211314662093  1.0000
  Fe  Fe13      1.0  0.8369394264258143  0.5365891022031345  0.3920852736311924  1.0000
  S   S25       1.0  0.8286258982287321  0.5551547808818214  0.34300301288273394  1.0000
  S   S26       1.0  0.802105462518515  0.5751109029673276  0.4302183991420959  1.0000
  Fe  Fe14      1.0  0.8924136103104056  0.4518444462099634  0.3780053268340096  1.0000
  S   S27       1.0  0.8883315696447115  0.46175023426135337  0.3273564024888403  1.0000
  S   S28       1.0  0.9239530059638139  0.39123194772573805  0.40107293026962887  1.0000
  Fe  Fe15      1.0  0.9073028240333728  0.5320345014625121  0.33894948891115834  1.0000
  S   S29       1.0  0.9589070088034974  0.5693774626065976  0.3090191480332119  1.0000
  Fe  Fe16      1.0  0.8099173529900516  0.4840423156441151  0.3352667595249691  1.0000
  S   S30       1.0  0.7408735491165386  0.4744170872222949  0.30710500461182316  1.0000
  S   S31       1.0  0.9178858905318964  0.5204341600996046  0.3890727018894609  1.0000
  S   S32       1.0  0.8117572743402073  0.46718198219215257  0.3848689018875929  1.0000
  Fe  Fe17      1.0  0.918855148041586  0.12366122241872118  0.21776218990218107  1.0000
  S   S33       1.0  0.9277132041191353  0.13380484067232729  0.2679885231069104  1.0000
  S   S34       1.0  0.9820868524472595  0.13102644328693375  0.18535041995057566  1.0000
  Fe  Fe18      1.0  0.8164532861210354  0.08674435675673636  0.22397416026373124  1.0000
  S   S35       1.0  0.8161068992813686  0.09255891987005294  0.2747651487728407  1.0000
  S   S36       1.0  0.7539218484976524  0.059462037966862225  0.19655327077430537  1.0000
  Fe  Fe19      1.0  0.8492080536493696  0.15893391728406644  0.26619119302093086  1.0000
  S   S37       1.0  0.8294114543593952  0.21845268704506002  0.2943711169145686  1.0000
  Fe  Fe20      1.0  0.8941603303670307  0.06687395375260693  0.2723515194368559  1.0000
  S   S38       1.0  0.9247048999726337  0.01973173317119148  0.30762367096353044  1.0000
  S   S39       1.0  0.8431915672309015  0.15540353226328854  0.21527837080799242  1.0000
  S   S40       1.0  0.8913971792406011  0.054392622862363016  0.22226356010676201  1.0000
  Fe  Fe21      1.0  0.8877784533293309  0.16067013438069494  0.4775057063234609  1.0000
  S   S41       1.0  0.8960033690080093  0.1541008263125517  0.5284559581607661  1.0000
  S   S42       1.0  0.902088863023868  0.22438785758383917  0.4519060538416702  1.0000
  Fe  Fe22      1.0  0.8573147992609337  0.0649401386942265  0.46928495226567274  1.0000
  S   S43       1.0  0.8152797076217513  0.030958807154836787  0.03496440781833144  1.0000
  S   S44       1.0  0.8356159199831283  0.013866267483506611  0.4345217044774559  1.0000
  Fe  Fe23      1.0  0.8258312143424189  0.11504810941188691  0.525831116748507  1.0000
  S   S45       1.0  0.8480000873488677  0.14786991109452802  0.06509323475784334  1.0000
  Fe  Fe24      1.0  0.9335648386209885  0.08939194680776448  0.5172236909647898  1.0000
  S   S46       1.0  0.001469170844932144  0.06429682727214292  0.5415118864076185  1.0000
  S   S47       1.0  0.8134304464084103  0.127864972780444  0.476039446874914  1.0000
  S   S48       1.0  0.9303992377527512  0.09835571841270618  0.46670969360604536  1.0000
  Fe  Fe25      1.0  0.6686200250827598  0.30982577456291327  0.18174005421393657  1.0000
  S   S49       1.0  0.6573550893077512  0.30963739917492017  0.13105029995721082  1.0000
  S   S50       1.0  0.7414029749571124  0.335936086448552  0.19897954680448662  1.0000
  Fe  Fe26      1.0  0.5678091699234901  0.2726107579963917  0.19371607153821963  1.0000
  S   S51       1.0  0.5468956268385505  0.27152504260968846  0.14444112547113233  1.0000
  S   S52       1.0  0.5105560597569755  0.24873207038862452  0.22607375492675036  1.0000
  Fe  Fe27      1.0  0.6230635346777611  0.2433059230341424  0.13759583499771522  1.0000
  S   S53       1.0  0.6271165231570661  0.18844021744148293  0.10286159862812821  1.0000
  Fe  Fe28      1.0  0.5824664926485728  0.33706757256494496  0.14197296685002042  1.0000
  S   S54       1.0  0.5509000921008834  0.3895177565707492  0.11158973190097285  1.0000
  S   S55       1.0  0.642129474284202  0.2397219497120762  0.18744063988417223  1.0000
  S   S56       1.0  0.5953359351382405  0.3422870851876456  0.1922400442369352  1.0000
  Fe  Fe29      1.0  0.6880870058031253  0.29507880037131273  0.4817031661218143  1.0000
  S   S57       1.0  0.7118881011871424  0.29782750804923663  0.4330654708904031  1.0000
  S   S58       1.0  0.7372758429572807  0.30366280103272236  0.5223601584235313  1.0000
  Fe  Fe30      1.0  0.58195215812999  0.2740196427870614  0.4662025523703749  1.0000
  S   S59       1.0  0.595526433568081  0.2747834642953799  0.41586744644993523  1.0000
  S   S60       1.0  0.5122378817501748  0.25656918414067575  0.4904234570911559  1.0000
  Fe  Fe31      1.0  0.665377296057404  0.23714154825697406  0.4274834702162162  1.0000
  S   S61       1.0  0.6825298158124127  0.1756489795861422  0.4003578558827618  1.0000
  Fe  Fe32      1.0  0.6400792820052295  0.3350815266020074  0.4258229552282517  1.0000
  S   S62       1.0  0.6316700081525578  0.39625660019237685  0.39718445144052233  1.0000
  S   S63       1.0  0.6481455436169153  0.23131674440799155  0.477019935750003  1.0000
  S   S64       1.0  0.6202473131889057  0.33787326765407627  0.47511600410910054  1.0000
  Fe  Fe33      1.0  0.29348056567656017  0.5724335749764546  0.08950439309777439  1.0000
  S   S65       1.0  0.28909648522346076  0.5829755442705163  0.14003835208675744  1.0000
  S   S66       1.0  0.23554099966603326  0.5420620234051677  0.059633112314890685  1.0000
  Fe  Fe34      1.0  0.39607821867786414  0.6081197147492032  0.08447394273856101  1.0000
  S   S67       1.0  0.4021158892350192  0.6222163368528055  0.1343114418012783  1.0000
  S   S68       1.0  0.46294277350723595  0.6200507007834128  0.056068241515865334  1.0000
  Fe  Fe35      1.0  0.36693043379596546  0.5565740324366355  0.1408096091120528  1.0000
  S   S69       1.0  0.3940018837497569  0.5109114766274461  0.17775345919652258  1.0000
  Fe  Fe36      1.0  0.3244060473502102  0.6481495222855621  0.12997704050282902  1.0000
  S   S70       1.0  0.31067877880245875  0.7117064998497032  0.1551971201392685  1.0000
  S   S71       1.0  0.36807044215067025  0.5394172784241205  0.0911894048191532  1.0000
  S   S72       1.0  0.3213391081081373  0.6404785700101365  0.07919649308933456  1.0000
  Fe  Fe37      1.0  0.3474474631467745  0.5737618420415335  0.3372148040921699  1.0000
  S   S73       1.0  0.33179657799569534  0.569033411317277  0.38712758121891555  1.0000
  S   S74       1.0  0.29373850159114767  0.5605893250262519  0.29920185513141767  1.0000
  Fe  Fe38      1.0  0.4549259038156099  0.5974070114266835  0.3472462734293905  1.0000
  S   S75       1.0  0.45001140025913844  0.595159737832076  0.3980880211674403  1.0000
  S   S76       1.0  0.523978220988526  0.6115203195337325  0.3213692704599355  1.0000
  Fe  Fe39      1.0  0.4055355476101159  0.534130693565759  0.3899469504582315  1.0000
  S   S77       1.0  0.4163135776344241  0.4723588416804478  0.41751959192665045  1.0000
  Fe  Fe40      1.0  0.3771374042835735  0.6304271754533284  0.3910697046757259  1.0000
  S   S78       1.0  0.3577299269908795  0.6915552380146519  0.4174778179987734  1.0000
  S   S79       1.0  0.4171339285412978  0.5327818328596893  0.3395745108032616  1.0000
  S   S80       1.0  0.3859453170675703  0.6383864326587154  0.3407206022010315  1.0000
  Fe  Fe41      1.0  0.6012482718994749  0.78080204550103  0.15980993139852598  1.0000
  S   S81       1.0  0.6147592661541761  0.7731942298233223  0.21010066448293285  1.0000
  S   S82       1.0  0.6169147612993713  0.7290308312746691  0.12393973385449235  1.0000
  Fe  Fe42      1.0  0.5647119330906741  0.8761996353432008  0.16568227013871528  1.0000
  S   S83       1.0  0.5734722421528868  0.8760112897731508  0.2162034627034093  1.0000
  S   S84       1.0  0.5398905858646562  0.9416036527330931  0.14591655483349225  1.0000
  Fe  Fe43      1.0  0.6456349829138478  0.8413597151945335  0.20722950637516202  1.0000
  S   S85       1.0  0.712317842308892  0.862134148550961  0.23398347654124266  1.0000
  Fe  Fe44      1.0  0.5413193500494564  0.8081198513032977  0.2145366369114359  1.0000
  S   S86       1.0  0.4847771915940898  0.789021748868406  0.2491821715005514  1.0000
  S   S87       1.0  0.6394045836074562  0.8460353637939302  0.15638925986746013  1.0000
  S   S88       1.0  0.5251518992485018  0.8113371548144418  0.1644803729443082  1.0000
  Fe  Fe45      1.0  0.6335038342077933  0.8499956063031917  0.4530083043224723  1.0000
  S   S89       1.0  0.6307926218292061  0.8493609662537787  0.4020058491671481  1.0000
  S   S90       1.0  0.6539793409806149  0.9071972042099838  0.482747165857422  1.0000
  Fe  Fe46      1.0  0.605332536399462  0.7537964266366626  0.4586696505783391  1.0000
  S   S91       1.0  0.5980039733948295  0.7442741413975281  0.408338833016365  1.0000
  S   S92       1.0  0.6046951457038683  0.6995073346982764  0.49357194724402575  1.0000
  Fe  Fe47      1.0  0.6679312284018087  0.7827949118894397  0.40616173069537065  1.0000
  S   S93       1.0  0.7299135144478159  0.7589775597415428  0.37673509656077914  1.0000
  Fe  Fe48      1.0  0.5608794001253983  0.8115932690657288  0.40827000074255465  1.0000
  S   S94       1.0  0.4945175385105884  0.822690376438474  0.37768378946102005  1.0000
  S   S95       1.0  0.6783962773960012  0.7874469205974547  0.4564964473000611  1.0000
  S   S96       1.0  0.5605415043607631  0.8170848494850266  0.45938314554341153  1.0000
  Fe  Fe49      1.0  0.323348301375199  0.030210013341244624  0.25884156607375397  1.0000
  S   S97       1.0  0.30852143408359695  0.016591479345487995  0.209480854330353  1.0000
  S   S98       1.0  0.2699251999297721  0.06650077967556267  0.2891230281030819  1.0000
  Fe  Fe50      1.0  0.42668257526321896  0.9884015798357545  0.2576197100335199  1.0000
  S   S99       1.0  0.4211910709477165  0.9709473046891762  0.20808341951247752  1.0000
  S   S100      1.0  0.49721499706286376  0.9826816108021862  0.2850824376511372  1.0000
  Fe  Fe51      1.0  0.386414014844537  0.038516132054500885  0.20293959402191078  1.0000
  S   S101      1.0  0.4100276223743279  0.08303057130394986  0.16526746343491772  1.0000
  Fe  Fe52      1.0  0.34410458217251594  0.9501853685253806  0.21916542560789146  1.0000
  S   S102      1.0  0.30805661319193867  0.8883529709645077  0.20177688076140948  1.0000
  S   S103      1.0  0.3983170488471738  0.05793598477860607  0.2515357553326354  1.0000
  S   S104      1.0  0.35226410546099557  0.9618339268738139  0.2696292237993605  1.0000
  Fe  Fe53      1.0  0.34003886801613303  0.03026678726159915  0.5177641333151183  1.0000
  S   S105      1.0  0.34534096983986173  0.05428844466769523  0.46983919045170985  1.0000
  S   S106      1.0  0.3015672702893465  0.06700230578629236  0.5553665619834015  1.0000
  Fe  Fe54      1.0  0.3909642882068778  0.9431647010397183  0.5040432259005877  1.0000
  S   S107      1.0  0.4004666289726799  0.9581528686800587  0.4544406314008378  1.0000
  S   S108      1.0  0.4542377128287888  0.9215116590883131  0.013093991041921438  1.0000
  Fe  Fe55      1.0  0.42182362647506333  0.025365448690402026  0.47114808855842655  1.0000
  S   S109      1.0  0.4796485945659741  0.061424958344406574  0.4457339823064569  1.0000
  Fe  Fe56      1.0  0.32329087704933096  0.9859340099777345  0.45662307317501377  1.0000
  S   S110      1.0  0.27038363915320557  0.9847543472994926  0.4172339705253943  1.0000
  S   S111      1.0  0.4541093180120873  0.05103519271099156  0.0019090189730368579  1.0000
  S   S112      1.0  0.31071196811292023  0.9639174291964528  0.5044978780353134  1.0000
  Fe  Fe57      1.0  0.25230835481319824  0.8097728816411648  0.04998510758178406  1.0000
  S   S113      1.0  0.2274897602501324  0.7958724335573273  0.002103685660937993  1.0000
  S   S114      1.0  0.3219363098796144  0.8462216818109856  0.06115680850863933  1.0000
  Fe  Fe58      1.0  0.16144696177614737  0.7707315014878829  0.07727950532369036  1.0000
  S   S115      1.0  0.0649641121844895  0.7659378114476525  0.5204187230345863  1.0000
  S   S116      1.0  0.1246321382646789  0.753396511983311  0.12090254881251046  1.0000
  Fe  Fe59      1.0  0.20441222070386875  0.7298804428774907  0.02018267364606929  1.0000
  S   S117      1.0  0.16585408980701724  0.68039374083429  0.49746023258996946  1.0000
  Fe  Fe60      1.0  0.153559443077103  0.8203680296126497  0.017959143464046035  1.0000
  S   S118      1.0  0.10909614805865564  0.8640397902781228  0.9863810290052646  1.0000
  S   S119      1.0  0.23609783328780384  0.7413785053926634  0.06679911804584486  1.0000
  S   S120      1.0  0.1800523879194289  0.8402391466318941  0.06440672574670966  1.0000
  Fe  Fe61      1.0  0.04378661526243932  0.7886907384002475  0.3236946053872879  1.0000
  S   S121      1.0  0.062424129415205254  0.8004873723303133  0.2748848054344793  1.0000
  S   S122      1.0  0.9693089730990673  0.7723049180094996  0.3421724349590464  1.0000
  Fe  Fe62      1.0  0.14986259937103832  0.7955385043942909  0.34466072642964396  1.0000
  S   S123      1.0  0.17950012883485597  0.806869850958554  0.2978878511926274  1.0000
  S   S124      1.0  0.1963119615546252  0.7928938812930827  0.3868791798109999  1.0000
  Fe  Fe63      1.0  0.11332297873262243  0.8523047723094062  0.29319813595054134  1.0000
  S   S125      1.0  0.11782231486433581  0.916900666949675  0.2684682944871597  1.0000
  Fe  Fe64      1.0  0.12663274088170132  0.7540509144360732  0.28349868648575016  1.0000
  S   S126      1.0  0.13890271068991789  0.6976041418929745  0.2509959747604761  1.0000
  S   S127      1.0  0.08778545871196775  0.845355196093454  0.34139540786273087  1.0000
  S   S128      1.0  0.10395191336649545  0.7377899678564587  0.33098025550417104  1.0000
  C   C1        1.0  0.2498474849786888  0.9313817953518965  0.40927446963551434  1.0000
  C   C2        1.0  0.2236906405870099  0.9237119793689719  0.38221785676324793  1.0000
  C   C3        1.0  0.20702974926454837  0.8811234930037259  0.37540866001699  1.0000
  C   C4        1.0  0.2158258950753675  0.8463451850160943  0.39589539233681903  1.0000
  C   C5        1.0  0.24182260138767134  0.8540607656864371  0.42305764511552735  1.0000
  C   C6        1.0  0.25920672358614516  0.896586297601289  0.4296692839960477  1.0000
  H   H1        1.0  0.2167323252478992  0.9505902283832247  0.366327522101709  1.0000
  H   H2        1.0  0.18791451823093822  0.875279083517843  0.3541064224007416  1.0000
  H   H3        1.0  0.24856522106672868  0.8272516187948965  0.43895951811294026  1.0000
  H   H4        1.0  0.2795423587914808  0.9024043869871684  0.45058833669867066  1.0000
  C   C7        1.0  0.3174145015471226  0.8746997421749778  0.1632949289385663  1.0000
  C   C8        1.0  0.28918232092176716  0.8409397098255724  0.15049732706961938  1.0000
  C   C9        1.0  0.2908378188946791  0.8322897250028145  0.1192500497842762  1.0000
  C   C10       1.0  0.32233251290601356  0.8561549597093251  0.10061154872127842  1.0000
  C   C11       1.0  0.35343877544257607  0.887963273802274  0.11361143539952147  1.0000
  C   C12       1.0  0.3505256071920168  0.8976903190750934  0.14494987502378368  1.0000
  H   H5        1.0  0.26579167289268785  0.821314462231526  0.1647488574212339  1.0000
  H   H6        1.0  0.26795574061725136  0.8066385849423255  0.10979888902105857  1.0000
  H   H7        1.0  0.37924305036834766  0.9053915405856655  0.09944986031452815  1.0000
  H   H8        1.0  0.3736916192604703  0.9229279775732269  0.1548235176350665  1.0000
  C   C13       1.0  0.4973915202347509  0.8663485594266405  0.35122675189977565  1.0000
  C   C14       1.0  0.5322580351393472  0.8998378413410656  0.3544203906942506  1.0000
  C   C15       1.0  0.5336583286411907  0.9344557824713328  0.33313755158657465  1.0000
  C   C16       1.0  0.4991254906368696  0.9364328057073231  0.3091595605678966  1.0000
  C   C17       1.0  0.4646932366133534  0.902796977129811  0.30570242644246426  1.0000
  C   C18       1.0  0.4639915412359297  0.8677731749482159  0.32660230897173304  1.0000
  H   H9        1.0  0.5570824876014817  0.8999834468313331  0.37375711497777653  1.0000
  H   H10       1.0  0.5601781297145011  0.9606817187662998  0.3359756575645873  1.0000
  H   H11       1.0  0.4388555576739639  0.9034527242362803  0.28673148677356475  1.0000
  H   H12       1.0  0.4376852723922831  0.8417572668191363  0.3232945458323898  1.0000
  C   C19       1.0  0.5145351795348093  0.935367578453087  0.1094963908454666  1.0000
  C   C20       1.0  0.5230899980120761  0.8962985648033349  0.09308281712197972  1.0000
  C   C21       1.0  0.5036010019881806  0.8918999738660657  0.06357537457549216  1.0000
  C   C22       1.0  0.47566567370791524  0.9265812454937878  0.05054113463444829  1.0000
  C   C23       1.0  0.4670576475885303  0.9656764231968823  0.066961906875439  1.0000
  C   C24       1.0  0.4866049426771748  0.9701078119934036  0.09646769505234928  1.0000
  H   H13       1.0  0.5454618239595063  0.86980149561037  0.10295077670769924  1.0000
  H   H14       1.0  0.5110370171282861  0.8620357372214051  0.05059550232491236  1.0000
  H   H15       1.0  0.4455863958824482  0.9925172660072685  0.05688645451632751  1.0000
  H   H16       1.0  0.4799776512624896  0.0003249042156068249  0.1092570364483272  1.0000
  C   C25       1.0  0.3042047413456311  0.6877840150209996  0.43933720749874355  1.0000
  C   C26       1.0  0.27978681114824266  0.7267846628096726  0.44838749969559033  1.0000
  C   C27       1.0  0.23689563406874425  0.7247589143637233  0.46594735058184006  1.0000
  C   C28       1.0  0.21873117193878183  0.6836791103722509  0.47484113217173357  1.0000
  C   C29       1.0  0.24293517966070677  0.6445971224415263  0.46560197753330657  1.0000
  C   C30       1.0  0.28580620732989864  0.6466477215444018  0.44794176066480423  1.0000
  H   H17       1.0  0.293968931147032  0.7585724513432803  0.4416000161672376  1.0000
  H   H18       1.0  0.2179318201268368  0.7550151946008604  0.47223732746706937  1.0000
  H   H19       1.0  0.22903306466174292  0.6127244535730327  0.4724110792950415  1.0000
  H   H20       1.0  0.30523187574957555  0.6164873215862487  0.44165848249396816  1.0000
  C   C31       1.0  0.5178600535111965  0.6626320561766892  0.30274622354559455  1.0000
  C   C32       1.0  0.48876234646413264  0.6965902135580873  0.31534066263135146  1.0000
  C   C33       1.0  0.4797040268208152  0.7357226093282973  0.29893261338916194  1.0000
  C   C34       1.0  0.5000223193857358  0.741203509794286  0.2700560793451333  1.0000
  C   C35       1.0  0.530669614807586  0.7079143669289946  0.25789322174319707  1.0000
  C   C36       1.0  0.539821668451113  0.6686852189796358  0.2743366069329551  1.0000
  H   H21       1.0  0.4734504407157998  0.6928319557580107  0.33783047658778037  1.0000
  H   H22       1.0  0.4573551039296898  0.7620042386460679  0.3087226763293011  1.0000
  H   H23       1.0  0.5457688959637488  0.7116050908028008  0.23536822135479565  1.0000
  H   H24       1.0  0.5623348972861347  0.6424106781269462  0.26451812777033806  1.0000
  C   C37       1.0  0.2625569995911162  0.7086173718524184  0.18159166061801024  1.0000
  C   C38       1.0  0.22731030423684428  0.6754257488168441  0.17904885950504115  1.0000
  C   C39       1.0  0.1899768486152701  0.67205733227584  0.20078617700163434  1.0000
  C   C40       1.0  0.18737648588785688  0.7021742339216953  0.22498963132621955  1.0000
  C   C41       1.0  0.2225371404813747  0.7355429851041161  0.22760000714737194  1.0000
  C   C42       1.0  0.2600487099659981  0.7388401285241535  0.20582343601930078  1.0000
  H   H25       1.0  0.22811825911994046  0.6530265295713256  0.15993553222297854  1.0000
  H   H26       1.0  0.16250829079051624  0.646563231629935  0.19858209376707542  1.0000
  H   H27       1.0  0.22079563824338574  0.7589094130370899  0.24620379764095782  1.0000
  H   H28       1.0  0.28723149891901495  0.7647322818226571  0.20779442759074127  1.0000
  C   C43       1.0  0.4565118730498765  0.6502309471780232  0.022117812973597717  1.0000
  C   C44       1.0  0.4925114962877479  0.642282635335176  0.5374193091852795  1.0000
  C   C45       1.0  0.5390589454946271  0.6583197483608506  0.5299273453679717  1.0000
  C   C46       1.0  0.5455183909576993  0.6814492387823352  0.5027071677816006  1.0000
  C   C47       1.0  0.40677706623468207  0.6885041127998777  0.9836692096594155  1.0000
  C   C48       1.0  0.41008333323194296  0.6634535821800783  0.0105919790514033  1.0000
  H   H29       1.0  0.4882844536896206  0.6235166848329443  0.5581068609383941  1.0000
  H   H30       1.0  0.5699263982271258  0.6526318332698703  0.5453554349609646  1.0000
  H   H31       1.0  0.3708822657008312  0.6985757627973191  0.9746461958160324  1.0000
  H   H32       1.0  0.3768105323913146  0.6546011111408917  0.022352400224204497  1.0000
  C   C49       1.0  0.5710182718422893  0.4163347136764882  0.4013429125939381  1.0000
  C   C50       1.0  0.5366787785799999  0.39195728097885324  0.41775994853857745  1.0000
  C   C51       1.0  0.4886897945923053  0.40881563084220657  0.4220845632366651  1.0000
  C   C52       1.0  0.47517716067300203  0.45030098058559276  0.41025133760212273  1.0000
  C   C53       1.0  0.5091466248014186  0.4744342073785642  0.39337618331830015  1.0000
  C   C54       1.0  0.5570499144398999  0.45731592129733145  0.388829820456982  1.0000
  H   H33       1.0  0.5469628249444739  0.3601247989578879  0.4272771083057543  1.0000
  H   H34       1.0  0.46244739563631815  0.3899805536106435  0.4350555095187892  1.0000
  H   H35       1.0  0.4988708255705801  0.5064804009185188  0.384091186908535  1.0000
  H   H36       1.0  0.5834364568361621  0.47590115622208634  0.37591670843122366  1.0000
  C   C55       1.0  0.49522287832558265  0.2042427224448398  0.47681419394439895  1.0000
  C   C56       1.0  0.5083060886570462  0.19155241711772628  0.447322455039592  1.0000
  C   C57       1.0  0.5005712775991835  0.14821643752071906  0.43728056639855156  1.0000
  C   C58       1.0  0.48053103552042487  0.11707187851700818  0.45691893206313866  1.0000
  C   C59       1.0  0.46480846341405496  0.13009096081686855  0.48594078447872535  1.0000
  C   C60       1.0  0.4720694367329431  0.17386670917438754  0.495887375627646  1.0000
  H   H37       1.0  0.5247568704857581  0.21501637470646623  0.4321983360148348  1.0000
  H   H38       1.0  0.5117705902902357  0.13849829501500802  0.41459763635159286  1.0000
  H   H39       1.0  0.448877366858771  0.10610317195420008  0.5011077048173348  1.0000
  H   H40       1.0  0.4616600618447231  0.1836283884391419  0.5186828984337949  1.0000
  C   C61       1.0  0.5095245633222534  0.4237023019671359  0.13140190726381537  1.0000
  C   C62       1.0  0.4887688992102512  0.40968370015491823  0.15878688677742817  1.0000
  C   C63       1.0  0.454311042259209  0.43711267065458  0.17382557065709778  1.0000
  C   C64       1.0  0.4411129848261788  0.47850062300377666  0.1614895033368964  1.0000
  C   C65       1.0  0.46378304126615255  0.4931249817490358  0.13493423980161093  1.0000
  C   C66       1.0  0.4974594298516899  0.4655470518941099  0.11968012465515714  1.0000
  H   H41       1.0  0.49831940595174756  0.37739118575459923  0.16796659383774173  1.0000
  H   H42       1.0  0.43715489106812083  0.42600162985815637  0.19455598350516967  1.0000
  H   H43       1.0  0.45532167062804885  0.5257566230489605  0.12600485889137292  1.0000
  H   H44       1.0  0.5139776736991227  0.47670551163664654  0.09873727729996556  1.0000
  C   C67       1.0  0.43583551406334575  0.13057327620387593  0.18132603342253437  1.0000
  C   C68       1.0  0.4156545696620274  0.14977355677069312  0.20756061508797602  1.0000
  C   C69       1.0  0.4389830084762965  0.18570717864031086  0.22167305893726627  1.0000
  C   C70       1.0  0.48270261191103114  0.20224844174421708  0.20962231202658066  1.0000
  C   C71       1.0  0.5030586046021155  0.18256979727373326  0.18361560147229078  1.0000
  C   C72       1.0  0.4789090781818504  0.14767644953732423  0.1689788631502845  1.0000
  H   H45       1.0  0.38171087373362267  0.13730681973172032  0.21679024230836705  1.0000
  H   H46       1.0  0.4230897965276577  0.20065133517535447  0.24183771613281196  1.0000
  H   H47       1.0  0.5381435165991069  0.19334040790965387  0.17510079814322105  1.0000
  H   H48       1.0  0.49467158349033047  0.13284679937575744  0.1487339326102521  1.0000
  C   C73       1.0  0.016323963626480698  0.01198030548038198  0.5265433468189343  1.0000
  C   C74       1.0  0.9910065633846683  0.9964682130886424  0.5008272152259532  1.0000
  C   C75       1.0  0.004677775418793884  0.9559414556177516  0.4875759494185262  1.0000
  C   C76       1.0  0.05380519191809641  0.8815688542648679  0.0034289946693604185  1.0000
  C   C77       1.0  0.04592356870501724  0.8744005633398393  0.03444116367153374  1.0000
  C   C78       1.0  0.0031739382404263328  0.8916799625708748  0.048324416031458484  1.0000
  H   H49       1.0  0.9608698206727505  0.01557376722440229  0.49098042106616685  1.0000
  H   H50       1.0  0.9850702104694905  0.9441880747847524  0.467614269897756  1.0000
  H   H51       1.0  0.07306077889372475  0.8561796905400245  0.04784988498549078  1.0000
  H   H52       1.0  0.9972157784437552  0.8862686775392649  0.07236456827494436  1.0000
  C   C79       1.0  0.7878676154525206  0.9814427995443881  0.44877020116738325  1.0000
  C   C80       1.0  0.7680904563601572  0.947275875148319  0.431062166345448  1.0000
  C   C81       1.0  0.7278851379108638  0.9231229580320366  0.4418073518045747  1.0000
  C   C82       1.0  0.7073165838665504  0.9333835782437376  0.4701385058621193  1.0000
  C   C83       1.0  0.7279327781989811  0.9666850798861377  0.48809810540303905  1.0000
  C   C84       1.0  0.7679007635048467  0.9908565279715792  0.4773495754873013  1.0000
  H   H53       1.0  0.7831111534815226  0.9399830419957593  0.4088633834344727  1.0000
  H   H54       1.0  0.7123735533465264  0.8971590255107595  0.42795222548367995  1.0000
  H   H55       1.0  0.7123088785009475  0.9744201500333249  0.5101183162409711  1.0000
  H   H56       1.0  0.7818944012565269  0.017786867881521617  0.49081726206878956  1.0000
  C   C85       1.0  0.7865400644371142  0.15824364536934327  0.07570252534959618  1.0000
  C   C86       1.0  0.7473646931766936  0.13962017931869  0.059307232464830245  1.0000
  C   C87       1.0  0.6983436765907283  0.1488573397942803  0.06784498121627276  1.0000
  C   C88       1.0  0.6885273893282222  0.17670421173803738  0.09270336021591509  1.0000
  C   C89       1.0  0.7277224782283935  0.19530521987040503  0.10903562335338654  1.0000
  C   C90       1.0  0.7767142136691324  0.1859427827138768  0.1005923340229829  1.0000
  H   H57       1.0  0.7547811568236681  0.11867881281144475  0.03981182955356897  1.0000
  H   H58       1.0  0.6680190106902529  0.13503502774972298  0.05494948984784511  1.0000
  H   H59       1.0  0.7203843123895814  0.21672515506648576  0.12832451711965837  1.0000
  H   H60       1.0  0.806997006428257  0.2003854192082729  0.1133247107486173  1.0000
  C   C91       1.0  0.97957174376883  0.9933266389774442  0.29642666399388823  1.0000
  C   C92       1.0  0.011609158093749405  0.9758058410396278  0.31868923401020405  1.0000
  C   C93       1.0  0.05483728182932324  0.9530575811884757  0.3101055334214766  1.0000
  C   C94       1.0  0.06626568326047644  0.9483689290853121  0.2792804030911266  1.0000
  C   C95       1.0  0.035035823506021524  0.9670190402277884  0.2570327449857629  1.0000
  C   C96       1.0  0.9913618052250608  0.9891115855790765  0.26562406697555757  1.0000
  H   H61       1.0  0.0030577388533887806  0.9798430894009263  0.34254541565556407  1.0000
  H   H62       1.0  0.07967501950306222  0.9395781161728352  0.32733125476203817  1.0000
  H   H63       1.0  0.043707431606140545  0.9631057710463911  0.23316757129117885  1.0000
  H   H64       1.0  0.9665693160210169  0.0021334493123954523  0.24835734536291182  1.0000
  C   C97       1.0  0.7441507916338428  0.004315575916784997  0.2066768297147962  1.0000
  C   C98       1.0  0.7721990679697078  0.983987961584126  0.22990043651383704  1.0000
  C   C99       1.0  0.7629213058457559  0.9399650648838961  0.2381624727361221  1.0000
  C   C100      1.0  0.7252431551588396  0.916665534201833  0.2234314578014178  1.0000
  C   C101      1.0  0.6973769723387495  0.9372170800831235  0.20028771529227027  1.0000
  C   C102      1.0  0.7073347732085725  0.980680392532153  0.19156941323159202  1.0000
  H   H65       1.0  0.8007171659915558  0.0021594620288472033  0.2416761883153123  1.0000
  H   H66       1.0  0.784510013894053  0.9241811167835158  0.2561096408817377  1.0000
  H   H67       1.0  0.6678058940567457  0.9198727348289084  0.1891442267033333  1.0000
  H   H68       1.0  0.685941538336638  0.9961396718464932  0.17339581362107329  1.0000
  C   C103      1.0  0.7885766610412088  0.20581249707437088  0.32361885319580724  1.0000
  C   C104      1.0  0.7526643041693848  0.1733902081301239  0.3196984867623682  1.0000
  C   C105      1.0  0.7208152407713742  0.16329090518189313  0.34366038174987146  1.0000
  C   C106      1.0  0.724324092610698  0.1862687449915155  0.3712803248573042  1.0000
  C   C107      1.0  0.7605259126732167  0.2183102709695036  0.37525592581221934  1.0000
  C   C108      1.0  0.7926480881501214  0.22808792106868578  0.351449020613111  1.0000
  H   H69       1.0  0.7484536468979756  0.15700439158031068  0.2979632496800945  1.0000
  H   H70       1.0  0.6925869014806226  0.1386161905127957  0.34047933664087465  1.0000
  H   H71       1.0  0.7645969968000902  0.2349695113013688  0.3968916346128934  1.0000
  H   H72       1.0  0.8210325760520693  0.2526597006626418  0.35471594837006615  1.0000
  C   C109      1.0  0.7839367149287704  0.6272160449945898  0.4163687331124666  1.0000
  C   C110      1.0  0.742475867132785  0.6487236025804001  0.42854436228642184  1.0000
  C   C111      1.0  0.7259434571317037  0.6892091583737846  0.416301111916055  1.0000
  C   C112      1.0  0.7510888470663949  0.708484678809891  0.39205660379621626  1.0000
  C   C113      1.0  0.7928594679203944  0.6870929773068566  0.38005072531756406  1.0000
  C   C114      1.0  0.8092720468338945  0.646453485397654  0.39227335264182406  1.0000
  H   H73       1.0  0.7223610687996085  0.6336266498914368  0.4468710799198557  1.0000
  H   H74       1.0  0.6933222919212536  0.7050692730285183  0.42547147446553496  1.0000
  H   H75       1.0  0.8126383827270789  0.7019659900401546  0.361429747225976  1.0000
  H   H76       1.0  0.8418443580557073  0.6302685343622064  0.38326337622417417  1.0000
  C   C115      1.0  0.9577895713211563  0.626215833704473  0.31752315429714867  1.0000
  C   C116      1.0  0.9816411562218919  0.6556308895308941  0.29821966111502857  1.0000
  C   C117      1.0  0.9838958949348582  0.7006246936366034  0.3055915394513841  1.0000
  C   C118      1.0  0.9611377780783582  0.7167736007189967  0.33188248114969465  1.0000
  C   C119      1.0  0.935713942616186  0.6877443250381724  0.3508152859637644  1.0000
  C   C120      1.0  0.9345806533093852  0.6422640829162458  0.34377244176188715  1.0000
  H   H77       1.0  0.9986628616349397  0.643939236407177  0.2775709164159779  1.0000
  H   H78       1.0  0.0031976890183960105  0.7228724554431702  0.29073892398078965  1.0000
  H   H79       1.0  0.9182930438627077  0.7000726178587632  0.37130939087923537  1.0000
  H   H80       1.0  0.9167687141624946  0.6194698809202027  0.3589170573915695  1.0000
  C   C121      1.0  0.7428363191304843  0.4382218659302292  0.27577744770216617  1.0000
  C   C122      1.0  0.6989595565291723  0.43030535637757816  0.25959539507145757  1.0000
  C   C123      1.0  0.698230473850828  0.3990311408582022  0.23597061970829786  1.0000
  C   C124      1.0  0.7416687431329221  0.37644385654664525  0.2277649897024493  1.0000
  C   C125      1.0  0.7859922383777684  0.38547197650192727  0.2432853812793938  1.0000
  C   C126      1.0  0.7865054451100005  0.41596583186648417  0.2675026013018875  1.0000
  H   H81       1.0  0.6650633944503284  0.44743614042886554  0.26593823452797366  1.0000
  H   H82       1.0  0.6639561937811547  0.3921935364775056  0.22436970834606706  1.0000
  H   H83       1.0  0.8196454280986677  0.3676064801664294  0.23726403684128988  1.0000
  H   H84       1.0  0.8203035846336574  0.421042866748406  0.2802838633156173  1.0000
  C   C127      1.0  0.7204828041580423  0.6156679452500645  0.1544033769373967  1.0000
  C   C128      1.0  0.6945447459935334  0.6404417490426311  0.1761716333801613  1.0000
  C   C129      1.0  0.6620934826034919  0.6748871675023117  0.16700804451948104  1.0000
  C   C130      1.0  0.6547482817219169  0.6841648071420259  0.13605937459893597  1.0000
  C   C131      1.0  0.6787991585620081  0.6578083492668698  0.11428289129900052  1.0000
  C   C132      1.0  0.7119240946020411  0.6239490718420221  0.1234283396502844  1.0000
  H   H85       1.0  0.7003286039396374  0.6337158720209858  0.2001539288756481  1.0000
  H   H86       1.0  0.6425263916747835  0.6938619281491051  0.1839431382443988  1.0000
  H   H87       1.0  0.6721776281382905  0.6638120648557636  0.09030958690890328  1.0000
  H   H88       1.0  0.7298749452561201  0.6035963945428328  0.10645832864387703  1.0000
  C   C133      1.0  0.9618461409067675  0.7293097180047409  0.1020703323734219  1.0000
  C   C134      1.0  0.9851426964296015  0.710597280675053  0.12771279104744912  1.0000
  C   C135      1.0  0.03421131646644704  0.7209904165371087  0.1348416801567484  1.0000
  C   C136      1.0  0.06068022126342054  0.7486281450569359  0.11558478147151782  1.0000
  C   C137      1.0  0.037025108311800725  0.768431913142297  0.09048944121078677  1.0000
  C   C138      1.0  0.9873423121992486  0.759243433478681  0.08393439085293943  1.0000
  H   H89       1.0  0.9653962476633827  0.6879762764259899  0.142034820379879  1.0000
  H   H90       1.0  0.05209823066762054  0.7061329253906921  0.1545719865909878  1.0000
  H   H91       1.0  0.05712862518083517  0.7903224679766225  0.07585415620909502  1.0000
  H   H92       1.0  0.9693711049128034  0.7739343204081102  0.06414610500364673  1.0000
  C   C139      1.0  0.8389856968807238  0.4693532063216942  0.03701061183508596  1.0000
  C   C140      1.0  0.7194027356710235  0.43664034348439307  0.5192087308322139  1.0000
  C   C141      1.0  0.7211246617236708  0.3917540178228577  0.510985234137408  1.0000
  C   C142      1.0  0.7364227057686092  0.3597071417804915  0.5322629543003405  1.0000
  C   C143      1.0  0.795247916837715  0.41220508445465565  0.009435632704035688  1.0000
  C   C144      1.0  0.8331508464244498  0.44317919053727856  0.01099414956242617  1.0000
  H   H93       1.0  0.7080288454304939  0.4614603950821804  0.5026669777734278  1.0000
  H   H94       1.0  0.711471457380453  0.3821042558573173  0.4879996252064203  1.0000
  H   H95       1.0  0.7912244164741343  0.39241697446575013  0.9892393825521774  1.0000
  H   H96       1.0  0.857244318848531  0.4475072935687082  0.9917068853938837  1.0000
  C   C145      1.0  0.19061418552892995  0.45586156890958174  0.33532495037701815  1.0000
  C   C146      1.0  0.19963091843959754  0.4941374223844025  0.3524020153466603  1.0000
  C   C147      1.0  0.23018127283532555  0.5270844322156769  0.34088772453533916  1.0000
  C   C148      1.0  0.25160286707750895  0.5218341526788598  0.31223857102024566  1.0000
  C   C149      1.0  0.24094624874613976  0.4844872754218489  0.2945742642966605  1.0000
  C   C150      1.0  0.2107557738382356  0.45131152740519304  0.3062397990204862  1.0000
  H   H97       1.0  0.18388892851714148  0.49785875982039984  0.37486518927394835  1.0000
  H   H98       1.0  0.23749247707332097  0.5563855164714304  0.35431596168215423  1.0000
  H   H99       1.0  0.25755394831630885  0.48043315462245983  0.27237905728502554  1.0000
  H   H100      1.0  0.20468614090173895  0.42161114759131235  0.29315968567322126  1.0000
  C   C151      1.0  0.23527614504576566  0.20746201904726255  0.2565854401495809  1.0000
  C   C152      1.0  0.2169775681843441  0.19218172374703268  0.28428388128965015  1.0000
  C   C153      1.0  0.22933454085169944  0.14941450279036947  0.2946418361168155  1.0000
  C   C154      1.0  0.25892570870927284  0.12119655700923467  0.2769506533786565  1.0000
  C   C155      1.0  0.2773535435429464  0.13629929235040356  0.2492071627753137  1.0000
  C   C156      1.0  0.26584736163231376  0.1795444199273976  0.23913630260206087  1.0000
  H   H101      1.0  0.19301388467919084  0.21307654343621266  0.29775050396979985  1.0000
  H   H102      1.0  0.21521456822983817  0.13788869266024645  0.31616261465307266  1.0000
  H   H103      1.0  0.2999795996023365  0.11449730504461582  0.23535989509084143  1.0000
  H   H104      1.0  0.28005068603007394  0.1910210352345365  0.21764379224786168  1.0000
  C   C157      1.0  0.9474800523650674  0.22189752826245582  0.42324845364268826  1.0000
  C   C158      1.0  0.9823922727908656  0.18713115754461374  0.4225381767843234  1.0000
  C   C159      1.0  0.016497497217481838  0.18392310941458212  0.39873406508634773  1.0000
  C   C160      1.0  0.017094375897687586  0.21629654288877623  0.3758974586501372  1.0000
  C   C161      1.0  0.9830803843498224  0.25180314443435997  0.3768684707581213  1.0000
  C   C162      1.0  0.9483120211493578  0.25454829639628607  0.4005183544995804  1.0000
  H   H105      1.0  0.9840066286964837  0.16319648837173537  0.4406577705169743  1.0000
  H   H106      1.0  0.043267707093427754  0.15682077085576554  0.3984161906507349  1.0000
  H   H107      1.0  0.9830063850978653  0.2768964913511483  0.35925626402757643  1.0000
  H   H108      1.0  0.9216593680471767  0.2818069870060401  0.4009244869770456  1.0000
  C   C163      1.0  0.008253235198437459  0.40749819508202334  0.21285965413068705  1.0000
  C   C164      1.0  0.9734971897406497  0.41778981844002755  0.18995985292558412  1.0000
  C   C165      1.0  0.9764053781801134  0.45771483557781945  0.17373537552693036  1.0000
  C   C166      1.0  0.01403577915373333  0.4875979828307639  0.18026299266914114  1.0000
  C   C167      1.0  0.05085467534096022  0.47576756430817274  0.20162348546643352  1.0000
  C   C168      1.0  0.04767295001530614  0.4360493446294327  0.21818287183090193  1.0000
  H   H109      1.0  0.9434138188912511  0.39537046864369657  0.18533118936177093  1.0000
  H   H110      1.0  0.9492176899583488  0.46530200360479557  0.15639315182620273  1.0000
  H   H111      1.0  0.08144073745567182  0.49760136765843394  0.20573454554537357  1.0000
  H   H112      1.0  0.07497788734751332  0.4280596462935992  0.2355017731675477  1.0000
  C   C169      1.0  0.1992927229902642  0.4026967409087047  0.09150093865989244  1.0000
  C   C170      1.0  0.22859511078867784  0.4299463350214706  0.10986391612841619  1.0000
  C   C171      1.0  0.24048169138432463  0.47269405205950715  0.09998884309967161  1.0000
  C   C172      1.0  0.22285295331218666  0.48820197204169696  0.07181567413374357  1.0000
  C   C173      1.0  0.1940887628279821  0.46081277734933346  0.053327168737824025  1.0000
  C   C174      1.0  0.18229420562093873  0.4181066394019465  0.0631450414033791  1.0000
  H   H113      1.0  0.2419296454424649  0.41810232699232397  0.13174903731420354  1.0000
  H   H114      1.0  0.2630734919958077  0.4935826553416581  0.11428081070296381  1.0000
  H   H115      1.0  0.18157507480244062  0.4723532731802355  0.03122081135186756  1.0000
  H   H116      1.0  0.1605000771561685  0.39694750060254447  0.04860127886168495  1.0000
  C   C175      1.0  0.26725767964303293  0.11125563805597209  0.5398097100431845  1.0000
  C   C176      1.0  0.2639301272283372  0.1142518265572373  0.012363534792111828  1.0000
  C   C177      1.0  0.21523922339446916  0.12644431625926497  0.004800639503671266  1.0000
  C   C178      1.0  0.19155081638544613  0.1609825388883869  0.020374107295076268  1.0000
  C   C179      1.0  0.25606535824852744  0.16710303677865254  0.5006096661211018  1.0000
  C   C180      1.0  0.2854715047944014  0.1344776762422693  0.5149156966692435  1.0000
  H   H117      1.0  0.2816904651183963  0.08744126346715352  0.00017803562727669586  1.0000
  H   H118      1.0  0.1963393696654451  0.10977023525524271  0.9863981138802316  1.0000
  H   H119      1.0  0.2699501097157826  0.18454747814916053  0.4810118162630657  1.0000
  H   H120      1.0  0.32233938329590056  0.1275243078201324  0.5066947347242671  1.0000
  C   C181      1.0  0.9580564192357236  0.23688594938264135  0.11238411468983996  1.0000
  C   C182      1.0  0.9277847453598911  0.23671141396804837  0.13806418601170145  1.0000
  C   C183      1.0  0.9337717788915083  0.20335027741251704  0.1601409414681155  1.0000
  C   C184      1.0  0.9700699421859714  0.17015299897760575  0.1565480236998219  1.0000
  C   C185      1.0  0.999202765895909  0.16953743875016006  0.13037642281459869  1.0000
  C   C186      1.0  0.9928096679140623  0.2025739108099646  0.10818336668671498  1.0000
  H   H121      1.0  0.9008343403105904  0.2632024469367164  0.14145937463277522  1.0000
  H   H122      1.0  0.9117977337132146  0.2046920041151514  0.18052375973421164  1.0000
  H   H123      1.0  0.026889171742724205  0.1436200306372071  0.1272924473092358  1.0000
  H   H124      1.0  0.014602628159311903  0.20129317872866334  0.08773441974670224  1.0000
  C   C187      1.0  0.04104419370220502  0.4145016236885669  0.47470389016251535  1.0000
  C   C188      1.0  0.010015349147321384  0.3780233699748221  0.47591145975923416  1.0000
  C   C189      1.0  0.9752406878712553  0.37057572597021776  0.4527048069062653  1.0000
  C   C190      1.0  0.9696155874197013  0.4007902359000428  0.4287977980236601  1.0000
  C   C191      1.0  0.9997487436110762  0.4380631699295033  0.4277958189824532  1.0000
  C   C192      1.0  0.03561687504519995  0.44481430911807224  0.4506926969749439  1.0000
  H   H125      1.0  0.012460652133689187  0.3557066544722535  0.49484754218608573  1.0000
  H   H126      1.0  0.9525430786317645  0.3413632362528026  0.4531857838347988  1.0000
  H   H127      1.0  0.9966006693991981  0.46087143646824  0.4088992788708722  1.0000
  H   H128      1.0  0.05968730795304267  0.4730728682877921  0.4494853537043019  1.0000
  Fe  Fe65      1.0  0.10464988741477477  0.3601870384573363  0.5303885606718696  1.0000
  S   S129      1.0  0.09991507023003687  0.35945864533348615  0.5812164325985476  1.0000
  S   S130      1.0  0.07412373277442152  0.3733252237280408  0.9668593742672382  1.0000
  Fe  Fe66      1.0  0.14328850300542673  0.2651618318596941  0.5279613090073064  1.0000
  S   S131      1.0  0.14091896423361572  0.25519551484200664  0.578584448928059  1.0000
  S   S132      1.0  0.1720913127289174  0.21724521722906875  0.4932921968484934  1.0000
  Fe  Fe67      1.0  0.0679535218400329  0.2919518666873453  0.5753148184941846  1.0000
  S   S133      1.0  0.995742108910343  0.28079279087327425  0.5986673301853158  1.0000
  Fe  Fe68      1.0  0.1732729835420812  0.32317931694729285  0.5802899423351439  1.0000
  S   S134      1.0  0.2403858180211547  0.3354101581403117  0.6095996714553568  1.0000
  S   S135      1.0  0.06735334314910713  0.2949152255129482  0.5243455520019328  1.0000
  S   S136      1.0  0.1520725635934752  0.30270730214762626  0.021881269653247326  1.0000
  Fe  Fe69      1.0  0.009192115661068812  0.365726639408651  0.8027390192205996  1.0000
  S   S137      1.0  0.01936471655411265  0.35539215678291386  0.8528478203052676  1.0000
  S   S138      1.0  0.97869065081967  0.4290785963565382  0.7835371948317383  1.0000
  Fe  Fe70      1.0  0.04659172755470453  0.2743778691700256  0.7871774047952316  1.0000
  S   S139      1.0  0.05850312212465414  0.2548232773712459  0.8357887671338359  1.0000
  S   S140      1.0  0.06946943332368738  0.22829366853145752  0.7499547834274999  1.0000
  Fe  Fe71      1.0  0.98587611469033  0.28923824525235675  0.8437313903588723  1.0000
  S   S141      1.0  0.928174257979076  0.2681767929010273  0.8766423068389115  1.0000
  Fe  Fe72      1.0  0.09125545641312693  0.32217802901003845  0.8404506840443264  1.0000
  S   S142      1.0  0.16049610586623178  0.33173373286951174  0.8684033901922912  1.0000
  S   S143      1.0  0.9700045745000156  0.30202757981394857  0.7943238410459117  1.0000
  S   S144      1.0  0.08435888323409246  0.33958062218077956  0.7910132259612099  1.0000
  Fe  Fe73      1.0  0.8741614802718313  0.45914947651748744  0.6313838597529199  1.0000
  S   S145      1.0  0.8689763358983876  0.46908062172232573  0.5810607606960347  1.0000
  S   S146      1.0  0.9025440017033127  0.3945864956396068  0.649876896870784  1.0000
  Fe  Fe74      1.0  0.8441984986260028  0.5531941546032029  0.6454763868880279  1.0000
  S   S147      1.0  0.8371345761013282  0.5724098897833387  0.5963888773440106  1.0000
  S   S148      1.0  0.8282361252223889  0.6048653960067365  0.6806683928575725  1.0000
  Fe  Fe75      1.0  0.7996533294693942  0.5076816611447152  0.591390513732297  1.0000
  S   S149      1.0  0.7369846240051432  0.5053308964945191  0.5581046915040815  1.0000
  Fe  Fe76      1.0  0.9069015265821939  0.532731834319161  0.5905195687205915  1.0000
  S   S150      1.0  0.9652974024206966  0.5563030963174789  0.559258879430901  1.0000
  S   S151      1.0  0.8002832981532828  0.4909869035642592  0.6411740492327859  1.0000
  S   S152      1.0  0.9184498214279181  0.5200828612727361  0.6402540961302109  1.0000
  Fe  Fe77      1.0  0.8305675017139142  0.5787612735855395  0.888695741812432  1.0000
  S   S153      1.0  0.8596573597745005  0.5889928503246237  0.8417918452288781  1.0000
  S   S154      1.0  0.7996777489422048  0.6320460163060949  0.9185920677332663  1.0000
  Fe  Fe78      1.0  0.8593691574856123  0.48231860037696883  0.8905609777250104  1.0000
  S   S155      1.0  0.8916521464868269  0.4827580144876575  0.8436784237543326  1.0000
  S   S156      1.0  0.8582961775040249  0.4251169365999876  0.9231095306587036  1.0000
  Fe  Fe79      1.0  0.9236690472484836  0.547334433774722  0.8582215005377678  1.0000
  S   S157      1.0  0.9999660408346462  0.5666726659144077  0.8457820275112056  1.0000
  Fe  Fe80      1.0  0.8246801651389409  0.5239833585942354  0.8307799114544755  1.0000
  S   S158      1.0  0.7910992386774734  0.515686206889752  0.7839175030814285  1.0000
  S   S159      1.0  0.898129516031993  0.5431352319551392  0.9062292894215687  1.0000
  S   S160      1.0  0.7889090101916646  0.5175654758427722  0.8765171746793343  1.0000
  Fe  Fe81      1.0  0.9120421984401235  0.13011960375905526  0.7273157773378137  1.0000
  S   S161      1.0  0.8964675767649741  0.1406098638235558  0.7769545133070268  1.0000
  S   S162      1.0  0.985156029370978  0.14225586896481793  0.705296330100839  1.0000
  Fe  Fe82      1.0  0.8158704944102735  0.08217984390578123  0.7159703187785075  1.0000
  S   S163      1.0  0.7904450461343534  0.08925156253647715  0.7641200523280558  1.0000
  S   S164      1.0  0.7760597186207787  0.04302362196878784  0.6805163599757206  1.0000
  Fe  Fe83      1.0  0.819826387209751  0.15794557396378095  0.7601773696957926  1.0000
  S   S165      1.0  0.7739149661718782  0.21553548196120656  0.7757134317292332  1.0000
  Fe  Fe84      1.0  0.8686643500424919  0.07078195125204358  0.7764239769160615  1.0000
  S   S166      1.0  0.8862124680697072  0.020128073952240033  0.8127641163452056  1.0000
  S   S167      1.0  0.8373896426713604  0.15295557363340634  0.710494855779372  1.0000
  S   S168      1.0  0.8919174466359908  0.058696904617894896  0.7283872725068219  1.0000
  Fe  Fe85      1.0  0.9073970440831661  0.06542119677165062  0.9723661053642157  1.0000
  S   S169      1.0  0.929622553886701  0.06178380937513679  0.021534982054670637  1.0000
  S   S170      1.0  0.9634031034298158  0.07975757530153577  0.9362290599464844  1.0000
  Fe  Fe86      1.0  0.8025632608301195  0.03757409606477303  0.9848298197631437  1.0000
  S   S171      1.0  0.8648186535081244  0.04967861842312371  0.5188946044353377  1.0000
  S   S172      1.0  0.7284076425249831  0.0251181929230877  0.9639860343801661  1.0000
  Fe  Fe87      1.0  0.8559185265834857  0.09441582196067275  0.03013495953613954  1.0000
  S   S173      1.0  0.7618702672307865  0.11234004038838015  0.5583667731630898  1.0000
  Fe  Fe88      1.0  0.8872296127925268  0.9986652752119851  0.021884605718364813  1.0000
  S   S174      1.0  0.9175897777463876  0.9415444200569306  0.049235732440620295  1.0000
  S   S175      1.0  0.8371869436437503  0.10424862685220888  0.9808928191688701  1.0000
  S   S176      1.0  0.8706877520678054  0.9992320584966317  0.9717454308421163  1.0000
  Fe  Fe89      1.0  0.6313745872576113  0.31806665468752693  0.7378010956684136  1.0000
  S   S177      1.0  0.6420827606766635  0.34001214186266165  0.6896649045766396  1.0000
  S   S178      1.0  0.6403930436191002  0.35817893381436927  0.7805220478463714  1.0000
  Fe  Fe90      1.0  0.5976092458434262  0.22680004152174227  0.719337168817697  1.0000
  S   S179      1.0  0.6046459871000017  0.24017313331107004  0.6693487785233176  1.0000
  S   S180      1.0  0.5768112317906678  0.16258548876641338  0.7408180396703276  1.0000
  Fe  Fe91      1.0  0.6756621507152445  0.2723654869015189  0.6823592426018834  1.0000
  S   S181      1.0  0.7435101392165556  0.2691359196969044  0.6532056012683687  1.0000
  Fe  Fe92      1.0  0.5700572290089094  0.30634318114597314  0.6805414810323492  1.0000
  S   S182      1.0  0.5111403348860338  0.3346982963471944  0.6494021252206986  1.0000
  S   S183      1.0  0.6716665789602274  0.25337759123053694  0.7316527007935069  1.0000
  S   S184      1.0  0.5562026091446144  0.2898689272338629  0.7294056281996529  1.0000
  Fe  Fe93      1.0  0.6918474860287999  0.3507994959420429  0.9850144437866308  1.0000
  S   S185      1.0  0.7366465364286889  0.3593024489254036  0.9428265426918906  1.0000
  S   S186      1.0  0.7156057860813048  0.3683071235449526  0.03257714713989812  1.0000
  Fe  Fe94      1.0  0.6043162120787485  0.3139728453232002  0.949674312192361  1.0000
  S   S187      1.0  0.64190761937156  0.31913235777276927  0.9048477102612772  1.0000
  S   S188      1.0  0.525902492625509  0.29218657424102457  0.9523992379608183  1.0000
  Fe  Fe95      1.0  0.7082330072183344  0.29215836807414586  0.9303859472915095  1.0000
  S   S189      1.0  0.7602307167468967  0.23676879265664919  0.9174964370758137  1.0000
  Fe  Fe96      1.0  0.6658651858736896  0.38544561198717  0.9221615479539471  1.0000
  S   S190      1.0  0.6590994344857177  0.44593804975893697  0.8925778578177174  1.0000
  S   S191      1.0  0.668499893545257  0.2817595034416497  0.9740702070322744  1.0000
  S   S192      1.0  0.623138953773124  0.3821176935099958  0.965412781917572  1.0000
  Fe  Fe97      1.0  0.32147815911157185  0.5738203699683623  0.6238895215797315  1.0000
  S   S193      1.0  0.36711401339216115  0.5983799246580611  0.6630090238839483  1.0000
  S   S194      1.0  0.24864776372328967  0.54175206003483  0.6311072902778512  1.0000
  Fe  Fe98      1.0  0.38684788182697644  0.6155766946536388  0.5765653923970808  1.0000
  S   S195      1.0  0.43780771724136464  0.6442718848226873  0.6117250646488842  1.0000
  S   S196      1.0  0.3948013513877039  0.6265502863986812  0.5263187109351593  1.0000
  Fe  Fe99      1.0  0.43165012952073106  0.5776207930453379  0.6341123807494286  1.0000
  S   S197      1.0  0.4986059202455715  0.5440352477813041  0.6554646323707862  1.0000
  Fe  Fe100     1.0  0.3684305343988918  0.6619876049792226  0.6367395158413289  1.0000
  S   S198      1.0  0.3533294761308504  0.7292231009737398  0.6568073512552963  1.0000
  S   S199      1.0  0.38547893764693136  0.54757745464444  0.596827601108677  1.0000
  S   S200      1.0  0.3178075281868579  0.6388704774211152  0.5997233401936177  1.0000
  Fe  Fe101     1.0  0.32809715177725823  0.515698715932304  0.8213275258376006  1.0000
  S   S201      1.0  0.31616412659264576  0.5400864804825958  0.8692461818061933  1.0000
  S   S202      1.0  0.2886762296346547  0.4636613070229104  0.7942789076852138  1.0000
  Fe  Fe102     1.0  0.4132588930147414  0.5767845473680983  0.8097755242499157  1.0000
  S   S203      1.0  0.4087947032801604  0.6073759132832994  0.8560858242400685  1.0000
  S   S204      1.0  0.47095152219436626  0.589863716136399  0.774620807267871  1.0000
  Fe  Fe103     1.0  0.39933994690133906  0.5381008707624406  0.8723881022734081  1.0000
  S   S205      1.0  0.44230335396794573  0.5202327566845732  0.9146185214520373  1.0000
  Fe  Fe104     1.0  0.32689507704169507  0.6074348995645521  0.8488559888472672  1.0000
  S   S206      1.0  0.2861100524144502  0.6697780287217824  0.8617384411213785  1.0000
  S   S207      1.0  0.40998970240541227  0.5070449559870565  0.8265821107893764  1.0000
  S   S208      1.0  0.3318192019928412  0.5836378982267724  0.800678909398358  1.0000
  Fe  Fe105     1.0  0.6157302411830533  0.7610332325546612  0.6679670888226366  1.0000
  S   S209      1.0  0.628511931245288  0.7651513699913659  0.7184014745082342  1.0000
  S   S210      1.0  0.6280430319133564  0.6987890645358793  0.6410632414781258  1.0000
  Fe  Fe106     1.0  0.5849360424259045  0.8573796370922582  0.6617946825434191  1.0000
  S   S211      1.0  0.5938894526754109  0.8699211543336366  0.7115001147547262  1.0000
  S   S212      1.0  0.5685042640535869  0.9171255030864279  0.6323731151049943  1.0000
  Fe  Fe107     1.0  0.6639823900076336  0.8299095832777089  0.7082017663479029  1.0000
  S   S213      1.0  0.7287069287091102  0.855363165681054  0.7352535820919908  1.0000
  Fe  Fe108     1.0  0.5576344283317765  0.8045397617599046  0.7179577777606737  1.0000
  S   S214      1.0  0.5069210583175204  0.7944652191043532  0.757283202557375  1.0000
  S   S215      1.0  0.6583374073909655  0.8220083066336691  0.657494101457838  1.0000
  S   S216      1.0  0.5413177821567605  0.7952431432886401  0.6681630156780823  1.0000
  Fe  Fe109     1.0  0.6059939794772843  0.8171970293376405  0.952582671045279  1.0000
  S   S217      1.0  0.623448944851058  0.8478182751510864  0.9076049747677574  1.0000
  S   S218      1.0  0.6584287258281399  0.8307510538534798  0.991428030145468  1.0000
  Fe  Fe110     1.0  0.5133708752967211  0.7743934301463782  0.928134910077182  1.0000
  S   S219      1.0  0.5226251214044867  0.8013874737359241  0.8810984624476493  1.0000
  S   S220      1.0  0.44569426263414663  0.7337897841732595  0.9357666663468475  1.0000
  Fe  Fe111     1.0  0.6022111714248118  0.7828398231874979  0.8878121202551034  1.0000
  S   S221      1.0  0.6451461049568549  0.7526636345839839  0.849637598792532  1.0000
  Fe  Fe112     1.0  0.5423683351021032  0.8644420391717715  0.9048385016331828  1.0000
  S   S222      1.0  0.5193632028797687  0.9310406308067452  0.8859722784990327  1.0000
  S   S223      1.0  0.5918314206686864  0.7497274266393837  0.9329725086812732  1.0000
  S   S224      1.0  0.526364692386791  0.839406538635349  0.9517654597662434  1.0000
  Fe  Fe113     1.0  0.2893846492567699  0.07670842015797685  0.7573068573855521  1.0000
  S   S225      1.0  0.28007650724334193  0.07756365364642578  0.7066944059659679  1.0000
  S   S226      1.0  0.27152636332052216  0.1350886540608186  0.7871690441115157  1.0000
  Fe  Fe114     1.0  0.32977841149049725  0.9826115716161015  0.7579962059874276  1.0000
  S   S227      1.0  0.32422949341020907  0.9753234432150638  0.707242710721626  1.0000
  S   S228      1.0  0.34975651780576017  0.9229063578779934  0.7862140395469635  1.0000
  Fe  Fe115     1.0  0.35414452147075887  0.04399853302629664  0.7060422454813249  1.0000
  S   S229      1.0  0.40375605678142945  0.0701640752659228  0.6699222847571998  1.0000
  Fe  Fe116     1.0  0.25054398793241844  0.009305810237177914  0.7123711604913541  1.0000
  S   S230      1.0  0.18267480427763855  0.9924032912289309  0.6854764141721076  1.0000
  S   S231      1.0  0.3666622675128263  0.04866195352251924  0.7565954094882581  1.0000
  S   S232      1.0  0.25310000704362734  0.011131992188774253  0.763235146567903  1.0000
  Fe  Fe117     1.0  0.375564050434216  0.07404850918250605  0.007990447169876624  1.0000
  S   S233      1.0  0.36266787239584974  0.08984010222986101  0.9587163148048763  1.0000
  S   S234      1.0  0.35060567931895636  0.12134235224151739  0.04427556061160298  1.0000
  Fe  Fe118     1.0  0.42064215196150584  0.9843454801608248  0.9947798096531905  1.0000
  S   S235      1.0  0.41110083610178355  0.9913918550701588  0.944355269810025  1.0000
  S   S236      1.0  0.4139516253711253  0.8797065768936093  0.5273077758276615  1.0000
  Fe  Fe119     1.0  0.43839136075564095  0.06040756674257364  0.9520953502749442  1.0000
  S   S237      1.0  0.495287264549471  0.0902907313764886  0.9217074710239997  1.0000
  Fe  Fe120     1.0  0.33606356683634436  0.020141642327106135  0.9554203657139282  1.0000
  S   S238      1.0  0.26222224525965887  0.011908610546873755  0.9319160143928485  1.0000
  S   S239      1.0  0.41941704869194146  0.008420688687931666  0.5207781218819488  1.0000
  S   S240      1.0  0.34320168671858015  0.006266041975721004  0.00539052912866711  1.0000
  Fe  Fe121     1.0  0.17375228983519958  0.8167507014315059  0.5648529214003655  1.0000
  S   S241      1.0  0.1740166801111008  0.8124660403556426  0.5138725864449116  1.0000
  S   S242      1.0  0.23730826517658368  0.8400097445054083  0.5932579849864686  1.0000
  Fe  Fe122     1.0  0.07492744567687915  0.7735217739145428  0.570672896241111  1.0000
  S   S243      1.0  0.12800159533245514  0.7532851420694027  0.03214996261626335  1.0000
  S   S244      1.0  0.02058986270174601  0.7476934938967245  0.6038887807567155  1.0000
  Fe  Fe123     1.0  0.14453369814603922  0.7441109018823833  0.5208296274297424  1.0000
  S   S245      1.0  0.20966215828261983  0.6634085005897568  0.9968796154590155  1.0000
  Fe  Fe124     1.0  0.0947781610776719  0.8344560782155316  0.5177452570095743  1.0000
  S   S246      1.0  0.05988218125040001  0.8800085913774652  0.48332079550613555  1.0000
  S   S247      1.0  0.15221005308338909  0.7462083733759675  0.5714747671868087  1.0000
  S   S248      1.0  0.09662798278068707  0.8445588607184664  0.5684061736045866  1.0000
  Fe  Fe125     1.0  0.07309769161812696  0.7948096927377923  0.8214726548646366  1.0000
  S   S249      1.0  0.06549104463170341  0.7986702466213921  0.7711406979881189  1.0000
  S   S250      1.0  0.007068247319174548  0.7745323687841574  0.8479573605226063  1.0000
  Fe  Fe126     1.0  0.1761131646115185  0.832287146378895  0.8216299924537287  1.0000
  S   S251      1.0  0.17694819508753307  0.8413744615829035  0.7707940735221246  1.0000
  S   S252      1.0  0.24410937564774104  0.840148303671491  0.8507766434354123  1.0000
  Fe  Fe127     1.0  0.09850934386019872  0.8653624098615372  0.7768743688211214  1.0000
  S   S253      1.0  0.0556532743831577  0.9136810015046951  0.748300716474063  1.0000
  Fe  Fe128     1.0  0.14370505829508773  0.7738909258803275  0.7694437388143592  1.0000
  S   S254      1.0  0.1604067171088786  0.7190465682931114  0.736428423148902  1.0000
  S   S255      1.0  0.10081699280772893  0.8634390650407866  0.8278843543750313  1.0000
  S   S256      1.0  0.14848966534998773  0.7627359866295251  0.8197289761783937  1.0000
  C   C193      1.0  0.2575868988436118  0.9655194011719916  0.9080223168041998  1.0000
  C   C194      1.0  0.29932562874892027  0.9394384714062725  0.9014903808520962  1.0000
  C   C195      1.0  0.2948352526913359  0.9014960631984549  0.8833460569624001  1.0000
  C   C196      1.0  0.24873855925980218  0.8897308038574611  0.8713641687981777  1.0000
  C   C197      1.0  0.2070809439384662  0.9164693135994779  0.8771690164638052  1.0000
  C   C198      1.0  0.2115249765192827  0.9543899746334258  0.8955215616743142  1.0000
  H   H129      1.0  0.33504451219459536  0.9482106498617144  0.9105420343008459  1.0000
  H   H130      1.0  0.32713688132300667  0.8811157884938042  0.8785737117434684  1.0000
  H   H131      1.0  0.17137420666888895  0.9075560090503129  0.8680427737256722  1.0000
  H   H132      1.0  0.17915758476714846  0.9747274362811247  0.9002990192990585  1.0000
  C   C199      1.0  0.1941050939026008  0.9473662585756142  0.6612661421975279  1.0000
  C   C200      1.0  0.16980732624257772  0.9453032554983447  0.6330272120592788  1.0000
  C   C201      1.0  0.18232194246707978  0.9117806542542086  0.6121937730428011  1.0000
  C   C202      1.0  0.21858958215975963  0.8799690852407343  0.6198118166697482  1.0000
  C   C203      1.0  0.24197438914923336  0.881355092390971  0.6483347698923342  1.0000
  C   C204      1.0  0.22958480801543338  0.9149400063614275  0.6691266933055736  1.0000
  H   H133      1.0  0.1426013607489301  0.9705501637179337  0.62680512757405  1.0000
  H   H134      1.0  0.1651062983754094  0.9115445282478103  0.5898723654706826  1.0000
  H   H135      1.0  0.2696935299635483  0.8564179321681846  0.6543517462884152  1.0000
  H   H136      1.0  0.24727259574552754  0.9155394215314464  0.691296895876023  1.0000
  C   C205      1.0  0.4723193776353332  0.9288938025441122  0.8582293441045551  1.0000
  C   C206      1.0  0.4663553597126688  0.9637397770768203  0.8373172344960522  1.0000
  C   C207      1.0  0.42924708366347425  0.9620625695546985  0.814712018566387  1.0000
  C   C208      1.0  0.39769620416196233  0.925805787996925  0.8133248919617097  1.0000
  C   C209      1.0  0.403870722944327  0.8910229656706066  0.8341616230819137  1.0000
  C   C210      1.0  0.44097913454887305  0.8925801009851372  0.8566270696656207  1.0000
  H   H137      1.0  0.49065440149530776  0.991877176478971  0.8385365824514083  1.0000
  H   H138      1.0  0.42523626032662104  0.9885356434909303  0.7982939443563583  1.0000
  H   H139      1.0  0.37924660660951814  0.8631479036247576  0.8332327592742248  1.0000
  H   H140      1.0  0.4445762814696268  0.866088353990705  0.8730455897393927  1.0000
  C   C211      1.0  0.5240621693513233  0.9075674273248175  0.6038892508755386  1.0000
  C   C212      1.0  0.5243977972198528  0.9330259487629127  0.5772794605231931  1.0000
  C   C213      1.0  0.4914756880102848  0.9237388477497797  0.5533400853122245  1.0000
  C   C214      1.0  0.4573204560877982  0.8897357684524865  0.5562631216817596  1.0000
  C   C215      1.0  0.45695275401725605  0.8642686204104585  0.582873540738044  1.0000
  C   C216      1.0  0.49035860633178413  0.8731455096274858  0.6066521591491219  1.0000
  H   H141      1.0  0.5511418351829805  0.9590577082004095  0.5747514551887539  1.0000
  H   H142      1.0  0.49331562342851815  0.9422845682968004  0.5323465737728519  1.0000
  H   H143      1.0  0.4304095008562624  0.8380877418219186  0.5853721934143236  1.0000
  H   H144      1.0  0.489529701853019  0.8536688952833916  0.6272488000947793  1.0000
  C   C217      1.0  0.26622805721738174  0.6672567075637827  0.8994707227950276  1.0000
  C   C218      1.0  0.27443265921823573  0.7030599468451216  0.9190416459234767  1.0000
  C   C219      1.0  0.25811142942911103  0.7015700744423228  0.9492256072284334  1.0000
  C   C220      1.0  0.23234161945045667  0.6648799544750723  0.9596186638699805  1.0000
  C   C221      1.0  0.22377010338384487  0.6291912914517273  0.9399383106824314  1.0000
  C   C222      1.0  0.24130078685740025  0.6300887976299595  0.9099936173021814  1.0000
  H   H145      1.0  0.2940950129164537  0.7315978123945609  0.9108868288912639  1.0000
  H   H146      1.0  0.26594980853873096  0.7284833067412383  0.9645324435664826  1.0000
  H   H147      1.0  0.20297196983279123  0.6011197842634789  0.9477120877324964  1.0000
  H   H148      1.0  0.23430027957584434  0.6026595786979084  0.8947484807134429  1.0000
  C   C223      1.0  0.4816607751886793  0.6466510981435574  0.7700948191452803  1.0000
  C   C224      1.0  0.5036290306835469  0.6619081994202316  0.7434391342755541  1.0000
  C   C225      1.0  0.5120878889836771  0.70731279168273  0.7395830376018294  1.0000
  C   C226      1.0  0.49917828296433264  0.7374200956290147  0.7625657913249265  1.0000
  C   C227      1.0  0.47863749423544827  0.7219566808174834  0.7895925027999021  1.0000
  C   C228      1.0  0.46906036876181406  0.6767269281768192  0.7931196246563444  1.0000
  H   H149      1.0  0.5126737841152561  0.6389025659076001  0.7253138801832401  1.0000
  H   H150      1.0  0.5273798467876262  0.7190816714896657  0.718466297712144  1.0000
  H   H151      1.0  0.46976472037164746  0.7450622936824571  0.8076384235990817  1.0000
  H   H152      1.0  0.4519448254646118  0.6652553737021027  0.8136208602721691  1.0000
  C   C229      1.0  0.29829931095610573  0.7277660431144963  0.6775961169775553  1.0000
  C   C230      1.0  0.2707696872247604  0.6889484312106431  0.6783970179665332  1.0000
  C   C231      1.0  0.22832983331222526  0.6868606483424854  0.6963582650437509  1.0000
  C   C232      1.0  0.21328225510791987  0.7234752701055571  0.7137247603895487  1.0000
  C   C233      1.0  0.24005157314177603  0.7627827661168163  0.7123312734017992  1.0000
  C   C234      1.0  0.28242989303997995  0.7649872260327982  0.69417068342312  1.0000
  H   H153      1.0  0.2822170632226312  0.6602853690153022  0.6653257907720278  1.0000
  H   H154      1.0  0.20749673859139178  0.6565254667784172  0.6970318108129224  1.0000
  H   H155      1.0  0.2285635730041303  0.7913738853887204  0.7253426682737044  1.0000
  H   H156      1.0  0.30352245516766296  0.7951574543257911  0.6934240675216816  1.0000
  C   C235      1.0  0.45232021659942473  0.6489097056245947  0.5176182128544138  1.0000
  C   C236      1.0  0.4994076880154443  0.6624103233286059  0.006872082063682727  1.0000
  C   C237      1.0  0.4961437709305449  0.6883152904974378  0.980490167414904  1.0000
  C   C238      1.0  0.4499096259049323  0.7012170796172067  0.9687504955541789  1.0000
  C   C239      1.0  0.5052300875928244  0.6888490736299909  0.4830229718002162  1.0000
  C   C240      1.0  0.45865664427004965  0.672073935536564  0.49033997812530256  1.0000
  H   H157      1.0  0.5353778470034275  0.6524527193618026  0.015827558249180917  1.0000
  H   H158      1.0  0.5294973383370865  0.6978763204415942  0.9691640718128456  1.0000
  H   H159      1.0  0.5100484534788232  0.7066402602507623  0.46187691386508256  1.0000
  H   H160      1.0  0.42761234461943337  0.6770081264482349  0.4748171571390996  1.0000
  C   C241      1.0  0.600574269268364  0.4704988135501305  0.8984802953757538  1.0000
  C   C242      1.0  0.5830837519877037  0.4768472659002232  0.9280701635223528  1.0000
  C   C243      1.0  0.5345402228350912  0.4923121925094876  0.9328248477145611  1.0000
  C   C244      1.0  0.5034471195049216  0.5021121402034441  0.9079867125442727  1.0000
  C   C245      1.0  0.5218842634078635  0.49820194093090064  0.8783872954674153  1.0000
  C   C246      1.0  0.5704161603038435  0.48239552156101473  0.8736244581324966  1.0000
  H   H161      1.0  0.6068876778707143  0.46971975785857717  0.9473713159400641  1.0000
  H   H162      1.0  0.5208971941143723  0.4961705891934179  0.9557859772298003  1.0000
  H   H163      1.0  0.4986966407928941  0.5066028450304728  0.8591118669280355  1.0000
  H   H164      1.0  0.5839267940849991  0.47783092612500777  0.8506834987884417  1.0000
  C   C247      1.0  0.5186374690042176  0.2359927218378996  0.9440822919960659  1.0000
  C   C248      1.0  0.5572606158325927  0.21073199318454952  0.931471746292664  1.0000
  C   C249      1.0  0.5499121056159405  0.1658979198719719  0.9243212376349955  1.0000
  C   C250      1.0  0.5045342114391498  0.14618774705415358  0.9306287162939787  1.0000
  C   C251      1.0  0.46651173659036754  0.1714145055844297  0.9437787999448645  1.0000
  C   C252      1.0  0.47334139055549307  0.21636179440966297  0.9501571605572265  1.0000
  H   H165      1.0  0.5925524982108509  0.22574423989226788  0.927047394366289  1.0000
  H   H166      1.0  0.5795750424312153  0.1462553160249096  0.9144416307721857  1.0000
  H   H167      1.0  0.4314485254331023  0.15662475526858266  0.948622691888856  1.0000
  H   H168      1.0  0.44346838293833774  0.23586909059553895  0.9599489601127157  1.0000
  C   C253      1.0  0.5082027348454358  0.39288463206014673  0.650598673035476  1.0000
  C   C254      1.0  0.5382135900981792  0.41643610366201045  0.6708186812675416  1.0000
  C   C255      1.0  0.5362795289713215  0.4628960111742454  0.6712258636413262  1.0000
  C   C256      1.0  0.5031303753127017  0.4860552871563114  0.6521607107168752  1.0000
  C   C257      1.0  0.47295524026928265  0.46253380880879535  0.6319660184363846  1.0000
  C   C258      1.0  0.475612834290279  0.41600674879554544  0.6311018470866842  1.0000
  H   H169      1.0  0.5623870559542058  0.39899128104995996  0.6865372322048789  1.0000
  H   H170      1.0  0.559543457140142  0.4808538426390084  0.6869530062648527  1.0000
  H   H171      1.0  0.44752677168308636  0.4799550722629304  0.617055726639246  1.0000
  H   H172      1.0  0.45212845448466427  0.3979343439842795  0.6154903607842124  1.0000
  C   C259      1.0  0.4530685784879846  0.09505929328112125  0.68878256341254  1.0000
  C   C260      1.0  0.47236821918371336  0.13452630763439588  0.6776576813811372  1.0000
  C   C261      1.0  0.5099669338892395  0.15584343830204345  0.6939061946885748  1.0000
  C   C262      1.0  0.5290498238047429  0.13704000767273614  0.720756563489123  1.0000
  C   C263      1.0  0.5106938098264177  0.09690539788724181  0.7313503659224914  1.0000
  C   C264      1.0  0.4724748118868684  0.07602620352226912  0.7154413363925334  1.0000
  H   H173      1.0  0.4574868120275847  0.1492272172231752  0.6569934286580266  1.0000
  H   H174      1.0  0.5236583250123823  0.18704995876497163  0.6858501115385841  1.0000
  H   H175      1.0  0.5257948818662406  0.08211504205708488  0.7519585473460138  1.0000
  H   H176      1.0  0.4585986174980503  0.044810620452185874  0.7235575018843436  1.0000
  C   C265      1.0  0.9688776662738436  0.9169317263889442  0.031304329560128075  1.0000
  C   C266      1.0  0.9765753721219627  0.9234817308262881  0.00019224344759294354  1.0000
  C   C267      1.0  0.018597210700800115  0.9052642986743145  0.9861817534098596  1.0000
  C   C268      1.0  0.04293829505509206  0.9302763277218367  0.500443343054993  1.0000
  C   C269      1.0  0.06815476543737709  0.9455188793704359  0.5263162520741025  1.0000
  C   C270      1.0  0.054942096291403786  0.9864846443201775  0.5393311489998235  1.0000
  H   H177      1.0  0.9499795528377993  0.9422167576241296  0.9868156473638884  1.0000
  H   H178      1.0  0.023965521703223747  0.9098886221244008  0.9620415040925013  1.0000
  H   H179      1.0  0.0986875020202358  0.9263710910571263  0.5358135538280205  1.0000
  H   H180      1.0  0.07480716810673105  0.9984960878127214  0.5591251880997397  1.0000
  C   C271      1.0  0.7096276154540312  0.9711239115300575  0.9721012437751306  1.0000
  C   C272      1.0  0.664090352166647  0.9567231784294942  0.9609093470627658  1.0000
  C   C273      1.0  0.6478802971440788  0.9141091754469277  0.9678277580617508  1.0000
  C   C274      1.0  0.6774184963492934  0.8853937238126627  0.9855328615257319  1.0000
  C   C275      1.0  0.7227153200772468  0.9000040318884431  0.9972072096447712  1.0000
  C   C276      1.0  0.7389005933032419  0.9428840182695436  0.9904189400376793  1.0000
  H   H181      1.0  0.6410801138028956  0.9785001498536083  0.9469494486713862  1.0000
  H   H182      1.0  0.6120833000788026  0.9037187451767895  0.959616275538679  1.0000
  H   H183      1.0  0.7458702871073177  0.8778714596465181  0.010736225317554693  1.0000
  H   H184      1.0  0.7742386663356313  0.9537716323040666  0.9990936859086863  1.0000
  C   C277      1.0  0.7583196354257785  0.15487171236393307  0.5856139886975327  1.0000
  C   C278      1.0  0.7911062189907171  0.19012678446082698  0.5849801428154094  1.0000
  C   C279      1.0  0.7870882528772394  0.22440558700854504  0.6064765445726653  1.0000
  C   C280      1.0  0.750041159396734  0.22369527909743478  0.6285025466920859  1.0000
  C   C281      1.0  0.7179641299371962  0.18782680966770338  0.6297006345676005  1.0000
  C   C282      1.0  0.7220287259374223  0.15350273129921943  0.6081725873840033  1.0000
  H   H185      1.0  0.8191675169275809  0.19112631582356934  0.5677409432792698  1.0000
  H   H186      1.0  0.8120873296449145  0.2519877631814707  0.6057835820377577  1.0000
  H   H187      1.0  0.6900275093333068  0.1866568694050011  0.6470899424730914  1.0000
  H   H188      1.0  0.6970537527284751  0.12592485542784262  0.6088976013767655  1.0000
  C   C283      1.0  0.9288652192639857  0.9823790367370946  0.7972532407102493  1.0000
  C   C284      1.0  0.971668619002153  0.9703294605194793  0.8136040863609019  1.0000
  C   C285      1.0  0.009830273743443918  0.9465366376110386  0.7991326090294881  1.0000
  C   C286      1.0  0.004990784047279595  0.9348787935272109  0.7683930307117357  1.0000
  C   C287      1.0  0.960793283873609  0.9443552828671529  0.752734506059538  1.0000
  C   C288      1.0  0.922543058479068  0.9675910011920483  0.7673101348993389  1.0000
  H   H189      1.0  0.9766625716266409  0.9817808500068872  0.8367932833339973  1.0000
  H   H190      1.0  0.044247407884586254  0.9401896839531656  0.8111581796814752  1.0000
  H   H191      1.0  0.9567343648886386  0.935074474140041  0.7290263921826546  1.0000
  H   H192      1.0  0.888492887899345  0.9749430503244698  0.7551058290572125  1.0000
  C   C289      1.0  0.767444384751082  0.9894794000766516  0.6949000162561265  1.0000
  C   C290      1.0  0.7833770393848695  0.978289523079193  0.7244121189763161  1.0000
  C   C291      1.0  0.7728233292555667  0.9365132683421904  0.7365811206185884  1.0000
  C   C292      1.0  0.7456001061100797  0.90620103642066  0.7193953330025497  1.0000
  C   C293      1.0  0.7304171320680728  0.9172608401125398  0.6898007252206321  1.0000
  C   C294      1.0  0.7419961267310219  0.9584487959072289  0.6773804431507945  1.0000
  H   H193      1.0  0.8032430498320825  0.001910682873181191  0.7380867063564267  1.0000
  H   H194      1.0  0.7845596482448194  0.928269508060997  0.7595200149761948  1.0000
  H   H195      1.0  0.7099159792571325  0.8940939043008447  0.6762755442821393  1.0000
  H   H196      1.0  0.7304457639259873  0.9663475051072314  0.6543661588297586  1.0000
  C   C295      1.0  0.7685561560643681  0.2175791747626223  0.8151401581412232  1.0000
  C   C296      1.0  0.7264237906312566  0.23736839271954557  0.8278392453520896  1.0000
  C   C297      1.0  0.7229569206675899  0.24202215596359392  0.8594396715241945  1.0000
  C   C298      1.0  0.7617493682662423  0.22723473539676725  0.8782804561571116  1.0000
  C   C299      1.0  0.803634484809891  0.2070579956898102  0.8655496436691426  1.0000
  C   C300      1.0  0.8070950515584341  0.20213524326262683  0.8339451980664573  1.0000
  H   H197      1.0  0.6969651054947007  0.24978901638352327  0.8131377299298047  1.0000
  H   H198      1.0  0.6907385383124371  0.2576500975762164  0.8691272333468685  1.0000
  H   H199      1.0  0.8343821229175505  0.19720919226792255  0.8800651939528829  1.0000
  H   H200      1.0  0.8403647141213991  0.18798753926491635  0.8242016025456261  1.0000
  C   C301      1.0  0.7617370419210302  0.6686380472206471  0.8979086871652244  1.0000
  C   C302      1.0  0.7404394666598785  0.7051593913083783  0.9126953555944611  1.0000
  C   C303      1.0  0.707002704486406  0.7329447706415109  0.8970605579153049  1.0000
  C   C304      1.0  0.6948271233928137  0.7241619517053163  0.8666762455143204  1.0000
  C   C305      1.0  0.7180298573630978  0.688959660041444  0.8513621571996048  1.0000
  C   C306      1.0  0.7510203734947426  0.6607330150149454  0.8671513729126555  1.0000
  H   H201      1.0  0.7490811462864693  0.7115576098308302  0.936405071612146  1.0000
  H   H202      1.0  0.69013974602029  0.7608008043026708  0.9087593007253288  1.0000
  H   H203      1.0  0.7084568473461276  0.6820782316062092  0.8278581127152503  1.0000
  H   H204      1.0  0.7669365778333558  0.6322344572426875  0.8557530793183782  1.0000
  C   C307      1.0  0.00209423541629028  0.6243205900219397  0.846762165098818  1.0000
  C   C308      1.0  0.9681483705883692  0.6485876237285852  0.8642570208572987  1.0000
  C   C309      1.0  0.9693016588388218  0.6949855097428835  0.8644100261132246  1.0000
  C   C310      1.0  0.004074818830216653  0.7168812808624214  0.8468274014522214  1.0000
  C   C311      1.0  0.037417468145684474  0.6925744799678504  0.8289535761844802  1.0000
  C   C312      1.0  0.03687623235100035  0.6462350329951938  0.829223322026801  1.0000
  H   H205      1.0  0.9414168336167609  0.6316837215445664  0.8780510119799906  1.0000
  H   H206      1.0  0.9434851605742658  0.7137532148403614  0.8782900237572446  1.0000
  H   H207      1.0  0.06351095771012738  0.7093416602010674  0.8147373831707883  1.0000
  H   H208      1.0  0.06274727757192622  0.6275418841915601  0.8153659597926248  1.0000
  C   C313      1.0  0.7470216837768332  0.4737441950297376  0.7818827397137148  1.0000
  C   C314      1.0  0.7152907617184856  0.4666020092532093  0.8062410034436056  1.0000
  C   C315      1.0  0.6820921728542106  0.431444568929176  0.8052245583468006  1.0000
  C   C316      1.0  0.6801326464775941  0.4035165065117492  0.7797897961517154  1.0000
  C   C317      1.0  0.710671561511637  0.4114881060239614  0.7548879572666211  1.0000
  C   C318      1.0  0.7439530924142435  0.4468210069942948  0.7558824693578005  1.0000
  H   H209      1.0  0.7167755815852519  0.4876776189425912  0.8261820984433598  1.0000
  H   H210      1.0  0.6582600007451451  0.42554395118794536  0.8244455774107038  1.0000
  H   H211      1.0  0.7091376501739389  0.39013695645964414  0.7351202054529582  1.0000
  H   H212      1.0  0.7681433729904459  0.4526500653666739  0.7368368511729435  1.0000
  C   C319      1.0  0.7725755007446454  0.631061932186596  0.6699810526660211  1.0000
  C   C320      1.0  0.7602237706211987  0.672925000227223  0.6816404420841995  1.0000
  C   C321      1.0  0.7158314983309154  0.694051021577054  0.6726567145779034  1.0000
  C   C322      1.0  0.6834699804537024  0.672907754530453  0.6524897833058102  1.0000
  C   C323      1.0  0.6954289613138563  0.6307250195569913  0.6412875125822056  1.0000
  C   C324      1.0  0.7402094297818615  0.6100179105605402  0.6497534521939657  1.0000
  H   H213      1.0  0.7852989448576463  0.6893536991359385  0.6971707416073265  1.0000
  H   H214      1.0  0.7070788707199425  0.7269006206271412  0.6810752682233709  1.0000
  H   H215      1.0  0.6700414633316795  0.6140486551734011  0.6260662582230316  1.0000
  H   H216      1.0  0.7492464290079709  0.5774779042071204  0.6409397572694073  1.0000
  C   C325      1.0  0.9821768456937455  0.6085141113915481  0.5726843105935124  1.0000
  C   C326      1.0  0.9594094300952667  0.6268402145928255  0.5984139800658267  1.0000
  C   C327      1.0  0.9716060637349283  0.6695067546113538  0.6082942401727465  1.0000
  C   C328      1.0  0.0073369564479202065  0.6934043261149279  0.5928139046384274  1.0000
  C   C329      1.0  0.03159863540641217  0.6741805039063518  0.56791762680088  1.0000
  C   C330      1.0  0.018237112820475687  0.6321797523983713  0.557461008654269  1.0000
  H   H217      1.0  0.9320582833029206  0.6085400190672435  0.6106357515294962  1.0000
  H   H218      1.0  0.9530559204380135  0.6840829551643126  0.6277089648208345  1.0000
  H   H219      1.0  0.060472558052552694  0.6916112021630584  0.5565386918560254  1.0000
  H   H220      1.0  0.035433664626908445  0.6182013941054135  0.5374796583191684  1.0000
  C   C331      1.0  0.7341015037639685  0.4493500983835205  0.5484862122612556  1.0000
  C   C332      1.0  0.8083686383755818  0.46304645966752084  0.062065084670809734  1.0000
  C   C333      1.0  0.7717102079433853  0.4307180429492283  0.06091263672492664  1.0000
  C   C334      1.0  0.764159833468948  0.40611008906431706  0.03430482622304187  1.0000
  C   C335      1.0  0.7506620290319991  0.37245306192128086  0.5616084586988441  1.0000
  C   C336      1.0  0.7499944041158112  0.41734596023034837  0.5696107021423853  1.0000
  H   H221      1.0  0.8127949000187417  0.4830411823669326  0.0822594309111846  1.0000
  H   H222      1.0  0.7489697630323862  0.4249585036667419  0.08050436634566993  1.0000
  H   H223      1.0  0.7617460017775642  0.3477322995070091  0.5783046246687302  1.0000
  H   H224      1.0  0.7613543039897541  0.42710006840538917  0.592301283402982  1.0000
  C   C337      1.0  0.20482497827005464  0.3614442676518309  0.8482643299545417  1.0000
  C   C338      1.0  0.23500213424318858  0.391539737336118  0.8637339446195706  1.0000
  C   C339      1.0  0.26339064036063914  0.4217154165089038  0.8473061457301473  1.0000
  C   C340      1.0  0.26210764396783837  0.42116499536807156  0.8154518402614359  1.0000
  C   C341      1.0  0.235088542916627  0.3886964983818537  0.8001090345264504  1.0000
  C   C342      1.0  0.20654191603423924  0.35881216781493114  0.8165235110522175  1.0000
  H   H225      1.0  0.23431903570878046  0.3931506416067685  0.888353193623309  1.0000
  H   H226      1.0  0.2848420476288136  0.44626935758732295  0.8592602888278179  1.0000
  H   H227      1.0  0.23465599419537478  0.3877730169992292  0.7754741741598424  1.0000
  H   H228      1.0  0.1854219710944197  0.3340809585907406  0.8045936699519062  1.0000
  C   C343      1.0  0.12826178454157403  0.20602447179241015  0.7585232666945694  1.0000
  C   C344      1.0  0.15497197638858748  0.2206911414189178  0.7839637369544278  1.0000
  C   C345      1.0  0.19969670117408905  0.1995426488296479  0.7922954314990694  1.0000
  C   C346      1.0  0.21786128518027797  0.16384384383378475  0.7751048726298632  1.0000
  C   C347      1.0  0.19233646679129685  0.1507628985444185  0.748821280097575  1.0000
  C   C348      1.0  0.14798957894457243  0.17230999329905713  0.7402670793107934  1.0000
  H   H229      1.0  0.14121189296104478  0.24805449450236614  0.7974473000746123  1.0000
  H   H230      1.0  0.21971779185980808  0.21038214467120656  0.8123642179934548  1.0000
  H   H231      1.0  0.20595097311215824  0.12333019308769622  0.7355207532353432  1.0000
  H   H232      1.0  0.12788178067180472  0.16175054060257787  0.7202003057991438  1.0000
  C   C349      1.0  0.9538483779630402  0.13207437274942782  0.9195760240263662  1.0000
  C   C350      1.0  0.9742899801584534  0.14129512442209263  0.8911099474200749  1.0000
  C   C351      1.0  0.966618570327162  0.1831194376744917  0.877645922374929  1.0000
  C   C352      1.0  0.9381726527088342  0.21552371618037824  0.8925791542200056  1.0000
  C   C353      1.0  0.917719445763748  0.2061743460902415  0.920933918895897  1.0000
  C   C354      1.0  0.925925400477141  0.16469985421293232  0.9345529178225427  1.0000
  H   H233      1.0  0.9956216978128337  0.11599622193689559  0.8793372493711848  1.0000
  H   H234      1.0  0.9817431731344686  0.1899301370595089  0.8554629563851743  1.0000
  H   H235      1.0  0.8956343240464493  0.231204663087223  0.9323908089703833  1.0000
  H   H236      1.0  0.9111950830067417  0.15832314880554532  0.956824775887714  1.0000
  C   C355      1.0  0.9604829431674061  0.4204233677584042  0.7456947446064368  1.0000
  C   C356      1.0  0.9253594534793236  0.44903251042823766  0.7323742908983214  1.0000
  C   C357      1.0  0.9089954190474793  0.4419994618802526  0.7024757647845342  1.0000
  C   C358      1.0  0.9268063720858825  0.40547302939673274  0.6860549373185546  1.0000
  C   C359      1.0  0.9615309569871614  0.37632821621347623  0.6994034037976476  1.0000
  C   C360      1.0  0.9787038595111093  0.3839335090538546  0.7292259602497915  1.0000
  H   H237      1.0  0.9090241125091655  0.47539678327489543  0.7456265504476797  1.0000
  H   H238      1.0  0.8808090451264801  0.4636651309480241  0.6926616524497635  1.0000
  H   H239      1.0  0.9741508419300137  0.3475110595055329  0.6868104869768784  1.0000
  H   H240      1.0  0.005202242536106905  0.3611953897698806  0.7396181491363308  1.0000
  C   C361      1.0  0.24409021723878224  0.3924690550552944  0.6170022098358323  1.0000
  C   C362      1.0  0.2900865568400795  0.4129020334010646  0.6201346307846805  1.0000
  C   C363      1.0  0.2922679751775299  0.4590214578963652  0.6246577955115871  1.0000
  C   C364      1.0  0.24839448483249962  0.48415185750662515  0.6270067598130706  1.0000
  C   C365      1.0  0.202731885950045  0.4633545611913305  0.6251269895385866  1.0000
  C   C366      1.0  0.20063541762742032  0.41788261043641867  0.6195633540680165  1.0000
  H   H241      1.0  0.32388272759147513  0.3933657552798083  0.6181721248330315  1.0000
  H   H242      1.0  0.3276852008886554  0.4750200993479764  0.6261867560427188  1.0000
  H   H243      1.0  0.1687755092696382  0.48264774079812445  0.6272184513602768  1.0000
  H   H244      1.0  0.16513828252951987  0.4026693532123617  0.6176534732458726  1.0000
  C   C367      1.0  0.28932737770914146  0.1367777187411782  0.035411363725720735  1.0000
  C   C368      1.0  0.22056023002999123  0.12218181591946843  0.5514333801944908  1.0000
  C   C369      1.0  0.19156410224355186  0.155588187520364  0.5375584381703621  1.0000
  C   C370      1.0  0.20905197224324903  0.17747183457964372  0.5118312863697521  1.0000
  C   C371      1.0  0.21655321065880642  0.1834997462701095  0.043628949893720126  1.0000
  C   C372      1.0  0.26549406601496806  0.17117305829421728  0.05128166014172186  1.0000
  H   H245      1.0  0.2060983134186982  0.10396562687707171  0.5705196896068249  1.0000
  H   H246      1.0  0.15498226723002895  0.16336417346988763  0.546103488733365  1.0000
  H   H247      1.0  0.19828455609540138  0.2103633140532631  0.055674421170917476  1.0000
  H   H248      1.0  0.2850325089432061  0.18863926168503803  0.06912772283770674  1.0000
  C   C373      1.0  0.994524796510874  0.2443549610638248  0.6295736668687  1.0000
  C   C374      1.0  0.03534415073567243  0.21716039852935237  0.636702959920576  1.0000
  C   C375      1.0  0.032739328288286185  0.18711628087106597  0.6609369948918383  1.0000
  C   C376      1.0  0.9892301072784947  0.18406508527015314  0.6778741933090822  1.0000
  C   C377      1.0  0.9488648996331828  0.2120992573907278  0.6712345205396905  1.0000
  C   C378      1.0  0.9514302427897964  0.24204454201140535  0.6469336119084964  1.0000
  H   H249      1.0  0.06832218184813987  0.21842422154995614  0.6230605571183953  1.0000
  H   H250      1.0  0.06394695772547232  0.1653348297340741  0.6660430101731407  1.0000
  H   H251      1.0  0.9154907365364567  0.21019985046554943  0.6844602660182232  1.0000
  H   H252      1.0  0.9199080194612517  0.2632582500123548  0.6413638556889731  1.0000
  C   C379      1.0  0.013984714023595801  0.3830636447861002  0.9527328782781197  1.0000
  C   C380      1.0  0.007085180368404886  0.41106567845489944  0.9275842304287036  1.0000
  C   C381      1.0  0.9592019502655554  0.42363966238225503  0.9181071308033332  1.0000
  C   C382      1.0  0.9181600483148782  0.4076644739713812  0.9335403147131095  1.0000
  C   C383      1.0  0.9249645370017967  0.3786549650061717  0.9581379033675789  1.0000
  C   C384      1.0  0.9728858863304656  0.36629512803950237  0.9677592958776468  1.0000
  H   H253      1.0  0.038805214479913586  0.4237920535333482  0.9158071938298689  1.0000
  H   H254      1.0  0.9540782760250653  0.44583468207690785  0.898966725398715  1.0000
  H   H255      1.0  0.893129034492221  0.36685838018369327  0.9702450300618599  1.0000
  H   H256      1.0  0.9779386242067823  0.3450758936385105  0.9873855871673061  1.0000
  N   N1        1.0  0.372081618415336  0.30190611598302247  0.17420336724488944  1.0000
  C   C385      1.0  0.4065003108690511  0.31060699444662876  0.19981598865849462  1.0000
  C   C386      1.0  0.37603834025992905  0.33758740729601283  0.15129259998337333  1.0000
  C   C387      1.0  0.3207769410685286  0.3006797876285949  0.18563680843563163  1.0000
  C   C388      1.0  0.38511559791261896  0.25872269291322453  0.16011941996516627  1.0000
  H   H257      1.0  0.4049102563841997  0.284125902275163  0.21744749688173207  1.0000
  H   H258      1.0  0.3978831388357545  0.3428526058231976  0.21108858573982453  1.0000
  H   H259      1.0  0.4455864708299832  0.31169415430258846  0.1920172979229581  1.0000
  H   H260      1.0  0.3500035653895367  0.33255672941946  0.1318057838837795  1.0000
  H   H261      1.0  0.367253604450978  0.3707780702579142  0.16127787945449124  1.0000
  H   H262      1.0  0.41416260708841474  0.3390964450868342  0.1419367176174076  1.0000
  H   H263      1.0  0.3164603641918543  0.27430190759115086  0.20315914763526055  1.0000
  H   H264      1.0  0.29375984890158824  0.2939662341100627  0.16693365883465283  1.0000
  H   H265      1.0  0.3095726241330219  0.3327470147323447  0.19635274532356814  1.0000
  H   H266      1.0  0.3610451242624697  0.251608664406031  0.14003860584624425  1.0000
  H   H267      1.0  0.3808882682382779  0.2309518013065392  0.17652392967030167  1.0000
  H   H268      1.0  0.42431417970356206  0.2576820655179186  0.152447677366773  1.0000
  N   N2        1.0  0.07289924382440871  0.732607271840823  0.4285310441192006  1.0000
  C   C389      1.0  0.044913555400584615  0.7069436583618385  0.45105116205812784  1.0000
  C   C390      1.0  0.11096462320231715  0.7035495270277973  0.41449937387835417  1.0000
  C   C391      1.0  0.09704377784628404  0.7703558827551297  0.44377416966031097  1.0000
  C   C392      1.0  0.03856399175698666  0.7496325736176067  0.40476173251524894  1.0000
  H   H269      1.0  0.016089681366880715  0.7279419661743001  0.46226408884695785  1.0000
  H   H270      1.0  0.06977620578666022  0.6934716621559994  0.4693023971610102  1.0000
  H   H271      1.0  0.026036064071710108  0.67839558804839  0.4401798147503496  1.0000
  H   H272      1.0  0.09412274569050494  0.6749113838707199  0.40252795334750824  1.0000
  H   H273      1.0  0.13309004459829965  0.7219134935248511  0.39762414053202066  1.0000
  H   H274      1.0  0.13752944214177854  0.6902246003480824  0.43187194712757404  1.0000
  H   H275      1.0  0.11733617364897042  0.7911722641766256  0.42734499365294526  1.0000
  H   H276      1.0  0.12443003634855909  0.7587897191400231  0.46119484657659954  1.0000
  H   H277      1.0  0.06954969014153556  0.7925989594964608  0.45507334533720095  1.0000
  H   H278      1.0  0.008566757110055834  0.77075185492817  0.4146252075435111  1.0000
  H   H279      1.0  0.020738944631459866  0.7221557863844088  0.3919948318127569  1.0000
  H   H280      1.0  0.05815520878663505  0.7703860761754038  0.3879571143289695  1.0000
  N   N3        1.0  0.1375676751456012  0.8417044429700246  0.18966304552141486  1.0000
  C   C393      1.0  0.15207746027480218  0.8510187447537846  0.15796084121006165  1.0000
  C   C394      1.0  0.09462030850155423  0.8701789323928635  0.19776301494348575  1.0000
  C   C395      1.0  0.17948967140218539  0.850926216586049  0.2104957325535659  1.0000
  C   C396      1.0  0.1239263104846985  0.7946263673413834  0.1924239416973485  1.0000
  H   H281      1.0  0.12062743481808068  0.8461562842637188  0.14178878527370914  1.0000
  H   H282      1.0  0.18234366997894216  0.8281602857308223  0.15044936836226652  1.0000
  H   H283      1.0  0.165308649814966  0.8855185081224436  0.1554023401345903  1.0000
  H   H284      1.0  0.08106335717288782  0.8622803957828451  0.22093285681256275  1.0000
  H   H285      1.0  0.10441464363452968  0.905888150037542  0.19776115391639212  1.0000
  H   H286      1.0  0.06308809007925253  0.8655518869273665  0.18163757982321824  1.0000
  H   H287      1.0  0.16947417182502408  0.8451741766246128  0.23462663931456673  1.0000
  H   H288      1.0  0.19156829547682985  0.8859636704267942  0.20880181415142943  1.0000
  H   H289      1.0  0.21221580734313267  0.8294193869936362  0.20547888624704871  1.0000
  H   H290      1.0  0.11632474373331968  0.7854064119086551  0.21640089501293097  1.0000
  H   H291      1.0  0.15413670422829792  0.7721949711832845  0.18423207184461143  1.0000
  H   H292      1.0  0.09030253124373974  0.7871516091471705  0.17866044153407182  1.0000
  N   N4        1.0  0.10531368631552551  0.5689800450106695  0.2733803729270663  1.0000
  C   C397      1.0  0.1552958148586379  0.5725107172709346  0.2603071429040787  1.0000
  C   C398      1.0  0.0679894891518693  0.5835378696163139  0.25047914561219753  1.0000
  C   C399      1.0  0.10162889906178683  0.5974718201540733  0.3007305236934819  1.0000
  C   C400      1.0  0.0963877085383964  0.5224644665602918  0.2821110932917253  1.0000
  H   H293      1.0  0.16255694171017643  0.6068485690253265  0.25259490064168916  1.0000
  H   H294      1.0  0.1602907018511464  0.5500499080066749  0.24042271014021033  1.0000
  H   H295      1.0  0.1844865947330206  0.5640412752739503  0.2773402040993672  1.0000
  H   H296      1.0  0.02975409113335004  0.5776501463605608  0.2585014215410319  1.0000
  H   H297      1.0  0.07119121706735675  0.6195597866660508  0.24531782258201873  1.0000
  H   H298      1.0  0.07230637230003456  0.5654994478746512  0.22859473320265788  1.0000
  H   H299      1.0  0.06464779338516724  0.5949318734920654  0.311474850752594  1.0000
  H   H300      1.0  0.10714993156579578  0.6330098512434058  0.2950338628244798  1.0000
  H   H301      1.0  0.12999681919329936  0.5879254111104454  0.3181928317050261  1.0000
  H   H302      1.0  0.09953531029568707  0.4997398707233926  0.2622676737679177  1.0000
  H   H303      1.0  0.058703494303415475  0.5186294442949274  0.2918111602184156  1.0000
  H   H304      1.0  0.1234840569141858  0.5107909066149824  0.2997056797613503  1.0000
  N   N5        1.0  0.38933262888873127  0.6392714345327568  0.23019971662188288  1.0000
  C   C401      1.0  0.3851868817797886  0.642067533020456  0.2636230714925666  1.0000
  C   C402      1.0  0.395977827610282  0.6842145686718012  0.21754981625044476  1.0000
  C   C403      1.0  0.3436882098584943  0.6199370114064529  0.21744978813735907  1.0000
  C   C404      1.0  0.4324101594420976  0.610695568791247  0.22240574978471317  1.0000
  H   H305      1.0  0.41872536450449427  0.6569932889678592  0.27402350819207216  1.0000
  H   H306      1.0  0.3808876199280523  0.6085537440460227  0.2738371720455353  1.0000
  H   H307      1.0  0.35245010649491454  0.6625260850513262  0.2704108548373967  1.0000
  H   H308      1.0  0.3995405091257669  0.6833415818033419  0.1923348327962304  1.0000
  H   H309      1.0  0.36383866283481414  0.7065015235311519  0.22267442537106374  1.0000
  H   H310      1.0  0.4297356396430721  0.700134647752582  0.2269687279956093  1.0000
  H   H311      1.0  0.3103492981146676  0.6403022265607817  0.223315975061246  1.0000
  H   H312      1.0  0.3379899128574419  0.5857051582022862  0.2261884223423477  1.0000
  H   H313      1.0  0.34523483533782456  0.6179244767409965  0.19225208483858844  1.0000
  H   H314      1.0  0.4368059004838446  0.6076058255087771  0.19734643058950024  1.0000
  H   H315      1.0  0.42823863792376293  0.5764085213959088  0.231382268706354  1.0000
  H   H316      1.0  0.4674128724639877  0.6241056558448123  0.23199002066387375  1.0000
  N   N6        1.0  0.7936963121608199  0.0730603508764136  0.8832599848268049  1.0000
  C   C405      1.0  0.8461429258498008  0.08583237513772457  0.8861945043642859  1.0000
  C   C406      1.0  0.7631344995739616  0.10002983976611546  0.9042867563934468  1.0000
  C   C407      1.0  0.7892286276818812  0.025577636523733016  0.8909236803689617  1.0000
  C   C408      1.0  0.7762512373511832  0.08063045249259959  0.8516568863209408  1.0000
  H   H317      1.0  0.8514635425367298  0.12115554749621427  0.8800938716474849  1.0000
  H   H318      1.0  0.870435820301979  0.06562287397453748  0.8710207616472889  1.0000
  H   H319      1.0  0.8601788145307222  0.08117444818889497  0.9098979902607727  1.0000
  H   H320      1.0  0.7233527315778687  0.09118098853419876  0.9027633703992185  1.0000
  H   H321      1.0  0.7748010103690939  0.09482558740593872  0.9283236685264981  1.0000
  H   H322      1.0  0.7660226983267387  0.13609146212319745  0.899519874358863  1.0000
  H   H323      1.0  0.8111738086704341  0.004288138135857933  0.8750911931163263  1.0000
  H   H324      1.0  0.7499821743019974  0.014920825909527258  0.8899130598680118  1.0000
  H   H325      1.0  0.8029166434644265  0.018642508676970593  0.9144673167158778  1.0000
  H   H326      1.0  0.7368773206195985  0.07120216529323886  0.8486566840903977  1.0000
  H   H327      1.0  0.7985389715209316  0.060954870779597936  0.8351383344391926  1.0000
  H   H328      1.0  0.7791595836304179  0.11607878611671851  0.845105230724749  1.0000
  N   N7        1.0  0.157154338922866  0.03701559560946621  0.4720712953948466  1.0000
  C   C409      1.0  0.11941259234692714  0.05931799251804826  0.4911603384311452  1.0000
  C   C410      1.0  0.20692627437510613  0.04993726148040789  0.48262282392040023  1.0000
  C   C411      1.0  0.1499480154476207  0.050594367284268804  0.4399716616296027  1.0000
  C   C412      1.0  0.1525695095605002  0.9883410079714187  0.47447829088555626  1.0000
  H   H329      1.0  0.12355790697880886  0.049698286696698624  0.5155381783990941  1.0000
  H   H330      1.0  0.0812454254984758  0.05062495655366184  0.4838032112334683  1.0000
  H   H331      1.0  0.1222863689033733  0.09611178181802593  0.4900947437854235  1.0000
  H   H332      1.0  0.23630314216920278  0.033532249826511595  0.46889893254253656  1.0000
  H   H333      1.0  0.21192282183093547  0.08633854610293379  0.4806487347507875  1.0000
  H   H334      1.0  0.213561526170144  0.04057817163211985  0.5068682467964865  1.0000
  H   H335      1.0  0.17799233951436588  0.03441772208835925  0.4249675238152756  1.0000
  H   H336      1.0  0.15341077008391335  0.08712730921307155  0.43728584639772905  1.0000
  H   H337      1.0  0.1127483252445014  0.04116647922743355  0.4312762620512633  1.0000
  H   H338      1.0  0.1580021989869198  0.9768141661912447  0.4983626937102741  1.0000
  H   H339      1.0  0.18058501651978087  0.9706223474733672  0.46024962363306626  1.0000
  H   H340      1.0  0.11541477048115056  0.9772614959313406  0.46672849266824973  1.0000
  N   N8        1.0  0.3468474900490775  0.06537290221081542  0.8556626333204543  1.0000
  C   C413      1.0  0.38208904729914656  0.08590428804907063  0.8346132047786082  1.0000
  C   C414      1.0  0.3746947866037844  0.04025259852440733  0.879185938731759  1.0000
  C   C415      1.0  0.31423572765874863  0.0349132444716993  0.8387153023343579  1.0000
  C   C416      1.0  0.3164151638921731  0.10035544151738861  0.8703921623158892  1.0000
  H   H341      1.0  0.4071825354056254  0.1089199484256511  0.8468888112577977  1.0000
  H   H342      1.0  0.3624002221391334  0.10522612103973718  0.8164781779291268  1.0000
  H   H343      1.0  0.40577229359131994  0.06036014970063631  0.8233262725740943  1.0000
  H   H344      1.0  0.34918212941084703  0.02592788306243832  0.8960139047567476  1.0000
  H   H345      1.0  0.3964078314759582  0.012253731862449824  0.8692137956709878  1.0000
  H   H346      1.0  0.4012022360063549  0.06168086881774946  0.8917231870552589  1.0000
  H   H347      1.0  0.2878428559696244  0.018332490820772707  0.8541610121044638  1.0000
  H   H348      1.0  0.3358096823354927  0.00819856009086939  0.8270554346033848  1.0000
  H   H349      1.0  0.2920193666494567  0.0529538355036201  0.8210996325907894  1.0000
  H   H350      1.0  0.28925615564289203  0.08581558784801321  0.8863412953741883  1.0000
  H   H351      1.0  0.29513608791475765  0.12027041283434707  0.8531946438818854  1.0000
  H   H352      1.0  0.3397959740984857  0.12352803836151255  0.8837841107065441  1.0000
  N   N9        1.0  0.8087193513052121  0.359108860999962  0.8479555721761557  1.0000
  C   C417      1.0  0.7849529919553864  0.33770640818213055  0.8214374158717656  1.0000
  C   C418      1.0  0.806421650435669  0.32958880787561834  0.8746609090440769  1.0000
  C   C419      1.0  0.782187024576211  0.40117876253337337  0.8545811794212393  1.0000
  C   C420      1.0  0.86115168396827  0.36785739698829256  0.8411595066421506  1.0000
  H   H353      1.0  0.7457463217861475  0.32951286059166873  0.8262417806119087  1.0000
  H   H354      1.0  0.8045899887279678  0.3063123923794853  0.8151613318080343  1.0000
  H   H355      1.0  0.784087588426636  0.36010246169349225  0.8013772891692043  1.0000
  H   H356      1.0  0.8249244197729605  0.3442841217062512  0.8949553747641779  1.0000
  H   H357      1.0  0.7675557102598485  0.32276470981696237  0.8808790565699008  1.0000
  H   H358      1.0  0.8257129253519109  0.2973935998653532  0.8702914956876553  1.0000
  H   H359      1.0  0.7415865349558041  0.39632158180995464  0.8567987784235919  1.0000
  H   H360      1.0  0.7882496700203224  0.42603961625585174  0.8364525420531318  1.0000
  H   H361      1.0  0.79478276004182  0.4159786064419654  0.8762857774717735  1.0000
  H   H362      1.0  0.86487236223238  0.3898842385168977  0.8210180182607543  1.0000
  H   H363      1.0  0.8820182710095424  0.33649313104557466  0.8364414340849299  1.0000
  H   H364      1.0  0.879999221422582  0.38389091562729266  0.8608898631936371  1.0000
  N   N10       1.0  0.5539851275222034  0.2851330543912973  0.04350585834253806  1.0000
  C   C421      1.0  0.6034360105525644  0.2962628189039529  0.055725600612529846  1.0000
  C   C422      1.0  0.5582657812757541  0.24624959983846142  0.02311645349040482  1.0000
  C   C423      1.0  0.5333642761849332  0.3236942065640428  0.02663450887253805  1.0000
  C   C424      1.0  0.5206548075361294  0.27430466122227576  0.06874415859068092  1.0000
  H   H365      1.0  0.6202946640220685  0.26820671803257207  0.06879810896916136  1.0000
  H   H366      1.0  0.6015597567494245  0.32556481413311594  0.07111798267657451  1.0000
  H   H367      1.0  0.629510900539743  0.3045245511381857  0.03721260888108878  1.0000
  H   H368      1.0  0.5215365169341141  0.23677091694266747  0.013649357726711607  1.0000
  H   H369      1.0  0.5822342003035718  0.2531777663043233  0.0034120680565143946  1.0000
  H   H370      1.0  0.5744758314276273  0.2169491493533782  0.035305603369135595  1.0000
  H   H371      1.0  0.4967643256681616  0.3162124666440136  0.016123017315055277  1.0000
  H   H372      1.0  0.5582316910033913  0.3335569112378212  0.007910715137262601  1.0000
  H   H373      1.0  0.5285603688149045  0.35309747629013555  0.04179465181332703  1.0000
  H   H374      1.0  0.4830543458140703  0.265920827898679  0.060159437779290025  1.0000
  H   H375      1.0  0.5165009870693721  0.3028658247870753  0.08464762745361656  1.0000
  H   H376      1.0  0.5351081514740818  0.24513006711982677  0.08183456587743375  1.0000
  N   N11       1.0  0.3361319688650695  0.7578864381287996  0.5439808782461639  1.0000
  C   C425      1.0  0.331883114653405  0.7599133792001699  0.5775193305147374  1.0000
  C   C426      1.0  0.3104299585834974  0.7183529330713033  0.5323568535879046  1.0000
  C   C427      1.0  0.38895781648809846  0.755175335312841  0.5356100834357541  1.0000
  C   C428      1.0  0.31315971256751163  0.7980714834730815  0.530354059578722  1.0000
  H   H377      1.0  0.3521785961917954  0.731912765666699  0.5887491864461709  1.0000
  H   H378      1.0  0.29262917455353876  0.7583760117023632  0.5848515853496794  1.0000
  H   H379      1.0  0.34723163293912596  0.7911340832703826  0.5869457629772311  1.0000
  H   H380      1.0  0.269705876622809  0.7209465111529815  0.5357563819438479  1.0000
  H   H381      1.0  0.31728209122931794  0.713135205760459  0.5076666488974727  1.0000
  H   H382      1.0  0.32368682974752977  0.687871822145942  0.5440821181811115  1.0000
  H   H383      1.0  0.4092703955991945  0.7847586439141573  0.5437218988694185  1.0000
  H   H384      1.0  0.39353402895664125  0.7532645117081027  0.5104446900647037  1.0000
  H   H385      1.0  0.40736169377271486  0.7252185959377291  0.545629671707807  1.0000
  H   H386      1.0  0.3162366597667317  0.7979184449111107  0.5050807986710371  1.0000
  H   H387      1.0  0.33078976415966127  0.8286612504275299  0.5390579820470639  1.0000
  H   H388      1.0  0.27339598164341694  0.8009039122163663  0.5362091187619671  1.0000
  N   N12       1.0  0.30224123171024453  0.023322279437402615  0.10425150085678976  1.0000
  C   C429      1.0  0.3553447276507985  0.013854324167831056  0.09891444069492522  1.0000
  C   C430      1.0  0.2819965300051465  0.9890762753066894  0.12447485825037562  1.0000
  C   C431      1.0  0.2750593003136222  0.02289956123326009  0.07489669480017333  1.0000
  C   C432      1.0  0.29655341882672503  0.06744961609785771  0.11863840973184496  1.0000
  H   H389      1.0  0.3720023041153723  0.03973327406855631  0.08429078587683214  1.0000
  H   H390      1.0  0.36107136669773493  0.9813165845310042  0.08741284800020183  1.0000
  H   H391      1.0  0.3769498611044089  0.013084943534866111  0.12067556996697484  1.0000
  H   H392      1.0  0.282647715580627  0.9558588789304193  0.11339390599002593  1.0000
  H   H393      1.0  0.30396271537294867  0.9860728614388774  0.14596613587454418  1.0000
  H   H394      1.0  0.243018010406125  0.9968128399093266  0.1307256790092801  1.0000
  H   H395      1.0  0.2788439025619518  0.9900998587344888  0.06336678552463607  1.0000
  H   H396      1.0  0.2894918674198795  0.0482651811273076  0.059128561611893726  1.0000
  H   H397      1.0  0.23494134861843483  0.030210016053253685  0.07798508805412323  1.0000
  H   H398      1.0  0.2569562323388805  0.07690564444239412  0.12162844602753005  1.0000
  H   H399      1.0  0.31390940429639397  0.09373393304507416  0.10466903979760739  1.0000
  H   H400      1.0  0.3146879703719302  0.06816125128219408  0.141478772166693  1.0000
  N   N13       1.0  0.8345698070120884  0.30953279371938713  0.7218658606240433  1.0000
  C   C433      1.0  0.8641554967510131  0.27919934327079104  0.7415404664950079  1.0000
  C   C434      1.0  0.7817641010172104  0.2986189167591779  0.7238784512461363  1.0000
  C   C435      1.0  0.8508043909454527  0.30439730819106525  0.6899829045400524  1.0000
  C   C436      1.0  0.8411876964530195  0.3557732491858487  0.7319999917283189  1.0000
  H   H401      1.0  0.8583618425929752  0.24396853821465472  0.7351129058514402  1.0000
  H   H402      1.0  0.85373884531561  0.2826841341573196  0.7658836537418344  1.0000
  H   H403      1.0  0.90447629740107  0.2855013543297201  0.739615015748843  1.0000
  H   H404      1.0  0.7754502068354059  0.2637362736705128  0.7166304776427168  1.0000
  H   H405      1.0  0.767885269765559  0.30205965132070944  0.7475562665005796  1.0000
  H   H406      1.0  0.7585820828702688  0.32059133135744183  0.7089836568586461  1.0000
  H   H407      1.0  0.8907416584792354  0.31151328321958704  0.6875059915630152  1.0000
  H   H408      1.0  0.8299409945666737  0.32724519260945517  0.6743832914686756  1.0000
  H   H409      1.0  0.8447163000299777  0.270105272971108  0.6814824166154444  1.0000
  H   H410      1.0  0.8236811379312272  0.36219427877045823  0.7543395042605684  1.0000
  H   H411      1.0  0.8248408807545131  0.37987828148890634  0.715356930293303  1.0000
  H   H412      1.0  0.8808057380156461  0.3632482334938317  0.734889178360351  1.0000
  N   N14       1.0  0.15993446087392926  0.5587361026783579  0.5498679242381347  1.0000
  C   C437      1.0  0.12948053327020959  0.5690539803824152  0.5225744558998854  1.0000
  C   C438      1.0  0.1301270671737862  0.566307072442424  0.5775287221383125  1.0000
  C   C439      1.0  0.203491797035956  0.5878130509312215  0.5507024690255914  1.0000
  C   C440      1.0  0.17657139063943172  0.5118047650426424  0.5486525944849022  1.0000
  H   H413      1.0  0.1507550335894996  0.5635564112331889  0.5012861518387395  1.0000
  H   H414      1.0  0.1170138628934716  0.6043907584145045  0.5225662768783581  1.0000
  H   H415      1.0  0.09595338661093633  0.5480315008478074  0.5214479793246989  1.0000
  H   H416      1.0  0.15192792556021417  0.5583680082935732  0.5985597038228134  1.0000
  H   H417      1.0  0.11752243014705344  0.6015663788004542  0.5793434425149669  1.0000
  H   H418      1.0  0.09643175222143308  0.5454773712779515  0.5775117780394775  1.0000
  H   H419      1.0  0.22732764842816855  0.5808247458316058  0.5710335468247255  1.0000
  H   H420      1.0  0.19215943008702796  0.623480642666735  0.5517347039091436  1.0000
  H   H421      1.0  0.2267510535895072  0.5833639208498815  0.5301096310595178  1.0000
  H   H422      1.0  0.1979914870600783  0.5046277987308176  0.5276531818458701  1.0000
  H   H423      1.0  0.14461222082851188  0.4888749798748606  0.5488502531723031  1.0000
  H   H424      1.0  0.20093599531643758  0.5032573487525263  0.5684143136653633  1.0000
  N   N15       1.0  0.3206994109848242  0.17280065438606124  0.6227283625091904  1.0000
  C   C441      1.0  0.36246761961199786  0.1582481043325301  0.6034054204245808  1.0000
  C   C442      1.0  0.3401909559174228  0.19133551027724377  0.6515549878413275  1.0000
  C   C443      1.0  0.2894777053706866  0.13433029983232272  0.6295553212534096  1.0000
  C   C444      1.0  0.2908203394801187  0.20705712832602702  0.6064465061885331  1.0000
  H   H425      1.0  0.34912086520397173  0.14456034586522376  0.5812944320529496  1.0000
  H   H426      1.0  0.3851801659904065  0.1317306235858293  0.6147578483792593  1.0000
  H   H427      1.0  0.3872961646006619  0.1862445819841759  0.5981452397674317  1.0000
  H   H428      1.0  0.3097137014074225  0.20276043009406344  0.6666878542117901  1.0000
  H   H429      1.0  0.3625608126767593  0.16607559277481665  0.6644461948538554  1.0000
  H   H430      1.0  0.36436474712623956  0.2202125829301776  0.6473501974519142  1.0000
  H   H431      1.0  0.2741052631135288  0.11947699140579479  0.6083984029186918  1.0000
  H   H432      1.0  0.25777048523451934  0.1438066512466484  0.6443194563102469  1.0000
  H   H433      1.0  0.31115898956699045  0.10769539959735368  0.6414582149092195  1.0000
  H   H434      1.0  0.2587347337484969  0.2187229645176147  0.6201936690333085  1.0000
  H   H435      1.0  0.2758864378500583  0.19418792245779723  0.5844504177427478  1.0000
  H   H436      1.0  0.31311077132819287  0.23678165952404634  0.6011133261760877  1.0000
  N   N16       1.0  0.10036950266355026  0.8104130840762671  0.6702579701626161  1.0000
  C   C445      1.0  0.06161516912922638  0.7836488668193462  0.6845720144626982  1.0000
  C   C446      1.0  0.13336307928467375  0.7811738012739172  0.652200056976742  1.0000
  C   C447      1.0  0.12960649152253093  0.8326244086652739  0.69418040707735  1.0000
  C   C448      1.0  0.0769702419959486  0.8442678172656769  0.6502577629285963  1.0000
  H   H437      1.0  0.036575020432404674  0.8046575842871228  0.6987283983209267  1.0000
  H   H438      1.0  0.07816398502276267  0.7574040130713298  0.6995307416327458  1.0000
  H   H439      1.0  0.03851460831640141  0.7666910474963032  0.6671094079013075  1.0000
  H   H440      1.0  0.11242019811186066  0.7635301644855049  0.6341274293581755  1.0000
  H   H441      1.0  0.1631283428197972  0.8001700615560343  0.6409977773089081  1.0000
  H   H442      1.0  0.15164996443885376  0.755351676393703  0.6667002134342863  1.0000
  H   H443      1.0  0.10650845552304665  0.8564192645688093  0.7074532951799849  1.0000
  H   H444      1.0  0.1605784367853377  0.8514751401065306  0.6843592031694565  1.0000
  H   H445      1.0  0.1457096335344706  0.8080841373516119  0.7104004894108651  1.0000
  H   H446      1.0  0.10526942621282376  0.8646350426160765  0.6388772971236567  1.0000
  H   H447      1.0  0.0525339086380645  0.8672871554560755  0.663355294978584  1.0000
  H   H448      1.0  0.05392479446547304  0.8287115701760981  0.6321607364587876  1.0000
  N   N17       1.0  0.33387462795901135  0.5469236247690701  0.9817127217058573  1.0000
  C   C449      1.0  0.34886550664462096  0.5840736643201492  0.9620588594560228  1.0000
  C   C450      1.0  0.3581521074893024  0.5053556513946398  0.9713798749661596  1.0000
  C   C451      1.0  0.27955559829857785  0.5422058077757256  0.980197368827876  1.0000
  C   C452      1.0  0.3488393459976213  0.5559471443756194  0.013497493793525049  1.0000
  H   H449      1.0  0.3383211294831988  0.5783236464128821  0.9378237807063401  1.0000
  H   H450      1.0  0.3897492630926776  0.5884837984297421  0.9627530399758146  1.0000
  H   H451      1.0  0.33112305891311833  0.615950733495091  0.9692682718206282  1.0000
  H   H452      1.0  0.3467585711822575  0.4764568627591682  0.9852378878264568  1.0000
  H   H453      1.0  0.34904687781934207  0.4981381966365848  0.9471034961443161  1.0000
  H   H454      1.0  0.3992118035852506  0.5074154719533875  0.9732194620175485  1.0000
  H   H455      1.0  0.2671862160260543  0.5141032876453855  0.9945385793517232  1.0000
  H   H456      1.0  0.2666102600518449  0.5363804611133216  0.9564310004266869  1.0000
  H   H457      1.0  0.26026727764036417  0.5725338418083559  0.9889718739521007  1.0000
  H   H458      1.0  0.3298477320830451  0.5862722162159933  0.02232790192756008  1.0000
  H   H459      1.0  0.3895391831039973  0.5608220376706756  0.015685042828834206  1.0000
  H   H460      1.0  0.33868714464741  0.5280659532234928  0.02865657953795141  1.0000
  N   N18       1.0  0.026066158314676624  0.49401778935597035  0.009882745880093413  1.0000
  C   C453      1.0  0.039981882981373174  0.49608786901786184  0.9774522563904061  1.0000
  C   C454      1.0  0.07085589056194097  0.48604429220468387  0.02883350505819493  1.0000
  C   C455      1.0  0.9911740213710223  0.4574451899267319  0.014547351829966582  1.0000
  C   C456      1.0  0.0022007498987528518  0.5364699145470672  0.0187225081333513  1.0000
  H   H461      1.0  0.06060700885524284  0.46564709897219747  0.9704225051019006  1.0000
  H   H462      1.0  0.06418551437950182  0.5247430533358831  0.9728674808286127  1.0000
  H   H463      1.0  0.006662668899394042  0.4992696709949049  0.9623780067909514  1.0000
  H   H464      1.0  0.08947260358924347  0.45402149949016846  0.022634730681371673  1.0000
  H   H465      1.0  0.09827828839849806  0.5127727990705999  0.025864333576150367  1.0000
  H   H466      1.0  0.061605867257932045  0.48408713711685664  0.05345723239349187  1.0000
  H   H467      1.0  0.9580424535027889  0.46069566407181384  0.9993276603760004  1.0000
  H   H468      1.0  0.97746300792834  0.4566644363403654  0.03837708738346923  1.0000
  H   H469      1.0  0.009047494349485374  0.4247160459201289  0.010021649995002324  1.0000
  H   H470      1.0  0.9900495980348047  0.5355907941786764  0.04281532703185542  1.0000
  H   H471      1.0  0.9684915756934203  0.543473400531715  0.004558407893012761  1.0000
  H   H472      1.0  0.0275434961410006  0.5648516275144085  0.01608564628452802  1.0000
  N   N19       1.0  0.6437379356495477  0.07532213292358358  0.46377776628339823  1.0000
  C   C457      1.0  0.611213326038815  0.03674639495149079  0.4673839786029001  1.0000
  C   C458      1.0  0.6712295960565894  0.08346301370468545  0.4924851106450938  1.0000
  C   C459      1.0  0.6131861350362126  0.11483488775080342  0.4562137455209189  1.0000
  C   C460      1.0  0.6789924201652441  0.0667347848005797  0.43881961273351344  1.0000
  H   H473      1.0  0.5902741841597643  0.029692613148659674  0.445986611100136  1.0000
  H   H474      1.0  0.5832793895254572  0.042592629522848036  0.4854848650143547  1.0000
  H   H475      1.0  0.6327130578957141  0.0061855708945166565  0.4734793732193103  1.0000
  H   H476      1.0  0.6950824656697308  0.054588248594947375  0.4989384209263669  1.0000
  H   H477      1.0  0.6958159094737743  0.11261395691056286  0.4905225577180453  1.0000
  H   H478      1.0  0.6456979846368297  0.09012835724528179  0.5117362388983745  1.0000
  H   H479      1.0  0.5857364884932783  0.12244602381831537  0.47429584169333633  1.0000
  H   H480      1.0  0.5926877076300036  0.1101400253183964  0.4343964511703348  1.0000
  H   H481      1.0  0.6363976466721566  0.14446422681927995  0.453325314326469  1.0000
  H   H482      1.0  0.6595162172317345  0.06362533889919897  0.4164804080305841  1.0000
  H   H483      1.0  0.7004575423065952  0.035528222765066175  0.44256835429154945  1.0000
  H   H484      1.0  0.7058227518833984  0.09418010904198448  0.4366075131305196  1.0000
  N   N20       1.0  0.5561860605404583  0.6345811095865521  0.8730352881242429  1.0000
  C   C461      1.0  0.5376397293664571  0.6137470774636838  0.901069834103373  1.0000
  C   C462      1.0  0.5489828640658374  0.6045663080447418  0.8467498927236813  1.0000
  C   C463      1.0  0.6095216296749809  0.6432529780531164  0.8766429166143058  1.0000
  C   C464      1.0  0.5291481612341746  0.6769289747223121  0.8675922132920233  1.0000
  H   H485      1.0  0.5416292994480175  0.6360781080635323  0.9211381325491642  1.0000
  H   H486      1.0  0.5579961517592741  0.5822447751192628  0.9062682302806706  1.0000
  H   H487      1.0  0.4976504712083628  0.6057976346909483  0.8989679278157583  1.0000
  H   H488      1.0  0.5602435004654368  0.6204002950411375  0.8250415439108069  1.0000
  H   H489      1.0  0.5708881473858379  0.573215222953718  0.8494750510041855  1.0000
  H   H490      1.0  0.5096753526321934  0.595291547247509  0.8439013763701764  1.0000
  H   H491      1.0  0.6245161967832075  0.6576632836902483  0.8554322115491676  1.0000
  H   H492      1.0  0.6312054060176356  0.6123410274794483  0.8816131712189346  1.0000
  H   H493      1.0  0.6167646245354211  0.6671936315042309  0.8954099928038428  1.0000
  H   H494      1.0  0.5332959453893709  0.699968034630144  0.88718310596281  1.0000
  H   H495      1.0  0.4887921961349277  0.6717607730567658  0.8645295165045871  1.0000
  H   H496      1.0  0.5429326432972557  0.6942305354794681  0.8469886117127993  1.0000
  N   N21       1.0  0.8574037763067468  0.046680617577246064  0.12846286216631245  1.0000
  C   C465      1.0  0.8628746014085636  0.08979305333775667  0.14407703051945192  1.0000
  C   C466      1.0  0.8640272165658989  0.010056411927613418  0.15054236109346822  1.0000
  C   C467      1.0  0.8953249356722935  0.04228315774433122  0.10458222160284841  1.0000
  C   C468      1.0  0.8074203196857297  0.04452681082042931  0.11464958419128701  1.0000
  H   H497      1.0  0.8594595625215867  0.11807517946366053  0.12785124542774776  1.0000
  H   H498      1.0  0.8995899760525843  0.09226275496413128  0.15546040798322266  1.0000
  H   H499      1.0  0.8339229376416962  0.09493839901141499  0.16158730040132746  1.0000
  H   H500      1.0  0.8599688981227827  0.977164863701909  0.13932683313832184  1.0000
  H   H501      1.0  0.9013636233347934  0.010619961555938584  0.16142795692918757  1.0000
  H   H502      1.0  0.8360571759272472  0.012224122181521802  0.16894303249693104  1.0000
  H   H503      1.0  0.8917208299084488  0.06942639736538037  0.0876025136471376  1.0000
  H   H504      1.0  0.8922262564073888  0.010271377032693874  0.09214320847889164  1.0000
  H   H505      1.0  0.9333860991757319  0.04391591881114221  0.11440123909554538  1.0000
  H   H506      1.0  0.8018183247821256  0.01244130497463014  0.10269776881516736  1.0000
  H   H507      1.0  0.801179981429241  0.07173533945442001  0.09793906924012949  1.0000
  H   H508      1.0  0.7781427661712356  0.048082723619767176  0.13222322928509977  1.0000
  N   N22       1.0  0.9015754938851698  0.8937751512977518  0.3633144242153744  1.0000
  C   C469      1.0  0.9508091975655033  0.8883512737445827  0.37799776671143054  1.0000
  C   C470      1.0  0.8681315347461325  0.8593696249897015  0.3747981753347699  1.0000
  C   C471      1.0  0.9064295035180951  0.8891072379814534  0.32993408417086556  1.0000
  C   C472      1.0  0.8809942674873464  0.9382649907644992  0.37055099499910316  1.0000
  H   H509      1.0  0.9772566682818429  0.9132159638692899  0.36948475421124893  1.0000
  H   H510      1.0  0.9672547584774809  0.8550049341083117  0.37329231060235846  1.0000
  H   H511      1.0  0.9486097786803853  0.8921815774017282  0.40318743265206636  1.0000
  H   H512      1.0  0.8826985109531861  0.8253568256651825  0.3696626400804482  1.0000
  H   H513      1.0  0.8634898424830946  0.8618866603989161  0.3999191889902285  1.0000
  H   H514      1.0  0.8306331452057949  0.8623011867339904  0.3641658516577103  1.0000
  H   H515      1.0  0.9312835894778784  0.9145515947582318  0.3204241360119294  1.0000
  H   H516      1.0  0.8699760030821074  0.8929976524566858  0.31811625356922574  1.0000
  H   H517      1.0  0.9220611027501955  0.8559514844667242  0.32364554578104604  1.0000
  H   H518      1.0  0.9053252726605354  0.9649561281511332  0.36214430467678227  1.0000
  H   H519      1.0  0.8768908502783015  0.9429868918033882  0.3955749858061116  1.0000
  H   H520      1.0  0.8438771987832686  0.9436829000961446  0.35984285016448114  1.0000
  N   N23       1.0  0.6031215430552799  0.8820489386212281  0.8031345403474806  1.0000
  C   C473      1.0  0.5523030265272288  0.8946205716693869  0.7932403277489704  1.0000
  C   C474      1.0  0.6131155583228924  0.83498486187204  0.7955610239088112  1.0000
  C   C475      1.0  0.6075808568108937  0.8881436685410679  0.8363466027682852  1.0000
  C   C476      1.0  0.6395344333923693  0.9103538527074089  0.7879099206415288  1.0000
  H   H521      1.0  0.5434505076675122  0.9298992106614927  0.7986000472295265  1.0000
  H   H522      1.0  0.5241487356778239  0.8739533095075276  0.8046998229335527  1.0000
  H   H523      1.0  0.5468098165364387  0.889680408250452  0.768386217197165  1.0000
  H   H524      1.0  0.6509766183238245  0.8241175132640689  0.8028550100820613  1.0000
  H   H525      1.0  0.5862742935175108  0.8127269511206424  0.8067658019921315  1.0000
  H   H526      1.0  0.610022444986832  0.8289094981481873  0.7707196261310094  1.0000
  H   H527      1.0  0.644856050631001  0.8776507503341401  0.8449080969701601  1.0000
  H   H528      1.0  0.5796952057997421  0.8682048581562137  0.8483952710936465  1.0000
  H   H529      1.0  0.6010625652347802  0.9233656646969545  0.8430857353095906  1.0000
  H   H530      1.0  0.6376676656888365  0.9067882552882875  0.7628045566970323  1.0000
  H   H531      1.0  0.678112274917703  0.9011313072627347  0.7948226066404861  1.0000
  H   H532      1.0  0.6332081850380429  0.9460208614942256  0.7933793692034904  1.0000
  N   N24       1.0  0.5549383114449317  0.24372051652197935  0.8357490100944012  1.0000
  C   C477      1.0  0.5853707606278907  0.27918294335117816  0.8227569784697276  1.0000
  C   C478      1.0  0.5875893039823435  0.20728421176538314  0.8469419882992437  1.0000
  C   C479      1.0  0.5213760450066836  0.22656258413220193  0.8118646322000607  1.0000
  C   C480      1.0  0.525452119497677  0.26178972448034227  0.8612733630831071  1.0000
  H   H533      1.0  0.562124452138761  0.3076372818499096  0.8144787283390197  1.0000
  H   H534      1.0  0.6073040821389546  0.26698338212917644  0.8029845357548155  1.0000
  H   H535      1.0  0.6119830145547025  0.292588596193058  0.8397750260393747  1.0000
  H   H536      1.0  0.5657516615490846  0.17943065035899983  0.8562012500197033  1.0000
  H   H537      1.0  0.6112778473741433  0.19367883846436307  0.828365016481196  1.0000
  H   H538      1.0  0.6125332410818722  0.21876034941630745  0.8655504404389529  1.0000
  H   H539      1.0  0.49657150692762403  0.25324866967647786  0.8025990268317357  1.0000
  H   H540      1.0  0.4977303616055941  0.19972189479503372  0.8207490266805333  1.0000
  H   H541      1.0  0.5425824724186767  0.2125354233141056  0.7923557730038475  1.0000
  H   H542      1.0  0.5025904823434985  0.23575124640859205  0.871967479473742  1.0000
  H   H543      1.0  0.5000502784824495  0.28910810481845484  0.8536297359198066  1.0000
  H   H544      1.0  0.5495659254438308  0.27559730216651174  0.8795483772366243  1.0000
  N   N25       1.0  0.7307601093484727  0.6410653587072347  0.5340155635056201  1.0000
  C   C481      1.0  0.6873479984108161  0.6167082142436254  0.5225507527412043  1.0000
  C   C482      1.0  0.776533318004818  0.6192983362959819  0.5228704722136572  1.0000
  C   C483      1.0  0.7308367005849468  0.6407060785440358  0.567695909802924  1.0000
  C   C484      1.0  0.728212700138559  0.6873554309124169  0.5229729837094163  1.0000
  H   H545      1.0  0.6523143247374024  0.6313432635784696  0.5313958680109077  1.0000
  H   H546      1.0  0.6888805044273891  0.5812803367933344  0.5296740999656097  1.0000
  H   H547      1.0  0.6848490855301858  0.6176295522699189  0.49724847432426234  1.0000
  H   H548      1.0  0.8101418525531968  0.6367728350016458  0.5310492092268743  1.0000
  H   H549      1.0  0.7795151543280611  0.5844744842321089  0.5311149862085874  1.0000
  H   H550      1.0  0.7774087251360522  0.6185175069465098  0.4974905606914685  1.0000
  H   H551      1.0  0.6971444978990178  0.6575390744286688  0.5769302085808804  1.0000
  H   H552      1.0  0.7636551424905698  0.6578083024975122  0.5773782220062995  1.0000
  H   H553      1.0  0.7315675036470086  0.6061326293545194  0.5767039511291516  1.0000
  H   H554      1.0  0.7607986132226118  0.7065131215790825  0.5308459272723839  1.0000
  H   H555      1.0  0.6943152367830997  0.7047852637659507  0.5312492203073473  1.0000
  H   H556      1.0  0.7269684287763719  0.6887610832074249  0.49759802345892623  1.0000
  N   N26       1.0  0.4449576010743162  0.7586669652196921  0.08835271100027442  1.0000
  C   C485      1.0  0.4801272523265713  0.7599827522607601  0.06280085787890477  1.0000
  C   C486      1.0  0.4375814459793161  0.8038837545067957  0.1006109286421295  1.0000
  C   C487      1.0  0.4651443333971986  0.7291368444389683  0.11246514165841792  1.0000
  C   C488      1.0  0.3969093583625988  0.7416833818602069  0.0775380322507373  1.0000
  H   H557      1.0  0.4873992769031562  0.7262335148495704  0.0534965340407596  1.0000
  H   H558      1.0  0.5165139519278286  0.7733232454918798  0.07025380784200363  1.0000
  H   H559      1.0  0.46575641621854114  0.7812571574879362  0.04387306700096638  1.0000
  H   H560      1.0  0.4113988750422599  0.8042710766642969  0.120077739022876  1.0000
  H   H561      1.0  0.47289966830338703  0.8180268858123874  0.10874529283044643  1.0000
  H   H562      1.0  0.4224950952635873  0.8268895697414751  0.08287997924557411  1.0000
  H   H563      1.0  0.4400972133085349  0.728198816973247  0.13245033579964693  1.0000
  H   H564      1.0  0.502124973329118  0.740156505162047  0.12055910276589765  1.0000
  H   H565      1.0  0.4702329586345425  0.6945399233239504  0.10394775429066194  1.0000
  H   H566      1.0  0.40099679218734735  0.7073928161374817  0.06852216153192203  1.0000
  H   H567      1.0  0.3808374956024752  0.7628107392599427  0.059061647772487236  1.0000
  H   H568      1.0  0.3693117101331274  0.7411329169885894  0.09627206037559155  1.0000
  N   N27       1.0  0.8861957400355108  0.4933231033943705  0.4873145831712856  1.0000
  C   C489      1.0  0.916332577213435  0.4625585678285933  0.50624426830075  1.0000
  C   C490      1.0  0.8601757168396237  0.4679431219678702  0.46340154469865635  1.0000
  C   C491      1.0  0.9188257728519238  0.5261684189583239  0.47318096590182396  1.0000
  C   C492      1.0  0.8494033583523937  0.5165634234058424  0.506498885207997  1.0000
  H   H569      1.0  0.8928232228768648  0.4376299348558473  0.5173961872428613  1.0000
  H   H570      1.0  0.9369731037503092  0.4804867089301144  0.5244076742233724  1.0000
  H   H571      1.0  0.9442487273782222  0.44458349255208574  0.49233496692428735  1.0000
  H   H572      1.0  0.8361488752129468  0.48996827227759293  0.4491456087154803  1.0000
  H   H573      1.0  0.8866570816147209  0.45087090807945746  0.44792609587665067  1.0000
  H   H574      1.0  0.8360137661603587  0.4422409975070923  0.47331143847349555  1.0000
  H   H575      1.0  0.8973401725053586  0.5499841794554233  0.4586546215724937  1.0000
  H   H576      1.0  0.947144384078427  0.5097351675831967  0.45857890019677594  1.0000
  H   H577      1.0  0.9389342360029238  0.5457184295533961  0.4908088655657954  1.0000
  H   H578      1.0  0.8240908024902303  0.49278680675886233  0.5175226789665837  1.0000
  H   H579      1.0  0.8260222680667269  0.5397892453411842  0.49265159918583157  1.0000
  H   H580      1.0  0.8677488224385258  0.5360715809442161  0.5248454341987421  1.0000
  N   N28       1.0  0.6037029631877879  0.026162624559993745  0.03640402486994598  1.0000
  C   C493      1.0  0.6045922121862706  0.053630439824309706  0.008524147175956509  1.0000
  C   C494      1.0  0.5808655713593665  0.9830897181912404  0.029354920548015917  1.0000
  C   C495      1.0  0.5745151993291162  0.049291769420262595  0.06011623170696678  1.0000
  C   C496      1.0  0.6548930998508912  0.018471023493889183  0.0476569288813562  1.0000
  H   H581      1.0  0.6217256944595857  0.08634730114220728  0.012914846676422842  1.0000
  H   H582      1.0  0.5666589735877944  0.05987949326640573  0.9991696977597597  1.0000
  H   H583      1.0  0.6263489588940717  0.037085590600530516  0.9902055218855768  1.0000
  H   H584      1.0  0.578624264816997  0.9617751116830675  0.049961852440929766  1.0000
  H   H585      1.0  0.5426751555071186  0.9874807958112111  0.01996874971853213  1.0000
  H   H586      1.0  0.6024091240732855  0.9641788067029112  0.012134596685470234  1.0000
  H   H587      1.0  0.5355998011245086  0.05537823327008296  0.05242778928804803  1.0000
  H   H588      1.0  0.5906240062580629  0.08199716554171546  0.06609791402345255  1.0000
  H   H589      1.0  0.5730538444928561  0.029300308330090008  0.08141555623313512  1.0000
  H   H590      1.0  0.6779713972843371  0.0013687933897630347  0.030201554460580482  1.0000
  H   H591      1.0  0.6556054619861926  0.9974041521585371  0.06847005090960456  1.0000
  H   H592      1.0  0.673276330853392  0.05022725772934478  0.053342099545713006  1.0000
  N   N29       1.0  0.7364384270884219  0.5340091887091  0.969330422253765  1.0000
  C   C497      1.0  0.7310083050150212  0.5765660945567216  0.9858098468868917  1.0000
  C   C498      1.0  0.7095958771861757  0.5367965705226821  0.9399080766641807  1.0000
  C   C499      1.0  0.7158038670262998  0.4978674465344841  0.9877690256537635  1.0000
  C   C500      1.0  0.789478970436095  0.5247055493564  0.9637634552037839  1.0000
  H   H593      1.0  0.7510756469845807  0.575528925964929  0.008090061067075993  1.0000
  H   H594      1.0  0.6914440216951812  0.5848193979419639  0.9902589874178263  1.0000
  H   H595      1.0  0.7465919281217169  0.6044009281350379  0.9724658821709965  1.0000
  H   H596      1.0  0.7232603756532123  0.5644943506213098  0.925687541372649  1.0000
  H   H597      1.0  0.7146795144428809  0.5056987495969849  0.9265792944855786  1.0000
  H   H598      1.0  0.6691402228364026  0.5420653850632197  0.9430944105087427  1.0000
  H   H599      1.0  0.6757014882455371  0.5034402369886264  0.9921918215524197  1.0000
  H   H600      1.0  0.7351724220195616  0.49492815238960036  0.010174380485356238  1.0000
  H   H601      1.0  0.7197678770693934  0.465232299105264  0.9759909880221864  1.0000
  H   H602      1.0  0.7953412121475265  0.49171684936050847  0.9528211043470073  1.0000
  H   H603      1.0  0.8114732303676264  0.5251112868396174  0.9852736046065336  1.0000
  H   H604      1.0  0.8056860351248607  0.549951167073492  0.9486100436400396  1.0000
  N   N30       1.0  0.6359306500879863  0.8088174783295287  0.3081549757065124  1.0000
  C   C501      1.0  0.6687179862188025  0.7766687493572195  0.292375083260913  1.0000
  C   C502      1.0  0.6017993121488141  0.8301398053416217  0.2860048771570385  1.0000
  C   C503      1.0  0.6660835959763037  0.8433624664210183  0.3228989815137303  1.0000
  C   C504      1.0  0.6069996531659585  0.78523040477691  0.33121037595472885  1.0000
  H   H605      1.0  0.6907757269590377  0.7930975275669664  0.2744990075903062  1.0000
  H   H606      1.0  0.6470515102505617  0.7501255600073085  0.2810612876975437  1.0000
  H   H607      1.0  0.6954194812967421  0.7605763793891155  0.3085936192265158  1.0000
  H   H608      1.0  0.5745095159174243  0.8526655153915285  0.2973307779705575  1.0000
  H   H609      1.0  0.6225402359167511  0.8502388737361298  0.26942397392147355  1.0000
  H   H610      1.0  0.5803373455945209  0.8051830046387798  0.27310898409667067  1.0000
  H   H611      1.0  0.6422627440277994  0.8687603875369676  0.33429163917234117  1.0000
  H   H612      1.0  0.6890552773862777  0.8609008043672095  0.3058910251098868  1.0000
  H   H613      1.0  0.691685824569517  0.8289091881888102  0.34032945009257054  1.0000
  H   H614      1.0  0.5830894304186  0.8085773593270386  0.344257625657967  1.0000
  H   H615      1.0  0.631694769143633  0.7674765210807855  0.34766558834804673  1.0000
  H   H616      1.0  0.5822017931871513  0.7603713786790428  0.32053920872036534  1.0000
  N   N31       1.0  0.4907861036851216  0.5127930203246001  0.5001578677194849  1.0000
  C   C505      1.0  0.5407018618931149  0.530808959376264  0.5054356939972927  1.0000
  C   C506      1.0  0.4619543292399901  0.5157346300778425  0.5285583416251618  1.0000
  C   C507      1.0  0.49534085587556853  0.4658999788780354  0.49060388883438366  1.0000
  C   C508      1.0  0.46518518121494323  0.5386733420709812  0.4759397422477541  1.0000
  H   H617      1.0  0.5610461295857471  0.5121950630597737  0.5236721350081958  1.0000
  H   H618      1.0  0.5385975061037409  0.56623247304297  0.5124624544018728  1.0000
  H   H619      1.0  0.5633347885599801  0.5290496090009983  0.48439614921236773  1.0000
  H   H620      1.0  0.4798711065969849  0.49641155316480123  0.5473629055233938  1.0000
  H   H621      1.0  0.4581295202459865  0.5506311647155157  0.5364846355741842  1.0000
  H   H622      1.0  0.4237864503379783  0.5031002623291656  0.5252064822603001  1.0000
  H   H623      1.0  0.5190412797760108  0.46237085965677055  0.47012453517725167  1.0000
  H   H624      1.0  0.45852440081667784  0.45198150136303844  0.4846520533505078  1.0000
  H   H625      1.0  0.5123074028184535  0.444849850881694  0.5088365305287456  1.0000
  H   H626      1.0  0.462585543520716  0.5745184907968583  0.48174101660382307  1.0000
  H   H627      1.0  0.4266016934009359  0.5272741031423099  0.47220751380767023  1.0000
  H   H628      1.0  0.48468463482363583  0.5356312361514052  0.4538071349738654  1.0000
  N   N32       1.0  0.3330461652524684  0.39618200199442627  0.3603116278322564  1.0000
  C   C509      1.0  0.30082644981889584  0.3714362759211188  0.3390779235262063  1.0000
  C   C510      1.0  0.3421099192251351  0.36970892920139253  0.38819344569811937  1.0000
  C   C511      1.0  0.3083454632746595  0.4385613250388179  0.3684752407590825  1.0000
  C   C512      1.0  0.3807356499405972  0.40525504926506967  0.3454796107196617  1.0000
  H   H629      1.0  0.3177047415713962  0.3388211808963361  0.332735262486632  1.0000
  H   H630      1.0  0.29388161327008167  0.39041467859335416  0.31767327157539643  1.0000
  H   H631      1.0  0.26395775368045654  0.36509692471004435  0.3492534852670699  1.0000
  H   H632      1.0  0.36637440126486615  0.38761823145362667  0.4046235268942382  1.0000
  H   H633      1.0  0.30689932290263444  0.3626468914641926  0.40007002614929404  1.0000
  H   H634      1.0  0.36075928559495063  0.337428059600747  0.3829537685650387  1.0000
  H   H635      1.0  0.33018641600895166  0.4574946998105343  0.38544482700190413  1.0000
  H   H636      1.0  0.2712267068693049  0.4331650286323438  0.37849334734729734  1.0000
  H   H637      1.0  0.30343885527704356  0.4602456073599795  0.34822196268338723  1.0000
  H   H638      1.0  0.3752901440939412  0.4254847840466401  0.3244612707564164  1.0000
  H   H639      1.0  0.40056902273811507  0.37401684037855476  0.3390781887148662  1.0000
  H   H640      1.0  0.4057636896217685  0.42410780283966015  0.36086020429563204  1.0000
  N   N33       1.0  0.6077330346380007  0.2983156529279341  0.5797538102173418  1.0000
  C   C513      1.0  0.6507059123529877  0.2678202163148545  0.5838585132155325  1.0000
  C   C514      1.0  0.6132502115019406  0.33685991973998153  0.6002634056886685  1.0000
  C   C515      1.0  0.5615525860867648  0.2749530782832361  0.5867505400615459  1.0000
  C   C516      1.0  0.6054275112511467  0.31373214067987887  0.5479251406918332  1.0000
  H   H641      1.0  0.6862471194150247  0.28471304379493056  0.5793080555275462  1.0000
  H   H642      1.0  0.6488569866494416  0.2388316832462269  0.5681910801192339  1.0000
  H   H643      1.0  0.6530578890120089  0.255102386221148  0.6075606028462638  1.0000
  H   H644      1.0  0.5813229341559538  0.36051300996235747  0.5980413434778719  1.0000
  H   H645      1.0  0.6152350257622257  0.32626405473883946  0.6244769811787226  1.0000
  H   H646      1.0  0.6477092402412306  0.35526705442736717  0.5953965378817773  1.0000
  H   H647      1.0  0.5616900294752512  0.2625854368474958  0.6105554154916004  1.0000
  H   H648      1.0  0.5560184925532764  0.2461739251161526  0.5712293131142111  1.0000
  H   H649      1.0  0.5285812774510353  0.2974076514806703  0.5842642316019343  1.0000
  H   H650      1.0  0.6390544158316566  0.3324516888791725  0.5419990203887889  1.0000
  H   H651      1.0  0.5726915646003693  0.33585446806124053  0.5437321894542133  1.0000
  H   H652      1.0  0.6025821226730895  0.28529264791029346  0.5318288068685815  1.0000
  N   N34       1.0  0.1293563554261374  0.3099716988557765  0.6876526719887681  1.0000
  C   C517      1.0  0.07505169065338445  0.3159536268601261  0.6853435962670245  1.0000
  C   C518      1.0  0.1532633115041752  0.3405414860604444  0.6663771898739546  1.0000
  C   C519      1.0  0.142977799915196  0.26374293857148084  0.6797040215505297  1.0000
  C   C520      1.0  0.14625816297261401  0.3199683463865712  0.7189950426591395  1.0000
  H   H653      1.0  0.055543149436879435  0.29321352951696183  0.7010320987405886  1.0000
  H   H654      1.0  0.06114243534249452  0.30899714709219384  0.6618580460894424  1.0000
  H   H655      1.0  0.06360365046548  0.3505162713449207  0.6911248365947452  1.0000
  H   H656      1.0  0.19434381860157723  0.3377408397318811  0.6679880921648443  1.0000
  H   H657      1.0  0.14252753308688795  0.3332720101959268  0.6423954872164446  1.0000
  H   H658      1.0  0.14276777444991365  0.3757300858732378  0.6711173441831603  1.0000
  H   H659      1.0  0.18344867238744508  0.2574400253926131  0.682449528045405  1.0000
  H   H660      1.0  0.13260416189207413  0.25600559506172194  0.6557205205330126  1.0000
  H   H661      1.0  0.12341195551168554  0.23975917536433042  0.6943733716361484  1.0000
  H   H662      1.0  0.12946976806909155  0.2973776885643968  0.7357251230454127  1.0000
  H   H663      1.0  0.13599055932633136  0.35448717106653593  0.7257424723047992  1.0000
  H   H664      1.0  0.18713389773844433  0.3160280176886563  0.7214495781438164  1.0000
  N   N35       1.0  0.1117913057236728  0.30101970516493387  0.42525585535439  1.0000
  C   C521      1.0  0.07463870521413041  0.27756531118299155  0.4433396631349595  1.0000
  C   C522      1.0  0.14185474329647962  0.329141189267151  0.4455778092023021  1.0000
  C   C523      1.0  0.08629736736140736  0.3290407759400012  0.4021696972994197  1.0000
  C   C524      1.0  0.14433044697075315  0.26817040972818157  0.4099833795460572  1.0000
  H   H665      1.0  0.04954333277357925  0.301053028656945  0.4552631834437151  1.0000
  H   H666      1.0  0.09228896008995191  0.25550829245155726  0.460687853994971  1.0000
  H   H667      1.0  0.05106827768207389  0.25666842288062997  0.4286921296707071  1.0000
  H   H668      1.0  0.16219079408053227  0.30880154822432804  0.46293546315669165  1.0000
  H   H669      1.0  0.16948376394795184  0.3481898399261011  0.4325580023754719  1.0000
  H   H670      1.0  0.1183379686697208  0.35365099689999835  0.4579827526434592  1.0000
  H   H671      1.0  0.11309235136114704  0.34713882896902754  0.3879778835463702  1.0000
  H   H672      1.0  0.06154272043335607  0.35430795451217045  0.41288912972988184  1.0000
  H   H673      1.0  0.06307969605157515  0.3088960921263925  0.38654535391501815  1.0000
  H   H674      1.0  0.17262648416319992  0.2846579702502861  0.39591086251902785  1.0000
  H   H675      1.0  0.12272358469017175  0.2461719816284256  0.3946650582732103  1.0000
  H   H676      1.0  0.1640367770367397  0.24647431003941894  0.4268664069395371  1.0000
  N   N36       1.0  0.09552146485377054  0.10012554430708523  0.2663483476240343  1.0000
  C   C525      1.0  0.08922700154652417  0.134535461593956  0.29008763296099116  1.0000
  C   C526      1.0  0.12097471027458595  0.06069503166993764  0.2795608264962124  1.0000
  C   C527      1.0  0.12505197882447822  0.11775478097107257  0.24106591901792726  1.0000
  C   C528      1.0  0.04635609831018471  0.08763896329126714  0.25455964971720096  1.0000
  H   H677      1.0  0.06717406447807694  0.12232403888337144  0.30956160202597444  1.0000
  H   H678      1.0  0.06956900022055512  0.1645753010373099  0.281055454250595  1.0000
  H   H679      1.0  0.1253684247981752  0.14536343321720585  0.2994921116995868  1.0000
  H   H680      1.0  0.12647083801572606  0.034019919529508336  0.2622807618614941  1.0000
  H   H681      1.0  0.15825466797241614  0.06901147608551489  0.288796588705302  1.0000
  H   H682      1.0  0.09937448137264027  0.04626296135425934  0.2984853218750626  1.0000
  H   H683      1.0  0.12960957750538749  0.09277387550149391  0.222584693626376  1.0000
  H   H684      1.0  0.16271283110826387  0.1269241626557182  0.24888834972950585  1.0000
  H   H685      1.0  0.1071627050504511  0.1479132771739004  0.2309288472827625  1.0000
  H   H686      1.0  0.02240322706436237  0.0754921153903263  0.2731292607469305  1.0000
  H   H687      1.0  0.04916541648551042  0.061170019624317166  0.23694814731032207  1.0000
  H   H688      1.0  0.026924515852390078  0.11649842289455584  0.243790944229054  1.0000
  N   N37       1.0  0.334812174095452  0.7746638216800477  0.3446586013638033  1.0000
  C   C529      1.0  0.3811983415120269  0.7665344143753204  0.3619656214671411  1.0000
  C   C530      1.0  0.3178657185619004  0.8209469846472554  0.3496555790486981  1.0000
  C   C531      1.0  0.2967786828994659  0.7439108698504916  0.35540927287782187  1.0000
  C   C532      1.0  0.3434766177937812  0.7672931525988623  0.3118254390300625  1.0000
  H   H689      1.0  0.39414461521416855  0.7315033093329096  0.36023231550595386  1.0000
  H   H690      1.0  0.376745440373631  0.7740830930385088  0.38664542671559576  1.0000
  H   H691      1.0  0.41132285172330424  0.7873563435482085  0.35360125389875974  1.0000
  H   H692      1.0  0.3119658280873358  0.8276565376576543  0.37430755742740995  1.0000
  H   H693      1.0  0.3455545617734003  0.8450439987072323  0.34153254870716854  1.0000
  H   H694      1.0  0.2821564001745986  0.828091902182256  0.33762967477298855  1.0000
  H   H695      1.0  0.2897529137385407  0.7485970416592955  0.3801758070870303  1.0000
  H   H696      1.0  0.30848735558110646  0.7086986016163254  0.3523843036371329  1.0000
  H   H697      1.0  0.26096069730912796  0.7491059303151902  0.34313421615090417  1.0000
  H   H698      1.0  0.3087624402985974  0.7721424973377822  0.2982636021533511  1.0000
  H   H699      1.0  0.3579109594597574  0.7331324175576907  0.3074786328215898  1.0000
  H   H700      1.0  0.3710875659666552  0.7908221116493037  0.3027646521699102  1.0000
  N   N38       1.0  0.0964766449426868  0.23604132139732906  0.9256633001967518  1.0000
  C   C533      1.0  0.12152095152880693  0.2167704496599391  0.8988476765841596  1.0000
  C   C534      1.0  0.13362802487611566  0.2567920328559674  0.9457460228236565  1.0000
  C   C535      1.0  0.07122216127526682  0.2003844849486699  0.9421548323730395  1.0000
  C   C536      1.0  0.05965342524611516  0.27016763794019594  0.9159916893499963  1.0000
  H   H701      1.0  0.0950194256581982  0.19877783783251782  0.8839677739910807  1.0000
  H   H702      1.0  0.15123540778206024  0.19272487019649268  0.9057554298761247  1.0000
  H   H703      1.0  0.13917272303063238  0.24286941946051896  0.8849539522363328  1.0000
  H   H704      1.0  0.15458798978000154  0.2826780854407997  0.9334255780517791  1.0000
  H   H705      1.0  0.11551565297787025  0.27349209591628687  0.9652840310251413  1.0000
  H   H706      1.0  0.1606734885312538  0.2319151812126666  0.9550732075654094  1.0000
  H   H707      1.0  0.05358382110124249  0.2129251173723925  0.9632543931526798  1.0000
  H   H708      1.0  0.09758621142045909  0.17334057407918185  0.948841806936637  1.0000
  H   H709      1.0  0.041599919934987906  0.18549304527372537  0.9279680240947848  1.0000
  H   H710      1.0  0.07753892403656269  0.29820777828161654  0.9041338634395402  1.0000
  H   H711      1.0  0.039630894017355756  0.2846220619664456  0.9358117025033021  1.0000
  H   H712      1.0  0.03131542222620531  0.2562333007300876  0.9004146331405414  1.0000
  N   N39       1.0  0.7496653426816903  0.7738548490044569  0.07354169373868105  1.0000
  C   C537      1.0  0.7635079175624985  0.7514732534042622  0.10243205178389866  1.0000
  C   C538      1.0  0.7167361751029662  0.7450596366619104  0.05547727273712688  1.0000
  C   C539      1.0  0.7949065299981988  0.782781814614533  0.056027430168485215  1.0000
  C   C540      1.0  0.7233147776936231  0.816096191196815  0.08018697563121184  1.0000
  H   H713      1.0  0.7891369998672  0.7719489685860341  0.11635810907803625  1.0000
  H   H714      1.0  0.782810560971166  0.7190989612097087  0.09825996646593875  1.0000
  H   H715      1.0  0.7303730451114685  0.7449031604330226  0.11651590356826096  1.0000
  H   H716      1.0  0.734944909043692  0.7125591490172634  0.05038596014028963  1.0000
  H   H717      1.0  0.6818356512987354  0.738452218620736  0.06787986569485592  1.0000
  H   H718      1.0  0.7059995588033463  0.7608782845558196  0.033373713560773705  1.0000
  H   H719      1.0  0.7859064974809378  0.7994278079083339  0.03397038721788024  1.0000
  H   H720      1.0  0.8158907073724126  0.7515376751667914  0.05092406443113216  1.0000
  H   H721      1.0  0.8206236689305222  0.8044987693757177  0.06897234473194294  1.0000
  H   H722      1.0  0.711767495590679  0.8334847766995664  0.058795121077123653  1.0000
  H   H723      1.0  0.746971336844649  0.8389237649908029  0.09365159579390872  1.0000
  H   H724      1.0  0.6890998180330683  0.8103107856869475  0.09351755484391182  1.0000
  N   N40       1.0  0.08489056162836817  0.2887136488286411  0.17063323366223768  1.0000
  C   C541      1.0  0.11316634707479611  0.318420665378214  0.19084269685195868  1.0000
  C   C542      1.0  0.05846494769188215  0.3155000520764313  0.14723323983039285  1.0000
  C   C543      1.0  0.04850933863205498  0.2638364437255382  0.1884594428909708  1.0000
  C   C544      1.0  0.1194688612791055  0.2569683119042678  0.15598152760563425  1.0000
  H   H725      1.0  0.1332714791653815  0.2994784073028569  0.20896771354679594  1.0000
  H   H726      1.0  0.08839254976373878  0.3429804980417724  0.2021893055833456  1.0000
  H   H727      1.0  0.14104095382562765  0.33732279172174545  0.17783556483899385  1.0000
  H   H728      1.0  0.036784785089154726  0.2942233778676226  0.13150680339964407  1.0000
  H   H729      1.0  0.03176539808912526  0.33939926730388636  0.15779426845756792  1.0000
  H   H730      1.0  0.08459483301398385  0.33490311134579875  0.13327386818514741  1.0000
  H   H731      1.0  0.022088755015159167  0.2863876138421031  0.2003488689174104  1.0000
  H   H732      1.0  0.06684901238738816  0.24217539058008686  0.20575423156432515  1.0000
  H   H733      1.0  0.02592567960434322  0.2422360517812065  0.17352463956916026  1.0000
  H   H734      1.0  0.09913639507644034  0.2322173970876032  0.14206053455165646  1.0000
  H   H735      1.0  0.1418868978227028  0.23824326758551403  0.17323671175563668  1.0000
  H   H736      1.0  0.14575798279673657  0.27432018938135855  0.14086646541678333  1.0000
  N   N41       1.0  0.9311543988878925  0.5881574049121449  0.74952280152479  1.0000
  C   C545      1.0  0.9761645442526556  0.6152617486058924  0.7515328111289914  1.0000
  C   C546      1.0  0.9303829448590921  0.564088549866703  0.7201867647532361  1.0000
  C   C547      1.0  0.8866889405236538  0.6172370501696769  0.7516091472355361  1.0000
  C   C548      1.0  0.9312482483884169  0.5560676873046668  0.7749037408465904  1.0000
  H   H737      1.0  0.9776491111559675  0.6341355589456287  0.773338204999396  1.0000
  H   H738      1.0  0.9775686150526745  0.6396378349686593  0.7325449146553683  1.0000
  H   H739      1.0  0.010304438269872929  0.5941202861931631  0.7504838096934685  1.0000
  H   H740      1.0  0.8958851193106822  0.5446785356111993  0.7175014094523721  1.0000
  H   H741      1.0  0.9315011517880694  0.5873538831271644  0.7005317253363231  1.0000
  H   H742      1.0  0.9623936106204224  0.5405728357534987  0.7181811300251479  1.0000
  H   H743      1.0  0.8520946691665022  0.5976215733291559  0.749929331078155  1.0000
  H   H744      1.0  0.8851941843837744  0.6418939965217458  0.7327457941146989  1.0000
  H   H745      1.0  0.8857110698321944  0.635541883027719  0.7736180413268161  1.0000
  H   H746      1.0  0.9628439184488149  0.5319449020350482  0.7735472198888796  1.0000
  H   H747      1.0  0.89641638905022  0.5369168702115343  0.7753415606975138  1.0000
  H   H748      1.0  0.9343179327685317  0.5732499727266298  0.7971218215533465  1.0000
  N   N42       1.0  0.6385017327012535  0.5713178720714579  0.7266136184270903  1.0000
  C   C549      1.0  0.618899615816449  0.5979499834746541  0.752236713536831  1.0000
  C   C550      1.0  0.6113046049851721  0.5835119861762976  0.6983419143062217  1.0000
  C   C551      1.0  0.6319874084486543  0.5236441511083847  0.7330496446638524  1.0000
  C   C552      1.0  0.6917681714756825  0.5802040013509266  0.7229192637357075  1.0000
  H   H749      1.0  0.6218973297307882  0.6341828084245936  0.7477329229326989  1.0000
  H   H750      1.0  0.6393482987706087  0.5904438374958595  0.7737990184430548  1.0000
  H   H751      1.0  0.5790312209904576  0.591163055893385  0.7560911073124876  1.0000
  H   H752      1.0  0.6246223328643122  0.5639342413464195  0.6784397666676649  1.0000
  H   H753      1.0  0.5708756755212395  0.5776175388038297  0.700429639802331  1.0000
  H   H754      1.0  0.6155890139586517  0.6192661999657983  0.6926559898446613  1.0000
  H   H755      1.0  0.6464933810771797  0.5025377503221168  0.7141973070306781  1.0000
  H   H756      1.0  0.5922152252361739  0.5157497600985704  0.7360412999197818  1.0000
  H   H757      1.0  0.6520672351225633  0.513362401757189  0.7542514471280095  1.0000
  H   H758      1.0  0.707713093329328  0.5610700846575796  0.7035415358572595  1.0000
  H   H759      1.0  0.7136285305052356  0.5707990813963425  0.7436643901058602  1.0000
  H   H760      1.0  0.6981115175888347  0.6159678187171996  0.7184032341318967  1.0000
  N   N43       1.0  0.11591564470893712  0.4848804941840962  0.8421261081189292  1.0000
  C   C553      1.0  0.06434748061245288  0.47298997464943254  0.8347504558552731  1.0000
  C   C554      1.0  0.13304944024675502  0.45912809157563955  0.8689272983136963  1.0000
  C   C555      1.0  0.11878666817258243  0.5327493522943716  0.8490296519690023  1.0000
  C   C556      1.0  0.14753230233639125  0.474464612157822  0.8157332719415429  1.0000
  H   H761      1.0  0.06162304659983975  0.43749975372962635  0.8282262740646458  1.0000
  H   H762      1.0  0.049227485609325994  0.4927663534041661  0.8152768151642089  1.0000
  H   H763      1.0  0.03934470127700895  0.4786680332211617  0.8544186995898317  1.0000
  H   H764      1.0  0.11050451030178654  0.4670162343782049  0.88935571264478  1.0000
  H   H765      1.0  0.12985146602303832  0.4228879797522918  0.8648450361607655  1.0000
  H   H766      1.0  0.17240274129891842  0.4659471442133046  0.8746060726901337  1.0000
  H   H767      1.0  0.10531555343866827  0.5531820653925733  0.8294403000518182  1.0000
  H   H768      1.0  0.15746276910760693  0.542672467700142  0.8542410542737641  1.0000
  H   H769      1.0  0.09557060354174252  0.5418636053355637  0.8689534345806605  1.0000
  H   H770      1.0  0.18662221241530985  0.48380837783430397  0.8201213858744835  1.0000
  H   H771      1.0  0.1347497703958096  0.492694257408366  0.7949990591645836  1.0000
  H   H772      1.0  0.14713820206935702  0.4384458848820822  0.8102712576400297  1.0000
  N   N44       1.0  0.8933302257845729  0.30793971978000234  0.5302032262384919  1.0000
  C   C557      1.0  0.9339110310457346  0.27782664559988246  0.5205506855584968  1.0000
  C   C558      1.0  0.862755240882236  0.28513396548132586  0.5528330178265424  1.0000
  C   C559      1.0  0.8624094285044785  0.3201515969840642  0.5034315538530523  1.0000
  C   C560      1.0  0.9140777682005055  0.3483226216796627  0.5440984881324689  1.0000
  H   H773      1.0  0.9558614074258079  0.29237318416802005  0.501900785007098  1.0000
  H   H774      1.0  0.9192935611028272  0.24596955937076956  0.5119970064927976  1.0000
  H   H775      1.0  0.9594753232489794  0.26960173986409264  0.5397435572237019  1.0000
  H   H776      1.0  0.8328167651773568  0.3072948013644746  0.5615217258570513  1.0000
  H   H777      1.0  0.8444132947794415  0.2558142359410158  0.542627360801568  1.0000
  H   H778      1.0  0.8854608846558146  0.2737427351253956  0.5727653048142056  1.0000
  H   H779      1.0  0.8319502980438254  0.3434768307098537  0.5097291170700787  1.0000
  H   H780      1.0  0.8450722725409414  0.29039012725732655  0.4929597146198879  1.0000
  H   H781      1.0  0.8843824983047291  0.33616383712695863  0.48540441471598234  1.0000
  H   H782      1.0  0.9365322397682773  0.34027759297187044  0.564819028275351  1.0000
  H   H783      1.0  0.8842003768142821  0.37168358961757897  0.5515074660491422  1.0000
  H   H784      1.0  0.9385869579559413  0.3657246547978164  0.5280357708301257  1.0000
  N   N45       1.0  0.6213894989584038  0.04847460360568601  0.6602133218499096  1.0000
  C   C561      1.0  0.5685113993391036  0.04751030464566442  0.6513598987676064  1.0000
  C   C562      1.0  0.6351526867649889  0.09419376277003763  0.6686319169787558  1.0000
  C   C563      1.0  0.6518360492508861  0.03320496033951392  0.6343174065772216  1.0000
  C   C564      1.0  0.6299839131520995  0.018850248841902676  0.6866133444886144  1.0000
  H   H785      1.0  0.5571827441653621  0.013395849419092  0.6448030358322422  1.0000
  H   H786      1.0  0.5602481301414235  0.06981998537840439  0.6317463498956398  1.0000
  H   H787      1.0  0.5445591766324409  0.05829904190697533  0.670478989709401  1.0000
  H   H788      1.0  0.6752641193770423  0.0960747605281273  0.6747186720187692  1.0000
  H   H789      1.0  0.6278391657449083  0.11783372608218202  0.649639451269442  1.0000
  H   H790      1.0  0.6140672570084955  0.1062641730615786  0.6887371604378979  1.0000
  H   H791      1.0  0.6920524164519701  0.035119700450141574  0.6397775320075391  1.0000
  H   H792      1.0  0.6449799128532194  0.053929847143546324  0.613715499425062  1.0000
  H   H793      1.0  0.6437940600318587  0.9981429406865868  0.628164611005216  1.0000
  H   H794      1.0  0.6689522639296611  0.020434484618351737  0.6948527617174717  1.0000
  H   H795      1.0  0.622260360633176  0.9836288177566829  0.6807182083989627  1.0000
  H   H796      1.0  0.6059583633291599  0.028443874281821827  0.7060841759769483  1.0000
  N   N46       1.0  0.3623595444187052  0.844342051928959  0.9626997901757459  1.0000
  C   C565      1.0  0.33113969881926253  0.8803637280024688  0.9755381332649509  1.0000
  C   C566      1.0  0.3316814773715272  0.814416410144277  0.9440325853789189  1.0000
  C   C567      1.0  0.3858261625035788  0.8190236732866438  0.9879687215418961  1.0000
  C   C568      1.0  0.40091987402027246  0.8634047660849066  0.9432575425596451  1.0000
  H   H797      1.0  0.3538525429636915  0.9040354891713132  0.9889595211799663  1.0000
  H   H798      1.0  0.3029892746194062  0.8671904252133404  0.9913077431694326  1.0000
  H   H799      1.0  0.31129888814837325  0.8994660672488629  0.9574379633328397  1.0000
  H   H800      1.0  0.31324517362426707  0.8323257030193463  0.9248025252957943  1.0000
  H   H801      1.0  0.35443396019958623  0.7868986132733283  0.9341522963478884  1.0000
  H   H802      1.0  0.30239918133648247  0.799152797057  0.9577397534217098  1.0000
  H   H803      1.0  0.40736436412572  0.8409817680983185  0.003323610083590722  1.0000
  H   H804      1.0  0.4118253927417998  0.7931380929109835  0.9794320063882843  1.0000
  H   H805      1.0  0.35773089176042017  0.8025124189663719  0.002207010103594475  1.0000
  H   H806      1.0  0.4238781958101963  0.836873123278098  0.9324584483381521  1.0000
  H   H807      1.0  0.42612931797203385  0.8850425650179857  0.9565431644951803  1.0000
  H   H808      1.0  0.3846291117680536  0.8838505459459988  0.9245699358151165  1.0000
  N   N47       1.0  0.6630080072758496  0.5752546145189665  0.35339771739688364  1.0000
  C   C569      1.0  0.6831403720967935  0.5435645706859831  0.3762320316795095  1.0000
  C   C570      1.0  0.7042191294705935  0.596055328945008  0.3371424644025442  1.0000
  C   C571      1.0  0.6332139864227582  0.6100548479192108  0.36881390572094236  1.0000
  C   C572      1.0  0.6316011488739618  0.5513919263877098  0.33124711442664007  1.0000
  H   H809      1.0  0.7072611271542047  0.5603515704171826  0.39325232378165814  1.0000
  H   H810      1.0  0.7058973226295795  0.5169151911919915  0.3653005019724719  1.0000
  H   H811      1.0  0.6530488648270689  0.5270349603345338  0.3888195658812611  1.0000
  H   H812      1.0  0.7298901977847344  0.6128814944508075  0.35324156058319217  1.0000
  H   H813      1.0  0.7259694789117517  0.5708972388258075  0.32410813282480216  1.0000
  H   H814      1.0  0.690416808775561  0.6214024503567698  0.32057388674186293  1.0000
  H   H815      1.0  0.6176550324975764  0.6345727039766811  0.35218158632506436  1.0000
  H   H816      1.0  0.6557896605808896  0.6286384636866652  0.3857226921297932  1.0000
  H   H817      1.0  0.601230605648344  0.5957125444246009  0.38094693268190116  1.0000
  H   H818      1.0  0.6191079205034999  0.5735151941868736  0.3123156288869018  1.0000
  H   H819      1.0  0.5977799314714999  0.5383852173832644  0.3421150146923492  1.0000
  H   H820      1.0  0.6518152589426777  0.5228054346912362  0.3208471457193118  1.0000
  N   N48       1.0  0.87944097014699  0.5158644320314962  0.23652197258891924  1.0000
  C   C573      1.0  0.905816250392642  0.5546075899149014  0.2246094332072596  1.0000
  C   C574      1.0  0.8529852893221981  0.493545232256813  0.21135479974548857  1.0000
  C   C575      1.0  0.8434942466081635  0.5311129829139017  0.25956949105134586  1.0000
  C   C576      1.0  0.9154577607986809  0.48439460690321073  0.25054062729932514  1.0000
  H   H821      1.0  0.9274734403624967  0.5712951003116735  0.24290995283047817  1.0000
  H   H822      1.0  0.8794083474543701  0.5796612595587066  0.2148800271632576  1.0000
  H   H823      1.0  0.9321276636771552  0.5447805881431012  0.20638872365343006  1.0000
  H   H824      1.0  0.8262512962816392  0.5165299519954293  0.19983485346561836  1.0000
  H   H825      1.0  0.8791272269495316  0.4808117553469909  0.1938912416213335  1.0000
  H   H826      1.0  0.8318023260179775  0.46474375380254507  0.21968584732518615  1.0000
  H   H827      1.0  0.814504544057602  0.5533744436832024  0.2493680684430421  1.0000
  H   H828      1.0  0.8621339345115229  0.5497963078065488  0.2781664017311378  1.0000
  H   H829      1.0  0.8243883642679964  0.5027875488343896  0.2701145100066695  1.0000
  H   H830      1.0  0.9453123634496808  0.47526723112685393  0.23450912777209199  1.0000
  H   H831      1.0  0.8976341141094007  0.45308222491117617  0.2576488993106454  1.0000
  H   H832      1.0  0.9337938415435094  0.4988551655010425  0.2708800639884029  1.0000
  N   N49       1.0  0.8789293226994723  0.8377617803646615  0.8049813063161892  1.0000
  C   C577      1.0  0.8630651038342915  0.8831628803208292  0.8137013254325748  1.0000
  C   C578      1.0  0.9289082828377855  0.8389779102870815  0.7915797977833102  1.0000
  C   C579      1.0  0.8434758184136437  0.8199084021642307  0.7823743130381938  1.0000
  C   C580      1.0  0.8803225585399579  0.8090771054455591  0.8322952277654123  1.0000
  H   H833      1.0  0.8897626529717374  0.8983772942373036  0.829978098015924  1.0000
  H   H834      1.0  0.8260778592965077  0.8833664241463214  0.8246338052896348  1.0000
  H   H835      1.0  0.8602824695834885  0.9053183314519707  0.7934831440680318  1.0000
  H   H836      1.0  0.9427594559281272  0.8051130125080764  0.7856081538239813  1.0000
  H   H837      1.0  0.9291548391804885  0.8594339348328754  0.7705149667847148  1.0000
  H   H838      1.0  0.9563708391690674  0.8532668266483475  0.807802133663274  1.0000
  H   H839      1.0  0.8542108285471578  0.7857180749341026  0.7751643205425001  1.0000
  H   H840      1.0  0.8412369267599472  0.840914332492193  0.7614940646632012  1.0000
  H   H841      1.0  0.8052879163109072  0.8186067610830063  0.7916662163669724  1.0000
  H   H842      1.0  0.9065394483729192  0.8218509618040037  0.8498546809353179  1.0000
  H   H843      1.0  0.8930688813754541  0.7747168974071884  0.8266736771274151  1.0000
  H   H844      1.0  0.8432069081074879  0.8068123440333086  0.8429345319771228  1.0000
  N   N50       1.0  0.6039558111079327  0.7994642265040337  0.5585650605043353  1.0000
  C   C581      1.0  0.5539043142607355  0.8030128711676086  0.544748351813362  1.0000
  C   C582      1.0  0.6415173510774251  0.8047347644718802  0.5347325107824179  1.0000
  C   C583      1.0  0.6103109222215728  0.7556819441662117  0.5733044451626239  1.0000
  C   C584      1.0  0.6102376772633216  0.8346693360416075  0.5815449620108525  1.0000
  H   H845      1.0  0.5246767593990121  0.7988651050473522  0.5621255903824122  1.0000
  H   H846      1.0  0.548260156099085  0.7771124164838471  0.526994641928496  1.0000
  H   H847      1.0  0.5474954691312841  0.8359112796623092  0.5336916883683649  1.0000
  H   H848      1.0  0.637915981887565  0.7789802494963756  0.5169097694346992  1.0000
  H   H849      1.0  0.6373384878791517  0.8375045355164492  0.5232897558110137  1.0000
  H   H850      1.0  0.6797655068528855  0.8024906793631477  0.5442544952476754  1.0000
  H   H851      1.0  0.647214713498621  0.7520889451598247  0.584602365695624  1.0000
  H   H852      1.0  0.6064394612060378  0.7282471453924387  0.5566055688159324  1.0000
  H   H853      1.0  0.5819331574051996  0.750605020044506  0.5911761355122267  1.0000
  H   H854      1.0  0.6483089970516505  0.8341969384601384  0.5913858757443665  1.0000
  H   H855      1.0  0.5840701893441392  0.8306456232865231  0.6006811224481704  1.0000
  H   H856      1.0  0.6038656488031563  0.8681814048887428  0.5714673233205041  1.0000
  N   N51       1.0  0.8804287485549628  0.11064053069704682  0.37348097922871953  1.0000
  C   C585      1.0  0.9206189824605531  0.08004695227850478  0.3835897420563244  1.0000
  C   C586      1.0  0.8415177432898882  0.08572210680324432  0.3573567292088945  1.0000
  C   C587      1.0  0.901204551658715  0.14421099597593745  0.35299261766214374  1.0000
  C   C588      1.0  0.8582205989667965  0.1326664534577653  0.40016227895193107  1.0000
  H   H857      1.0  0.950265926334065  0.09816003593493705  0.39590626941660356  1.0000
  H   H858      1.0  0.9380461483260532  0.06282498191555286  0.3639462685155235  1.0000
  H   H859      1.0  0.9067082126439968  0.05418576638506423  0.3991385428913497  1.0000
  H   H860      1.0  0.8264821184060298  0.059024993773108214  0.37193667220698046  1.0000
  H   H861      1.0  0.8100475873771793  0.10788243314201207  0.3504856280544132  1.0000
  H   H862      1.0  0.8557748950486634  0.07004420493759844  0.33635970029338935  1.0000
  H   H863      1.0  0.9198716666781871  0.1284578210481191  0.3332325583938256  1.0000
  H   H864      1.0  0.9287042783711811  0.1651162439989453  0.3649435655022142  1.0000
  H   H865      1.0  0.8721422982769377  0.1670242070103094  0.3439369829593147  1.0000
  H   H866      1.0  0.8400998383770593  0.10823015914254319  0.4150961518206031  1.0000
  H   H867      1.0  0.8296650303304962  0.1577187966666309  0.3933332827562086  1.0000
  H   H868      1.0  0.8863737144700834  0.15016908811922636  0.41386500538661886  1.0000
  N   N52       1.0  0.9033642141066255  0.08700027544355284  0.6233956070659833  1.0000
  C   C589      1.0  0.8750986036001699  0.06691501958092581  0.5981170492528872  1.0000
  C   C590      1.0  0.9131261439707703  0.0533515362030459  0.6472371282508208  1.0000
  C   C591      1.0  0.8742687652145313  0.12427048052621292  0.636297003848196  1.0000
  C   C592      1.0  0.9509452564571593  0.10353942470858565  0.6120183952423419  1.0000
  H   H869      1.0  0.8654854136422396  0.09199555623256007  0.5804067062306137  1.0000
  H   H870      1.0  0.8395038883242879  0.05308401977808997  0.6061416413776148  1.0000
  H   H871      1.0  0.8966426292629737  0.03967866965436851  0.586981099103033  1.0000
  H   H872      1.0  0.8779833718060059  0.040972500102502085  0.6569155971581119  1.0000
  H   H873      1.0  0.933977106860931  0.024235555719346328  0.6380219034386232  1.0000
  H   H874      1.0  0.9354677922410144  0.06732980259516498  0.6662984397011269  1.0000
  H   H875      1.0  0.8938470392347286  0.13901858185865607  0.6560776546784622  1.0000
  H   H876      1.0  0.8372384413703163  0.1133577165147725  0.6440767419188773  1.0000
  H   H877      1.0  0.8680754028692218  0.15114100232535824  0.6192932431706281  1.0000
  H   H878      1.0  0.9723631383131316  0.12025489774572008  0.6303607928937739  1.0000
  H   H879      1.0  0.9452974185632906  0.1278515319256496  0.5931879186898203  1.0000
  H   H880      1.0  0.9746382253144499  0.07599151014520265  0.603138914932004  1.0000
  N   N53       1.0  0.6907259476411265  0.32151952625061686  0.3220933615662279  1.0000
  C   C593      1.0  0.7058506760144075  0.32624824522493306  0.35432311748202544  1.0000
  C   C594      1.0  0.656329989331667  0.35832758012342336  0.313919033817247  1.0000
  C   C595      1.0  0.6657048569749189  0.27876987234977346  0.31757195561506296  1.0000
  C   C596      1.0  0.7350135283667987  0.32288568437022747  0.302678876929792  1.0000
  H   H881      1.0  0.735734640128462  0.30233933178089284  0.36062741089711214  1.0000
  H   H882      1.0  0.6742795151689958  0.32050627228598216  0.36974778200946873  1.0000
  H   H883      1.0  0.720080450857281  0.3600194615689634  0.3592308380981995  1.0000
  H   H884      1.0  0.6440392707455048  0.35604794044383287  0.28971238734477944  1.0000
  H   H885      1.0  0.6228899560811209  0.3584039464143889  0.3285651083183795  1.0000
  H   H886      1.0  0.6741485962759471  0.3910657932122362  0.31719250378225516  1.0000
  H   H887      1.0  0.6545846854505306  0.27395189772043327  0.29331426118377074  1.0000
  H   H888      1.0  0.6319199116818985  0.27651430537471194  0.3317584513354089  1.0000
  H   H889      1.0  0.6904836435372368  0.25047348315355  0.3239650768483858  1.0000
  H   H890      1.0  0.7560345220094723  0.35370318906966375  0.30665065539158515  1.0000
  H   H891      1.0  0.72510379181234  0.3208502548028159  0.27806846908929417  1.0000
  H   H892      1.0  0.7609814546861813  0.2946964035219373  0.30749071855164073  1.0000
  N   N54       1.0  0.1261455222190154  0.6170575390846326  0.10129641579493034  1.0000
  C   C597      1.0  0.08656083527807135  0.6398114392579792  0.08351500439763654  1.0000
  C   C598      1.0  0.1234738526139805  0.5686700351906936  0.09627844382026311  1.0000
  C   C599      1.0  0.11991374898006212  0.6265178753521043  0.1340872392394757  1.0000
  C   C600      1.0  0.17470360090472717  0.6332805348668609  0.09132823908940427  1.0000
  H   H893      1.0  0.04919719117398369  0.6316354703140228  0.09205109581851104  1.0000
  H   H894      1.0  0.08833259973298956  0.6309603797541239  0.058951652388295486  1.0000
  H   H895      1.0  0.09007639069511651  0.6763885750745859  0.08486508663039977  1.0000
  H   H896      1.0  0.153141909823232  0.5505402144681646  0.10923983485586301  1.0000
  H   H897      1.0  0.08726938280666484  0.5555233853498284  0.10379968466883534  1.0000
  H   H898      1.0  0.12867133922786572  0.5601584924599118  0.07186208267201946  1.0000
  H   H899      1.0  0.08273262510765744  0.6165667275754467  0.14217031251498466  1.0000
  H   H900      1.0  0.1240443920689083  0.6624521681290046  0.13905785189318043  1.0000
  H   H901      1.0  0.1481479925953901  0.608334351939179  0.14806601349571885  1.0000
  H   H902      1.0  0.17852511663430545  0.6693529857008348  0.09611829166170868  1.0000
  H   H903      1.0  0.1801180886249962  0.6282468311244437  0.06640994623739056  1.0000
  H   H904      1.0  0.2056007585843806  0.6157154400779649  0.10328785682527594  1.0000
  N   N55       1.0  0.39736147033960456  0.4821803909218283  0.7228992360420147  1.0000
  C   C601      1.0  0.3734439660030928  0.5229908981588273  0.734724667000192  1.0000
  C   C602      1.0  0.38702090481559537  0.47826304439247463  0.689912159701888  1.0000
  C   C603      1.0  0.37763464628311133  0.44320166795767657  0.7388142541029334  1.0000
  C   C604      1.0  0.4513499504642011  0.48438428982094894  0.7282983968153038  1.0000
  H   H905      1.0  0.33255650940607745  0.5228234689406919  0.7312219191198308  1.0000
  H   H906      1.0  0.3880716073023685  0.5531863374104566  0.7235830795019452  1.0000
  H   H907      1.0  0.3806801352652795  0.5265302671985186  0.7595038443229573  1.0000
  H   H908      1.0  0.40356300202051903  0.44724441820892713  0.6803652837738176  1.0000
  H   H909      1.0  0.34647501918089324  0.4780349652888549  0.6850568039154211  1.0000
  H   H910      1.0  0.4026766420353139  0.5065233524596332  0.677149750414164  1.0000
  H   H911      1.0  0.3948614473795972  0.4117700061084996  0.7304212038468558  1.0000
  H   H912      1.0  0.33682233870659756  0.44088621381231263  0.7355009918257717  1.0000
  H   H913      1.0  0.3846557979583655  0.4451401473468652  0.7638228797184217  1.0000
  H   H914      1.0  0.4673684108608714  0.5134961047095034  0.7165354829178942  1.0000
  H   H915      1.0  0.4707286037365796  0.45397352125733637  0.7199315606226172  1.0000
  H   H916      1.0  0.4601990893807444  0.4880846268583675  0.7529926016195261  1.0000
  N   N56       1.0  0.11728051624644276  0.7647441569582912  0.9185387442450981  1.0000
  C   C605      1.0  0.16270467778798237  0.7884811060519937  0.910290651343429  1.0000
  C   C606      1.0  0.07408326144162669  0.7952189841383461  0.9153956390375213  1.0000
  C   C607      1.0  0.12137274245877716  0.7491966749103744  0.950344741339684  1.0000
  C   C608      1.0  0.11089788086423558  0.726086574885026  0.8982395882420996  1.0000
  H   H917      1.0  0.19616951948769756  0.7666707070209621  0.9123160104612825  1.0000
  H   H918      1.0  0.16843525927337022  0.8179473278706131  0.9251826742904067  1.0000
  H   H919      1.0  0.16095475323184671  0.8005490629833448  0.8863486617871955  1.0000
  H   H920      1.0  0.07617994365148628  0.8232958313766283  0.9317793641387726  1.0000
  H   H921      1.0  0.07185022451981538  0.8099109168706969  0.892199491134699  1.0000
  H   H922      1.0  0.03869144660607349  0.7778731706319076  0.9194317949284874  1.0000
  H   H923      1.0  0.12775682224539286  0.7772692302438609  0.9661698133598271  1.0000
  H   H924      1.0  0.15270401236388076  0.7252220936810055  0.9533920726420622  1.0000
  H   H925      1.0  0.08703165583750305  0.7325934665507668  0.9577167216783525  1.0000
  H   H926      1.0  0.10483121052582023  0.7366696784160922  0.87431215617755  1.0000
  H   H927      1.0  0.07803277853582702  0.7064731024908032  0.9046278794599972  1.0000
  H   H928      1.0  0.14403230691103963  0.7035491966093281  0.8988557788621548  1.0000
  N   N57       1.0  0.3957070500132566  0.019863442087961536  0.3631669426413073  1.0000
  C   C609      1.0  0.39538754349214184  0.04355283027284851  0.333752452246098  1.0000
  C   C610      1.0  0.44731102202221973  0.013636654687972705  0.3740026462650989  1.0000
  C   C611      1.0  0.3724874717558203  0.9761299859977165  0.3591941457856243  1.0000
  C   C612      1.0  0.36763801948187597  0.04622251404885369  0.38570939407372173  1.0000
  H   H929      1.0  0.3569749979157202  0.04898444394671775  0.32499474331593947  1.0000
  H   H930      1.0  0.4160274215320308  0.02436662758283492  0.3162119308225031  1.0000
  H   H931      1.0  0.41292914518424234  0.07655119406854505  0.33579304519456527  1.0000
  H   H932      1.0  0.46991244345288147  0.9952307495037496  0.3570623285023325  1.0000
  H   H933      1.0  0.46546961179100516  0.04598338132798441  0.3781794855785349  1.0000
  H   H934      1.0  0.4491818398940555  0.9946930365499594  0.39574286347264853  1.0000
  H   H935      1.0  0.3930438891219457  0.9552748373704834  0.34243821718862216  1.0000
  H   H936      1.0  0.3334650214871607  0.9797389816859338  0.350950931897668  1.0000
  H   H937      1.0  0.37162400781189636  0.9575149447514304  0.3810768924673903  1.0000
  H   H938      1.0  0.3671610514724355  0.028996160404293203  0.40800896957752153  1.0000
  H   H939      1.0  0.32839915952376547  0.05148560932938584  0.378320557766082  1.0000
  H   H940      1.0  0.38439174101784257  0.0792572264051894  0.38958254091755906  1.0000
  N   N58       1.0  0.07701746277485076  0.05388252924275605  0.7463475422484608  1.0000
  C   C613      1.0  0.09800877085208848  0.06834971963338224  0.7171175343043292  1.0000
  C   C614      1.0  0.07317201161065001  0.09188855945802019  0.7675747163208474  1.0000
  C   C615      1.0  0.10937974675652384  0.018955181443528705  0.759828757579845  1.0000
  C   C616      1.0  0.027289613198341996  0.03596178707639087  0.7407438285814273  1.0000
  H   H941      1.0  0.09647238060009043  0.04145627250990902  0.6997776303256982  1.0000
  H   H942      1.0  0.1374445507902997  0.07752299834689469  0.7197214903721788  1.0000
  H   H943      1.0  0.07726152433993126  0.09732958237503098  0.7075382193370497  1.0000
  H   H944      1.0  0.054884654614903106  0.08240844111753118  0.7891466899385772  1.0000
  H   H945      1.0  0.11022588815857957  0.10475491029329013  0.7737141740338087  1.0000
  H   H946      1.0  0.051101389385438394  0.11989090999245902  0.7574212571420623  1.0000
  H   H947      1.0  0.1463340745698352  0.03205064539121683  0.7659859708297808  1.0000
  H   H948      1.0  0.1156948074096722  0.9911432346401698  0.7434828197116841  1.0000
  H   H949      1.0  0.09296935008494178  0.004749545469375339  0.7807192591846038  1.0000
  H   H950      1.0  0.002853901156047112  0.0603979267710457  0.7289735293341304  1.0000
  H   H951      1.0  0.008923416927469674  0.02739625949110613  0.762410467490778  1.0000
  H   H952      1.0  0.029096272479440796  0.005719948752911597  0.726209497305637  1.0000
  N   N59       1.0  0.3528380586244246  0.9640430595583321  0.6133848251140614  1.0000
  C   C617      1.0  0.33025763824124427  0.9396398724956976  0.5877591611674643  1.0000
  C   C618      1.0  0.39450360398014606  0.9903426409244973  0.6021300944380684  1.0000
  C   C619      1.0  0.37130714415740484  0.9322556035203307  0.6366216728210298  1.0000
  C   C620      1.0  0.3151966802500026  0.9940110656564924  0.6269144278402989  1.0000
  H   H953      1.0  0.2993427135652926  0.918836675789152  0.5954929172149095  1.0000
  H   H954      1.0  0.35751158176893827  0.9171237278206695  0.576560886007568  1.0000
  H   H955      1.0  0.31501266787194393  0.9628072936932343  0.5702438889825088  1.0000
  H   H956      1.0  0.38164075129100034  0.015642209544614927  0.5852978258573903  1.0000
  H   H957      1.0  0.413401328112496  0.008140579079421117  0.6210120285183127  1.0000
  H   H958      1.0  0.42276464079612747  0.9688428260551812  0.590935176887426  1.0000
  H   H959      1.0  0.39832254500595776  0.9081511816983452  0.6268280587753293  1.0000
  H   H960      1.0  0.34067379984824797  0.9127786021798405  0.6463764954289581  1.0000
  H   H961      1.0  0.390320261727591  0.9495412128533365  0.6557318055366902  1.0000
  H   H962      1.0  0.3309659230113515  0.013629245600705444  0.6459264484412598  1.0000
  H   H963      1.0  0.2835333730576676  0.9752328742127305  0.6359031091462798  1.0000
  H   H964      1.0  0.29985098723946046  0.017852005507983163  0.6098775817150931  1.0000
  N   N60       1.0  0.6717135723273033  0.4690781756596306  0.13932862280476094  1.0000
  C   C621      1.0  0.7260830170239743  0.4660107806251071  0.14331817796052418  1.0000
  C   C622      1.0  0.6579441525804915  0.4547183376803236  0.10822148116724238  1.0000
  C   C623      1.0  0.6545898153890986  0.5153791405415047  0.144012808959661  1.0000
  C   C624      1.0  0.6481004837428298  0.4401720624746654  0.16186877179812606  1.0000
  H   H965      1.0  0.7401672078404148  0.4314458170741985  0.13970301999098392  1.0000
  H   H966      1.0  0.7375095035718733  0.47613590165029857  0.16672062687078906  1.0000
  H   H967      1.0  0.7453167922126915  0.48808407821146416  0.12711190811184447  1.0000
  H   H968      1.0  0.6175203892874149  0.45921126123025213  0.10391298624447207  1.0000
  H   H969      1.0  0.6773335511391694  0.47421439227781065  0.09061818925175709  1.0000
  H   H970      1.0  0.6670469348969441  0.4189316029442298  0.10446613358800104  1.0000
  H   H971      1.0  0.6135653034784901  0.5186104647331263  0.1418571650148288  1.0000
  H   H972      1.0  0.6710143483740807  0.5379712929979943  0.1270127898879128  1.0000
  H   H973      1.0  0.6653509875383714  0.5278067384629628  0.16700201881199547  1.0000
  H   H974      1.0  0.6071286596748887  0.44030761890802683  0.15891904727653194  1.0000
  H   H975      1.0  0.6563932358815628  0.4511721743323654  0.18553401389942448  1.0000
  H   H976      1.0  0.6616673629572564  0.40523905256130854  0.15968769674401467  1.0000
  N   N61       1.0  0.8469566447849665  0.26808105791820375  0.016900968047875775  1.0000
  C   C625      1.0  0.8868665163764075  0.2344592411508396  0.021070216868845693  1.0000
  C   C626      1.0  0.8613149668145635  0.30960520075489917  0.03223264124705587  1.0000
  C   C627      1.0  0.8007554975167288  0.25200008600679813  0.030473600179855065  1.0000
  C   C628      1.0  0.8388200128085194  0.2763280340389604  0.9840415578035696  1.0000
  H   H977      1.0  0.8769624036685795  0.20226075856902948  0.010422485533848391  1.0000
  H   H978      1.0  0.8942841041845296  0.2280069793689311  0.04571223125436942  1.0000
  H   H979      1.0  0.9221870285885896  0.24545601894622746  0.010999615291600762  1.0000
  H   H980      1.0  0.8664840918280162  0.3045301156044239  0.05718147914833694  1.0000
  H   H981      1.0  0.8965506688297212  0.3225710030749775  0.02318887589848452  1.0000
  H   H982      1.0  0.8322073566064512  0.335592296238669  0.029544207405020034  1.0000
  H   H983      1.0  0.7893062197022745  0.219998052038297  0.020131509260356006  1.0000
  H   H984      1.0  0.769706143285273  0.2764258152599916  0.027429573722164795  1.0000
  H   H985      1.0  0.8055604382348169  0.24641351708127807  0.05538825261093288  1.0000
  H   H986      1.0  0.8269724874392578  0.2456932323545534  0.9719815425844219  1.0000
  H   H987      1.0  0.8730804758593627  0.2878841734186284  0.9729023488445079  1.0000
  H   H988      1.0  0.8094500832696109  0.302049497684085  0.9801174767216551  1.0000
  N   N62       1.0  0.09548819818212495  0.02229747405215443  0.9775133326292078  1.0000
  C   C629      1.0  0.14777849438913915  0.022168709872048  0.9678660375458737  1.0000
  C   C630      1.0  0.06458725367820262  0.0032003021229101147  0.9529996839662407  1.0000
  C   C631      1.0  0.07851056722879646  0.0682544303802127  0.9837595550765353  1.0000
  C   C632      1.0  0.0910679896707387  0.9954049964873035  0.005447852897779937  1.0000
  H   H989      1.0  0.153054678302043  0.043146905959104316  0.947342448677135  1.0000
  H   H990      1.0  0.16127954853245896  0.9880628999758897  0.9620967601718521  1.0000
  H   H991      1.0  0.17258733212383381  0.034781750892048935  0.9861550473126085  1.0000
  H   H992      1.0  0.02502260817942048  0.0016129940151550226  0.9598221273356639  1.0000
  H   H993      1.0  0.06568793342453638  0.02359700279287025  0.9318996759876889  1.0000
  H   H994      1.0  0.077296893713243  0.9689668954424946  0.9471088488838727  1.0000
  H   H995      1.0  0.0811373149414849  0.08956128955930312  0.9631941123222937  1.0000
  H   H996      1.0  0.10091927980685012  0.0837996633233469  0.0021774313925184696  1.0000
  H   H997      1.0  0.0390598424855475  0.06939099780786985  0.9909262473895631  1.0000
  H   H998      1.0  0.10533660163887104  0.9609734820733913  0.0018343087653445167  1.0000
  H   H999      1.0  0.051803280659537654  0.9931829243430949  0.012769950386796403  1.0000
  H   H1000     1.0  0.11253852285534016  0.00977882903631877  0.024698407471173578  1.0000
  N   N63       1.0  0.5683458043461741  0.045751669602387635  0.2091351513675211  1.0000
  C   C633      1.0  0.5621296178122087  0.051560880354987855  0.17588474902861473  1.0000
  C   C634      1.0  0.614670358934235  0.0667786847520033  0.21935529918060895  1.0000
  C   C635      1.0  0.5703671347751449  0.9978775236623973  0.21637291633436154  1.0000
  C   C636      1.0  0.5260199044496492  0.06678593617880905  0.22493297748067975  1.0000
  H   H1001     1.0  0.5263193414816812  0.03775853520061223  0.16768857107050525  1.0000
  H   H1002     1.0  0.592137501107792  0.0340522265273242  0.16321312355909062  1.0000
  H   H1003     1.0  0.5628034936792252  0.08717607553818751  0.16941344222344132  1.0000
  H   H1004     1.0  0.6472584885188676  0.052567167560577  0.20737534756813264  1.0000
  H   H1005     1.0  0.6140036458398968  0.10309487209403878  0.2147196348794784  1.0000
  H   H1006     1.0  0.6211551879115679  0.06202679918945181  0.24421588315187218  1.0000
  H   H1007     1.0  0.6006134031691619  0.9805087244413663  0.2039229277710773  1.0000
  H   H1008     1.0  0.5352406975648732  0.981371720586605  0.2098413384456346  1.0000
  H   H1009     1.0  0.5765750623408558  0.9919607410496093  0.2411356937402796  1.0000
  H   H1010     1.0  0.5283095713764013  0.06121720830608481  0.2499701908031898  1.0000
  H   H1011     1.0  0.49039734892211523  0.053004457427253904  0.21670442290748917  1.0000
  H   H1012     1.0  0.5243702083653446  0.10321160265685696  0.22101722595742132  1.0000
  N   N64       1.0  0.3297271075726705  0.7645698650622043  0.7893180177428342  1.0000
  C   C637      1.0  0.35791081943542413  0.739371321099288  0.7661365381347527  1.0000
  C   C638      1.0  0.281723381427384  0.7431366176557571  0.7943931219786369  1.0000
  C   C639      1.0  0.321333887287297  0.8105538366869081  0.7785831883711991  1.0000
  C   C640      1.0  0.3580259678330315  0.765323929735226  0.8182855977565573  1.0000
  H   H1013     1.0  0.3673483613853291  0.7051909799329121  0.774050844091068  1.0000
  H   H1014     1.0  0.393051594709194  0.7561015161334919  0.7604111513064515  1.0000
  H   H1015     1.0  0.33644894355558524  0.7361692528284657  0.744539325691033  1.0000
  H   H1016     1.0  0.26062375220880213  0.7600995156949832  0.812792528149043  1.0000
  H   H1017     1.0  0.2581929753926515  0.7435283776255431  0.7735269202204136  1.0000
  H   H1018     1.0  0.2869154778009677  0.7078598565738322  0.8013082383531757  1.0000
  H   H1019     1.0  0.3001757127588052  0.8115954660576925  0.7567996169211726  1.0000
  H   H1020     1.0  0.3569978178923484  0.8275586445419031  0.7746312028059423  1.0000
  H   H1021     1.0  0.3004478386975693  0.8308438270394664  0.7954992049618358  1.0000
  H   H1022     1.0  0.3371054532844708  0.7835346031482259  0.836286193894441  1.0000
  H   H1023     1.0  0.3939477768519273  0.7822548472445774  0.8155041539787073  1.0000
  H   H1024     1.0  0.36556504404492307  0.731153724847897  0.8269762810570269  1.0000
