data_image0
_chemical_formula_structural       FeHS3H6NHCH3FeH2CFeC3NCH2CHSHSCHCH2FeH2CHC2H4CH2C2SC2H2Fe2SC3H2NH3CNCSCHS2H3CS2H3CH4CHFeH2CH3C2SH2NCH7CH4SHSHFeSFeS2FeS2H8NS2CHFeCSCH2CHCHFeCSH2C2HFeH5CNC6HC7H4FeHNC4H13C2SHCH2C2H7CH2CHCSH2CFeSFeSHCHFeS2H2FeSCFeSFeCS2CSH3C2HCHC3HNCHSCH3C6H7C2HSHCNCHC2H7CHFeH2CS2H2CHSHC4FeHCH5CFeSHSH2NH5SH5FeS2FeSCFeSFeS3HCH2FeHS2HCSC6H2CHC2HCHCHC6H2CHSC4H3FeCHC2HCNC4SH3SH7CHCHCHC2HNH7SFeHNH2NH2SCHC2NCH6CHCH3CH8CH6CH2CH3NCHCFeS2FeSHFeHFeHSHFeS2FeS2FeSFeS3HSH3FeSFeS2FeHCFeS2CHC4HSH2C6H4C6H4C9H6C4HSCH4CNCSH2C3HC3H5CHSCH3NH2FeSH2S2CHFeC2H4NH2C2H2CH5CHSH2CHCH4N2SHCHCH2SCSHFeS2FeHSFeS2FeSFeS2H3SHFeS2FeS2C7H2C2HC3H3C3H2C6H4SHFeCH2CH3C2H2SHCHNH4CH2C2SHNHSH3NCHC3HCH4CSH3NC4H12FeCH6C2H2NCH2CH2CHCHCNH3CHC2HCSHNH2FeCHCH2CHC3HC2FeS2HSH2CH3C4NH5C3H2FeH2S2H3CH2SCH6CHC2H2FeCSC2H2S2FeSFeH3FeS2H2CS2FeHFeSH2CFe2SHFeS2FeSFeS3C6H3C7H3C2NSHC6H5CH2SH5SC6H4CHC2H2C6HFeCH5CH6CHSHC2HCHNC4H9SH12C2H2CHNHSHCHSC2H2CN2FeCHCFeH2SNHCHCH2CH2CHCH4NCH2NHCH4CH2CHC2H4CH2SHFeCSFeHS3C2S2Fe2S2Fe2S3C3H2C6H4C3H2C3H2CHFeH3SH12CHNH2CSHNH2C2H2CHCH3SH4CHSHSH3CS2FeS2FeS2FeSFeS3C6H4C6H3C6H4FeHFeH3CHCHCHNC2HCH2FeHC2H2CHSFeH2NHNC4H12C3H2CH6CSCH3CHNHCHCH4C2HC2HCH3CSH2FeS2FeS2Fe2SHSH2FeS2H2SFeS2H2SH2CHFeSCHCSHS2C6H4C6H4C6H2C6H2CHC2H2FeCHSC7H5SH3SCH2CH2SH4CH7CH2SH4CNHCHCHNFeCH2CH4CSH4NC2H6SH3C2H2C2NH2CFeH3FeHSHFeC2HCSHCSFeS2CFeCFeHS2CSFeS2FeCFeS3H3C6H7FeCHCH2C6H5C4H2C4H2S2HSH4SHCNH3C2H3CNC4H3CH6C4H3SCH7NFeH3CH2CH2SHC3H2CNH2CH2CHSFeCHC2SCFeSFeCNFeC2H2S2FeCFeCHS2HSCSFeH2SHS2FeH3C2H2CH2CH2C4H4SH2NCH2CH2NH2C2HCH4CHCH6CH3SH3C2HC2H6C3HFeSHNHFeHCHFeHSCHSH3CHCHFeHFeSH2FeCSHS2C2SHSHC2SH3S2HFeS2FeSHFeSFeS3CFeS2H2S2C2HC2H2CH8CHCHCHC3H3NC6H4CH3FeHFeHCHC2S2HCHFeHCHNC5H3C2HCH4NC4HC2H9FeH2CHSCH3CSH2NH3S2FeS2FeHFeHS2NSHFeS3FeS2FeS2FeSFeS3FeS2C2HC6H4SC5H2C6H7C5H4CH3CHNC6H7N2C4H12NH2SFeH2CHC2FeH2CNH2CH4FeNC4H6NHCH2C2H5CHCHCH6C2HC2H3CFeH2CSH3CHC3HCHSHCH2CH3Fe2H5CH4C2H4FeSHFeSHFeS2HFeS2FeS2FeSFeHS3H6C6H7C6H4SC7H6CH2C2H2C2HS2HCH3CHCNC4H3NH8CHCHCH2CHC3SH6NHCH2SHCH2SC2H2CNH2C2H4NSH2C2H4FeS3FeSFeS3CH2FeHFeHFeHSFeH2S2CHNFeH4CNCFeCH2CH3C6H4C3H2C6H5SCH3CHCHCH2SCHSCHCH4NCH3S3H4C4H4C2H3C3H4CH3C2NH2S2HCFeHCH5CH4SFe2S2HNHFeS2CHFeSHSCH2CS2HC4H3C8H7C3H2C3H2CH8C3H3CNH2FeCHCH3CSNCSH4SH2CHNSH2C2HCH4CH3CHC3H4C2H2CH5CH2CNSH2CH2CSC2FeHFeS2FeS2FeSFeS3HSNH2SFeC2NCH3SH2CFeS4C2HSH4C6H3CHC6H4C6H2CHC2NCH4CH8NC3SC2H3CH2CH3CH2CHC2HNHCH2CH2C2H7C2HC2FeH5C2HSH2CHCHCHCSHCH4SH13NCHCSHC6H9SH5CHSHC5H5SCH3SHFeSFeSHFeS2FeSFeSCH2CFeSH3C6H6C2HC3NHSC2H3CH2FeH3SCNH4C2H5C2H2S2H3C2SHCHSH3CHFeH5CHCSHSCH2NFeNHCH5CHS3FeS2FeS2FeSFeS3HCFeC8H3S2HC6H4CNHC3SH2FeCH4CH2C2H2SH3CH4C3SHSFeSH8CHNC4H6CH6CHC2HCH2C3H2C2SFeSCFeSFeSFeS3H2SHSCFeS2FeS2FeS3FeS2CSH5C6H5SC6H4NHSH3C2H4C6H9C6H4CH5CH3CH3CFe2HCH2C2H2CH4C2H2NC4H12NCHNH2NHNHCH2CH2CFeC3SH3NH2FeH3C2H2CH3FeSHCHSH2CSFeSFe2SFe2S2FeS2H4FeSHSC7H4CHC7H5CH8C6H6C4H2NHSHCH5C2H2CSHS2HFeC2SCNC4H5SH2C2HCSH4NC3H2CH2C2FeS2FeSFe2SFeS3FeSHFeSCFe2S3HFeS2CFeSCS2HSHSC5H5CFeHC3HSH2C2H2C6H4C2HCH4C6H5NC2H4CHC2H2CH2C5HNC2FeCH3N2CH2CH2CHSH8FeH2SCNSH2C2HCHCH2CHNH5CH5C2H5NH12CH6SC2NHCS
_chemical_formula_sum              "Fe224 H1792 S448 N112 C1120"
_cell_length_a       45.7601
_cell_length_b       46.5543
_cell_length_c       84.9367
_cell_angle_alpha    86.1852
_cell_angle_beta     86.0546
_cell_angle_gamma    114.715

_space_group_name_H-M_alt    "P 1"
_space_group_IT_number       1

loop_
  _space_group_symop_operation_xyz
  'x, y, z'

loop_
  _atom_site_type_symbol
  _atom_site_label
  _atom_site_symmetry_multiplicity
  _atom_site_fract_x
  _atom_site_fract_y
  _atom_site_fract_z
  _atom_site_occupancy
  Fe  Fe1       1.0  0.45943  0.07080  0.16068  1.0000
  H   H1        1.0  0.36599  0.07690  0.10868  1.0000
  S   S1        1.0  0.41660  0.30933  0.08480  1.0000
  S   S2        1.0  0.40514  0.08391  0.21066  1.0000
  S   S3        1.0  0.49448  0.29650  0.07109  1.0000
  H   H2        1.0  0.40051  0.09893  0.24264  1.0000
  H   H3        1.0  0.32772  0.06189  0.14107  1.0000
  H   H4        1.0  0.49222  0.03535  0.18045  1.0000
  H   H5        1.0  0.49465  0.02589  0.22058  1.0000
  H   H6        1.0  0.46864  0.23103  0.14128  1.0000
  H   H7        1.0  0.37969  0.31038  0.24308  1.0000
  N   N1        1.0  0.47137  0.05188  0.23204  1.0000
  H   H8        1.0  0.05649  0.33153  0.24179  1.0000
  C   C1        1.0  0.44904  0.27730  0.13675  1.0000
  H   H9        1.0  0.36917  0.05206  0.12483  1.0000
  H   H10       1.0  0.29442  0.32188  0.22766  1.0000
  H   H11       1.0  0.32233  0.32491  0.07061  1.0000
  Fe  Fe2       1.0  0.40700  0.09082  0.15120  1.0000
  H   H12       1.0  0.39060  0.32838  0.11176  1.0000
  H   H13       1.0  0.42138  0.19412  0.08649  1.0000
  C   C2        1.0  0.37513  0.33087  0.24523  1.0000
  Fe  Fe3       1.0  0.44585  0.29440  0.06728  1.0000
  C   C3        1.0  0.46911  0.34492  0.10028  1.0000
  C   C4        1.0  0.41655  0.33790  0.11195  1.0000
  C   C5        1.0  0.07389  0.33242  0.10312  1.0000
  N   N2        1.0  0.44647  0.25294  0.12593  1.0000
  C   C6        1.0  0.47425  0.26606  0.11349  1.0000
  H   H14       1.0  0.48259  0.03286  0.12768  1.0000
  H   H15       1.0  0.34816  0.32216  0.19323  1.0000
  C   C7        1.0  0.30490  0.31282  0.21802  1.0000
  H   H16       1.0  0.32909  0.31553  0.22115  1.0000
  S   S4        1.0  0.44405  0.10796  0.16841  1.0000
  H   H17       1.0  0.30962  0.29292  0.18922  1.0000
  S   S5        1.0  0.42536  0.24341  0.06209  1.0000
  C   C8        1.0  0.41607  0.24371  0.11841  1.0000
  H   H18       1.0  0.32447  0.08590  0.12456  1.0000
  C   C9        1.0  0.35564  0.05199  0.11443  1.0000
  H   H19       1.0  0.27620  0.33738  0.18639  1.0000
  H   H20       1.0  0.46664  0.08984  0.21822  1.0000
  Fe  Fe4       1.0  0.44339  0.26307  0.03652  1.0000
  H   H21       1.0  0.45849  0.13535  0.12525  1.0000
  H   H22       1.0  0.40538  0.33949  0.05420  1.0000
  C   C10       1.0  0.47218  0.08403  0.23027  1.0000
  H   H23       1.0  0.44598  0.20649  0.12710  1.0000
  C   C11       1.0  0.37887  0.33272  0.05509  1.0000
  C   C12       1.0  0.44654  0.22475  0.13501  1.0000
  H   H24       1.0  0.45389  0.08603  0.23894  1.0000
  H   H25       1.0  0.47288  0.24838  0.10501  1.0000
  H   H26       1.0  0.02954  0.30944  0.13927  1.0000
  H   H27       1.0  0.49684  0.17174  0.10292  1.0000
  C   C13       1.0  0.31503  0.06100  0.13024  1.0000
  H   H28       1.0  0.31239  0.06356  0.09861  1.0000
  H   H29       1.0  0.39451  0.23341  0.12740  1.0000
  C   C14       1.0  0.46180  0.18572  0.09328  1.0000
  C   C15       1.0  0.40790  0.16082  0.10752  1.0000
  S   S6        1.0  0.39099  0.12058  0.13485  1.0000
  C   C16       1.0  0.04910  0.31191  0.12996  1.0000
  C   C17       1.0  0.42960  0.18149  0.09492  1.0000
  H   H30       1.0  0.47204  0.28547  0.14238  1.0000
  H   H31       1.0  0.42871  0.26804  0.14643  1.0000
  Fe  Fe5       1.0  0.40777  0.06847  0.18593  1.0000
  Fe  Fe6       1.0  0.47523  0.24689  0.06414  1.0000
  S   S7        1.0  0.42563  0.05723  0.14181  1.0000
  C   C18       1.0  0.43560  0.33245  0.09990  1.0000
  C   C19       1.0  0.38275  0.05991  0.22824  1.0000
  C   C20       1.0  0.45028  0.14800  0.11677  1.0000
  H   H32       1.0  0.26207  0.33287  0.20709  1.0000
  H   H33       1.0  0.41350  0.22569  0.11001  1.0000
  N   N3        1.0  0.04745  0.32934  0.11509  1.0000
  H   H34       1.0  0.42513  0.21322  0.14406  1.0000
  H   H35       1.0  0.38310  0.15793  0.10880  1.0000
  H   H36       1.0  0.44846  0.29865  0.13033  1.0000
  C   C21       1.0  0.27486  0.32449  0.19816  1.0000
  N   N4        1.0  0.32059  0.03995  0.11931  1.0000
  C   C22       1.0  0.47199  0.16868  0.10414  1.0000
  S   S8        1.0  0.49193  0.26233  0.03818  1.0000
  C   C23       1.0  0.38586  0.07370  0.24263  1.0000
  H   H37       1.0  0.27698  0.03041  0.10831  1.0000
  S   S9        1.0  0.45948  0.31396  0.04158  1.0000
  S   S10       1.0  0.42594  0.03236  0.17926  1.0000
  H   H38       1.0  0.07202  0.30874  0.10034  1.0000
  H   H39       1.0  0.48837  0.05433  0.20754  1.0000
  H   H40       1.0  0.25965  0.29877  0.19751  1.0000
  C   C24       1.0  0.41825  0.14427  0.11855  1.0000
  S   S11       1.0  0.41012  0.24000  0.01796  1.0000
  S   S12       1.0  0.36923  0.05412  0.16916  1.0000
  H   H41       1.0  0.37100  0.32837  0.04302  1.0000
  H   H42       1.0  0.41522  0.26450  0.11152  1.0000
  H   H43       1.0  0.47497  0.28742  0.10648  1.0000
  C   C25       1.0  0.01584  0.31190  0.10907  1.0000
  H   H44       1.0  0.36699  0.30971  0.06279  1.0000
  H   H45       1.0  0.36075  0.03719  0.10587  1.0000
  H   H46       1.0  0.28960  0.28688  0.21820  1.0000
  H   H47       1.0  0.28886  0.05281  0.13417  1.0000
  C   C26       1.0  0.30352  0.03938  0.10510  1.0000
  H   H48       1.0  0.30726  0.02355  0.09666  1.0000
  Fe  Fe7       1.0  0.39060  0.02148  0.16080  1.0000
  H   H49       1.0  0.43021  0.03271  0.21879  1.0000
  H   H50       1.0  0.48411  0.34146  0.09089  1.0000
  C   C27       1.0  0.49454  0.04981  0.21964  1.0000
  H   H51       1.0  0.01339  0.32464  0.09801  1.0000
  H   H52       1.0  0.32674  0.33182  0.17829  1.0000
  H   H53       1.0  0.07253  0.32463  0.13490  1.0000
  C   C28       1.0  0.32364  0.31871  0.19022  1.0000
  C   C29       1.0  0.36360  0.02734  0.22836  1.0000
  S   S13       1.0  0.49001  0.21293  0.07813  1.0000
  H   H54       1.0  0.04659  0.28762  0.12804  1.0000
  H   H55       1.0  0.07343  0.34580  0.09184  1.0000
  N   N5        1.0  0.30749  0.33010  0.20235  1.0000
  C   C30       1.0  0.43839  0.02795  0.23034  1.0000
  H   H56       1.0  0.49634  0.10269  0.23204  1.0000
  H   H57       1.0  0.42051  0.02810  0.23990  1.0000
  H   H58       1.0  0.01230  0.28768  0.10638  1.0000
  H   H59       1.0  0.36986  0.33994  0.08587  1.0000
  H   H60       1.0  0.09802  0.34552  0.10741  1.0000
  H   H61       1.0  0.36095  0.01642  0.21738  1.0000
  H   H62       1.0  0.46524  0.29204  0.99933  1.0000
  C   C31       1.0  0.42196  0.24999  0.99732  1.0000
  H   H63       1.0  0.49764  0.27313  0.11867  1.0000
  H   H64       1.0  0.32652  0.34391  0.05090  1.0000
  H   H65       1.0  0.46566  0.01607  0.15588  1.0000
  H   H66       1.0  0.37735  0.02123  0.37084  1.0000
  S   S14       1.0  0.28262  0.26850  0.34318  1.0000
  H   H67       1.0  0.19051  0.02829  0.36265  1.0000
  S   S15       1.0  0.26976  0.27714  0.30556  1.0000
  H   H68       1.0  0.22537  0.01995  0.32350  1.0000
  Fe  Fe8       1.0  0.25711  0.29181  0.32872  1.0000
  S   S16       1.0  0.20412  0.27880  0.33684  1.0000
  Fe  Fe9       1.0  0.29713  0.25558  0.31968  1.0000
  S   S17       1.0  0.28655  0.20603  0.31214  1.0000
  S   S18       1.0  0.34357  0.30045  0.31514  1.0000
  Fe  Fe10      1.0  0.31732  0.04515  0.32728  1.0000
  S   S19       1.0  0.36271  0.04504  0.31479  1.0000
  S   S20       1.0  0.31244  0.08712  0.33808  1.0000
  H   H69       1.0  0.21256  0.04907  0.34401  1.0000
  H   H70       1.0  0.40004  0.03190  0.39673  1.0000
  H   H71       1.0  0.35665  0.02848  0.47461  1.0000
  H   H72       1.0  0.50506  0.06323  0.24963  1.0000
  H   H73       1.0  0.38960  0.29758  0.48263  1.0000
  H   H74       1.0  0.41407  0.04509  0.47764  1.0000
  H   H75       1.0  0.42525  0.26942  0.46190  1.0000
  H   H76       1.0  0.31932  0.31597  0.38016  1.0000
  N   N6        1.0  0.39032  0.02112  0.45826  1.0000
  S   S21       1.0  0.45233  0.02385  0.41011  1.0000
  S   S22       1.0  0.37734  0.09638  0.48399  1.0000
  C   C32       1.0  0.41024  0.02159  0.38812  1.0000
  H   H77       1.0  0.48790  0.22738  0.48583  1.0000
  Fe  Fe11      1.0  0.43108  0.11441  0.48472  1.0000
  C   C33       1.0  0.39783  0.05063  0.44786  1.0000
  S   S23       1.0  0.46228  0.10856  0.46426  1.0000
  C   C34       1.0  0.37030  0.05507  0.25708  1.0000
  H   H78       1.0  0.13727  0.26562  0.34421  1.0000
  H   H79       1.0  0.50349  0.08944  0.40824  1.0000
  C   C35       1.0  0.34049  0.33474  0.38385  1.0000
  H   H80       1.0  0.48477  0.17496  0.45017  1.0000
  C   C36       1.0  0.50339  0.10442  0.39747  1.0000
  H   H81       1.0  0.38023  0.04679  0.43894  1.0000
  Fe  Fe12      1.0  0.32684  0.31532  0.33769  1.0000
  C   C37       1.0  0.49417  0.13343  0.44967  1.0000
  S   S24       1.0  0.03359  0.31197  0.30290  1.0000
  H   H82       1.0  0.42246  0.05974  0.44127  1.0000
  H   H83       1.0  0.50294  0.11789  0.36629  1.0000
  C   C38       1.0  0.39739  0.01571  0.37341  1.0000
  C   C39       1.0  0.34202  0.34014  0.40002  1.0000
  H   H84       1.0  0.37295  0.06590  0.26810  1.0000
  Fe  Fe13      1.0  0.31502  0.32263  0.30283  1.0000
  H   H85       1.0  0.42011  0.33739  0.48039  1.0000
  H   H86       1.0  0.32186  0.32537  0.40864  1.0000
  H   H87       1.0  0.25456  0.02921  0.34745  1.0000
  H   H88       1.0  0.38400  0.26331  0.46123  1.0000
  H   H89       1.0  0.47835  0.09389  0.39393  1.0000
  C   C40       1.0  0.40943  0.27918  0.45643  1.0000
  N   N7        1.0  0.41822  0.31227  0.45993  1.0000
  C   C41       1.0  0.18111  0.29926  0.33043  1.0000
  C   C42       1.0  0.45212  0.33255  0.45352  1.0000
  C   C43       1.0  0.50028  0.16503  0.44502  1.0000
  C   C44       1.0  0.14272  0.33077  0.32109  1.0000
  C   C45       1.0  0.12896  0.30268  0.33140  1.0000
  C   C46       1.0  0.14809  0.28709  0.33606  1.0000
  H   H90       1.0  0.01713  0.25149  0.49145  1.0000
  C   C47       1.0  0.19479  0.32715  0.31997  1.0000
  C   C48       1.0  0.29566  0.17411  0.31931  1.0000
  C   C49       1.0  0.29078  0.14907  0.30985  1.0000
  C   C50       1.0  0.29655  0.12268  0.31518  1.0000
  C   C51       1.0  0.30679  0.12073  0.33020  1.0000
  C   C52       1.0  0.31142  0.14566  0.33971  1.0000
  C   C53       1.0  0.30617  0.17230  0.33427  1.0000
  H   H91       1.0  0.28268  0.15016  0.29825  1.0000
  H   H92       1.0  0.29283  0.10376  0.30772  1.0000
  H   H93       1.0  0.31927  0.14442  0.35136  1.0000
  H   H94       1.0  0.30994  0.19123  0.34174  1.0000
  Fe  Fe14      1.0  0.06576  0.33646  0.32124  1.0000
  H   H95       1.0  0.10367  0.29316  0.33594  1.0000
  N   N8        1.0  0.18596  0.18913  0.32349  1.0000
  C   C54       1.0  0.20333  0.18229  0.30997  1.0000
  C   C55       1.0  0.15979  0.15920  0.33124  1.0000
  C   C56       1.0  0.17202  0.21087  0.31773  1.0000
  C   C57       1.0  0.20886  0.20428  0.33508  1.0000
  H   H96       1.0  0.22331  0.20449  0.30391  1.0000
  H   H97       1.0  0.18693  0.17068  0.30096  1.0000
  H   H98       1.0  0.21477  0.16648  0.31393  1.0000
  H   H99       1.0  0.14638  0.16372  0.34151  1.0000
  H   H100      1.0  0.14200  0.14709  0.32284  1.0000
  H   H101      1.0  0.16963  0.14240  0.33576  1.0000
  H   H102      1.0  0.15909  0.21688  0.32767  1.0000
  H   H103      1.0  0.15460  0.20036  0.30895  1.0000
  H   H104      1.0  0.19124  0.23386  0.31196  1.0000
  H   H105      1.0  0.22855  0.22695  0.32957  1.0000
  H   H106      1.0  0.22053  0.18900  0.33948  1.0000
  H   H107      1.0  0.19686  0.21013  0.34545  1.0000
  H   H108      1.0  0.41168  0.27761  0.44342  1.0000
  C   C58       1.0  0.41466  0.31305  0.47729  1.0000
  C   C59       1.0  0.39663  0.32437  0.45259  1.0000
  S   S25       1.0  0.02923  0.30694  0.34179  1.0000
  H   H109      1.0  0.49742  0.18234  0.47697  1.0000
  C   C60       1.0  0.19382  0.02579  0.34979  1.0000
  H   H110      1.0  0.37083  0.30992  0.45722  1.0000
  H   H111      1.0  0.43153  0.30544  0.48328  1.0000
  C   C61       1.0  0.35970  0.33167  0.26004  1.0000
  C   C62       1.0  0.43607  0.01426  0.39174  1.0000
  H   H112      1.0  0.39754  0.06991  0.45485  1.0000
  H   H113      1.0  0.35258  0.31196  0.26918  1.0000
  H   H114      1.0  0.39866  0.32436  0.43944  1.0000
  H   H115      1.0  0.46927  0.32480  0.45914  1.0000
  H   H116      1.0  0.47948  0.02154  0.24974  1.0000
  H   H117      1.0  0.49524  0.06378  0.37499  1.0000
  H   H118      1.0  0.17067  0.02141  0.34478  1.0000
  C   C63       1.0  0.35141  0.02243  0.25724  1.0000
  H   H119      1.0  0.46322  0.04741  0.25750  1.0000
  H   H120      1.0  0.03808  0.33594  0.26934  1.0000
  C   C64       1.0  0.48023  0.04576  0.24792  1.0000
  H   H121      1.0  0.22015  0.33682  0.31556  1.0000
  C   C65       1.0  0.17569  0.34284  0.31537  1.0000
  S   S26       1.0  0.30000  0.33924  0.32504  1.0000
  H   H122      1.0  0.45587  0.33240  0.44046  1.0000
  H   H123      1.0  0.43977  0.03738  0.46343  1.0000
  C   C66       1.0  0.41478  0.02738  0.46964  1.0000
  Fe  Fe15      1.0  0.01090  0.34530  0.34055  1.0000
  S   S27       1.0  0.35416  0.16504  0.49596  1.0000
  Fe  Fe16      1.0  0.37159  0.06624  0.50677  1.0000
  S   S28       1.0  0.42520  0.08190  0.50665  1.0000
  H   H124      1.0  0.46155  0.12706  0.69739  1.0000
  C   C67       1.0  0.46759  0.15022  0.70128  1.0000
  H   H125      1.0  0.38534  0.04549  0.72544  1.0000
  Fe  Fe17      1.0  0.42527  0.12090  0.52064  1.0000
  S   S29       1.0  0.45671  0.13568  0.54077  1.0000
  S   S30       1.0  0.37131  0.10327  0.52253  1.0000
  H   H126      1.0  0.41298  0.08052  0.73303  1.0000
  H   H127      1.0  0.39654  0.23658  0.56348  1.0000
  Fe  Fe18      1.0  0.40869  0.05602  0.66960  1.0000
  S   S31       1.0  0.40960  0.09973  0.65627  1.0000
  C   C68       1.0  0.47159  0.18326  0.72285  1.0000
  Fe  Fe19      1.0  0.42926  0.08498  0.63478  1.0000
  S   S32       1.0  0.40255  0.08193  0.61273  1.0000
  Fe  Fe20      1.0  0.46094  0.12371  0.66180  1.0000
  C   C69       1.0  0.40271  0.21959  0.50411  1.0000
  S   S33       1.0  0.42480  0.03936  0.64788  1.0000
  S   S34       1.0  0.45859  0.08112  0.67680  1.0000
  C   C70       1.0  0.39399  0.26497  0.51211  1.0000
  S   S35       1.0  0.40931  0.30163  0.52016  1.0000
  H   H128      1.0  0.41475  0.18185  0.57427  1.0000
  H   H129      1.0  0.29000  0.02840  0.50763  1.0000
  H   H130      1.0  0.43949  0.26149  0.51191  1.0000
  C   C71       1.0  0.45715  0.33164  0.70084  1.0000
  C   C72       1.0  0.48293  0.21019  0.71178  1.0000
  H   H131      1.0  0.32501  0.20808  0.50108  1.0000
  C   C73       1.0  0.01948  0.28991  0.50492  1.0000
  H   H132      1.0  0.44516  0.31983  0.74433  1.0000
  C   C74       1.0  0.48640  0.20703  0.69546  1.0000
  C   C75       1.0  0.46472  0.15346  0.71755  1.0000
  C   C76       1.0  0.47387  0.32777  0.71353  1.0000
  H   H133      1.0  0.40843  0.08056  0.71210  1.0000
  N   N9        1.0  0.36903  0.08241  0.72671  1.0000
  C   C77       1.0  0.41253  0.23011  0.55541  1.0000
  H   H134      1.0  0.37569  0.18229  0.57756  1.0000
  S   S36       1.0  0.48200  0.17337  0.66964  1.0000
  C   C78       1.0  0.39517  0.07188  0.72421  1.0000
  H   H135      1.0  0.39703  0.12867  0.71405  1.0000
  H   H136      1.0  0.42468  0.05311  0.56481  1.0000
  H   H137      1.0  0.42570  0.20287  0.53094  1.0000
  C   C79       1.0  0.41845  0.09813  0.59295  1.0000
  C   C80       1.0  0.45167  0.11479  0.58841  1.0000
  C   C81       1.0  0.46309  0.12656  0.57240  1.0000
  C   C82       1.0  0.44144  0.12160  0.56082  1.0000
  C   C83       1.0  0.40822  0.10532  0.56539  1.0000
  C   C84       1.0  0.39681  0.09363  0.58138  1.0000
  H   H138      1.0  0.46853  0.11844  0.59723  1.0000
  H   H139      1.0  0.48839  0.23332  0.71576  1.0000
  H   H140      1.0  0.39132  0.10160  0.55662  1.0000
  H   H141      1.0  0.37106  0.08088  0.58485  1.0000
  H   H142      1.0  0.43410  0.06182  0.54367  1.0000
  H   H143      1.0  0.48885  0.13925  0.56896  1.0000
  H   H144      1.0  0.37765  0.04779  0.53960  1.0000
  C   C85       1.0  0.01693  0.33977  0.70511  1.0000
  C   C86       1.0  0.41446  0.24980  0.50956  1.0000
  H   H145      1.0  0.49480  0.22787  0.68692  1.0000
  S   S37       1.0  0.05962  0.31515  0.49671  1.0000
  H   H146      1.0  0.36632  0.03975  0.56068  1.0000
  C   C87       1.0  0.42601  0.04237  0.55360  1.0000
  N   N10       1.0  0.39765  0.19578  0.55339  1.0000
  C   C88       1.0  0.36661  0.18763  0.54658  1.0000
  H   H147      1.0  0.43614  0.23722  0.56039  1.0000
  C   C89       1.0  0.41972  0.18839  0.54261  1.0000
  C   C90       1.0  0.39174  0.17696  0.56896  1.0000
  H   H148      1.0  0.35525  0.16222  0.54422  1.0000
  H   H149      1.0  0.37000  0.20221  0.53511  1.0000
  H   H150      1.0  0.34899  0.19199  0.55462  1.0000
  H   H151      1.0  0.48476  0.32694  0.61963  1.0000
  H   H152      1.0  0.32701  0.07930  0.71563  1.0000
  H   H153      1.0  0.34595  0.26174  0.51065  1.0000
  H   H154      1.0  0.44296  0.19307  0.54764  1.0000
  C   C91       1.0  0.35009  0.21981  0.50332  1.0000
  H   H155      1.0  0.40881  0.16293  0.54038  1.0000
  Fe  Fe21      1.0  0.38165  0.13499  0.49965  1.0000
  H   H156      1.0  0.37999  0.15097  0.56785  1.0000
  H   H157      1.0  0.35993  0.08094  0.70217  1.0000
  C   C92       1.0  0.36188  0.25016  0.50873  1.0000
  S   S38       1.0  0.27974  0.33920  0.50754  1.0000
  S   S39       1.0  0.34694  0.33723  0.53414  1.0000
  H   H158      1.0  0.44532  0.03385  0.55419  1.0000
  H   H159      1.0  0.21407  0.32869  0.50449  1.0000
  C   C93       1.0  0.37030  0.20418  0.50132  1.0000
  H   H160      1.0  0.44452  0.31305  0.62951  1.0000
  S   S40       1.0  0.43585  0.15519  0.49875  1.0000
  H   H161      1.0  0.41706  0.24501  0.54387  1.0000
  C   C94       1.0  0.35093  0.06859  0.74250  1.0000
  C   C95       1.0  0.46419  0.33344  0.62203  1.0000
  C   C96       1.0  0.37014  0.02910  0.54982  1.0000
  C   C97       1.0  0.34688  0.07154  0.71429  1.0000
  Fe  Fe22      1.0  0.47531  0.06836  0.65389  1.0000
  H   H162      1.0  0.43980  0.31093  0.69618  1.0000
  C   C98       1.0  0.47820  0.17695  0.69016  1.0000
  H   H163      1.0  0.34006  0.04209  0.74354  1.0000
  H   H164      1.0  0.46941  0.30418  0.71860  1.0000
  H   H165      1.0  0.41863  0.20810  0.50222  1.0000
  H   H166      1.0  0.02822  0.32348  0.70474  1.0000
  H   H167      1.0  0.33561  0.04514  0.71468  1.0000
  C   C99       1.0  0.38313  0.11751  0.72583  1.0000
  Fe  Fe23      1.0  0.38786  0.33765  0.51766  1.0000
  S   S41       1.0  0.48132  0.11288  0.63916  1.0000
  H   H168      1.0  0.45685  0.13277  0.72610  1.0000
  S   S42       1.0  0.36355  0.02630  0.68626  1.0000
  H   H169      1.0  0.40002  0.12670  0.73504  1.0000
  H   H170      1.0  0.36411  0.12631  0.72764  1.0000
  N   N11       1.0  0.39452  0.01629  0.55142  1.0000
  H   H171      1.0  0.19012  0.34421  0.57239  1.0000
  H   H172      1.0  0.01412  0.32303  0.52006  1.0000
  H   H173      1.0  0.40598  0.01920  0.52622  1.0000
  H   H174      1.0  0.46713  0.33865  0.65338  1.0000
  H   H175      1.0  0.17472  0.33967  0.54450  1.0000
  S   S43       1.0  0.46369  0.18524  0.74325  1.0000
  H   H176      1.0  0.40855  0.32394  0.74175  1.0000
  H   H177      1.0  0.41584  0.01554  0.69948  1.0000
  H   H178      1.0  0.48159  0.34432  0.50311  1.0000
  H   H179      1.0  0.45502  0.33623  0.61047  1.0000
  H   H180      1.0  0.33091  0.07590  0.74482  1.0000
  Fe  Fe24      1.0  0.36991  0.17807  0.92070  1.0000
  S   S44       1.0  0.42416  0.20167  0.91821  1.0000
  S   S45       1.0  0.35022  0.12847  0.93332  1.0000
  Fe  Fe25      1.0  0.36590  0.23620  0.90450  1.0000
  S   S46       1.0  0.41984  0.26380  0.90107  1.0000
  C   C100      1.0  0.44994  0.27697  0.99127  1.0000
  Fe  Fe26      1.0  0.42010  0.21879  0.89342  1.0000
  S   S47       1.0  0.45018  0.21348  0.87235  1.0000
  Fe  Fe27      1.0  0.41807  0.24400  0.92619  1.0000
  S   S48       1.0  0.44810  0.27650  0.94343  1.0000
  S   S49       1.0  0.36615  0.19214  0.89536  1.0000
  S   S50       1.0  0.36388  0.21955  0.93019  1.0000
  H   H181      1.0  0.24603  0.03755  0.97208  1.0000
  C   C101      1.0  0.38001  0.29275  0.95524  1.0000
  H   H182      1.0  0.41077  0.15456  0.88996  1.0000
  H   H183      1.0  0.19853  0.30434  0.85397  1.0000
  Fe  Fe28      1.0  0.47449  0.26570  0.78180  1.0000
  H   H184      1.0  0.06434  0.30758  0.97324  1.0000
  S   S51       1.0  0.44284  0.26824  0.80293  1.0000
  S   S52       1.0  0.24104  0.01342  0.90628  1.0000
  H   H185      1.0  0.38958  0.32061  0.77789  1.0000
  C   C102      1.0  0.28089  0.30106  0.90845  1.0000
  S   S53       1.0  0.45830  0.26338  0.75727  1.0000
  C   C103      1.0  0.44605  0.22696  0.85307  1.0000
  C   C104      1.0  0.42795  0.24443  0.85063  1.0000
  C   C105      1.0  0.42674  0.25650  0.83517  1.0000
  C   C106      1.0  0.44356  0.25120  0.82205  1.0000
  C   C107      1.0  0.46116  0.23321  0.82447  1.0000
  C   C108      1.0  0.46242  0.22117  0.83993  1.0000
  H   H186      1.0  0.41525  0.24906  0.86067  1.0000
  H   H187      1.0  0.41296  0.27029  0.83340  1.0000
  C   C109      1.0  0.36911  0.30880  0.92951  1.0000
  H   H188      1.0  0.20123  0.26753  0.85121  1.0000
  C   C110      1.0  0.43818  0.26533  0.96413  1.0000
  C   C111      1.0  0.45785  0.28471  0.97473  1.0000
  H   H189      1.0  0.04222  0.33134  0.97047  1.0000
  C   C112      1.0  0.41044  0.23817  0.97019  1.0000
  H   H190      1.0  0.34081  0.12801  0.88168  1.0000
  C   C113      1.0  0.04536  0.27448  0.94821  1.0000
  H   H191      1.0  0.39521  0.22292  0.96218  1.0000
  C   C114      1.0  0.32151  0.09726  0.92456  1.0000
  C   C115      1.0  0.30092  0.10256  0.91452  1.0000
  C   C116      1.0  0.27656  0.07668  0.90868  1.0000
  C   C117      1.0  0.27302  0.04560  0.91274  1.0000
  C   C118      1.0  0.29464  0.04054  0.92213  1.0000
  C   C119      1.0  0.31879  0.06636  0.92808  1.0000
  H   H192      1.0  0.30295  0.12639  0.91176  1.0000
  H   H193      1.0  0.25990  0.08062  0.90133  1.0000
  C   C120      1.0  0.01545  0.30625  0.94466  1.0000
  H   H194      1.0  0.33536  0.06245  0.93549  1.0000
  S   S54       1.0  0.34147  0.26399  0.89311  1.0000
  C   C121      1.0  0.11517  0.30423  0.91185  1.0000
  C   C122      1.0  0.09055  0.27567  0.90832  1.0000
  C   C123      1.0  0.05973  0.27381  0.90614  1.0000
  C   C124      1.0  0.05381  0.30080  0.90711  1.0000
  H   H195      1.0  0.30784  0.28553  0.94360  1.0000
  H   H196      1.0  0.13856  0.30521  0.91402  1.0000
  H   H197      1.0  0.09522  0.25484  0.90762  1.0000
  Fe  Fe29      1.0  0.22853  0.33123  0.92394  1.0000
  C   C125      1.0  0.31029  0.26885  0.90400  1.0000
  H   H198      1.0  0.35375  0.31725  0.92272  1.0000
  C   C126      1.0  0.28888  0.24530  0.91557  1.0000
  C   C127      1.0  0.26295  0.24941  0.92334  1.0000
  H   H199      1.0  0.29174  0.22361  0.91820  1.0000
  C   C128      1.0  0.30629  0.29670  0.90049  1.0000
  N   N12       1.0  0.38035  0.11476  0.87831  1.0000
  C   C129      1.0  0.35962  0.08042  0.88239  1.0000
  C   C130      1.0  0.36056  0.13063  0.87247  1.0000
  C   C131      1.0  0.40650  0.11936  0.86581  1.0000
  C   C132      1.0  0.39472  0.12876  0.89259  1.0000
  S   S55       1.0  0.49696  0.23169  0.77861  1.0000
  H   H200      1.0  0.37366  0.06765  0.88694  1.0000
  H   H201      1.0  0.34827  0.06897  0.87192  1.0000
  H   H202      1.0  0.37558  0.15655  0.86910  1.0000
  S   S56       1.0  0.02883  0.23723  0.90275  1.0000
  H   H203      1.0  0.38063  0.20979  0.99128  1.0000
  H   H204      1.0  0.42249  0.14515  0.86256  1.0000
  H   H205      1.0  0.39660  0.10921  0.85482  1.0000
  H   H206      1.0  0.42206  0.10784  0.86981  1.0000
  H   H207      1.0  0.37579  0.12638  0.90213  1.0000
  H   H208      1.0  0.26554  0.33408  0.87933  1.0000
  H   H209      1.0  0.27443  0.29290  0.85455  1.0000
  C   C133      1.0  0.42341  0.32021  0.75082  1.0000
  H   H210      1.0  0.49572  0.29743  0.84226  1.0000
  C   C134      1.0  0.07862  0.32951  0.91037  1.0000
  H   H211      1.0  0.02972  0.17723  0.89103  1.0000
  C   C135      1.0  0.25899  0.27735  0.91977  1.0000
  H   H212      1.0  0.40566  0.31078  0.95318  1.0000
  C   C136      1.0  0.25614  0.02432  0.96469  1.0000
  C   C137      1.0  0.10921  0.33118  0.91295  1.0000
  H   H213      1.0  0.06630  0.29082  0.93976  1.0000
  N   N13       1.0  0.35840  0.30311  0.94671  1.0000
  H   H214      1.0  0.31620  0.27267  0.96247  1.0000
  H   H215      1.0  0.39461  0.32690  0.92690  1.0000
  H   H216      1.0  0.29239  0.01666  0.92494  1.0000
  H   H217      1.0  0.05481  0.26218  0.95676  1.0000
  H   H218      1.0  0.34903  0.12040  0.86181  1.0000
  H   H219      1.0  0.32288  0.31497  0.89154  1.0000
  H   H220      1.0  0.24592  0.23095  0.93207  1.0000
  S   S57       1.0  0.20860  0.34385  0.90249  1.0000
  Fe  Fe30      1.0  0.48487  0.23272  0.75336  1.0000
  H   H221      1.0  0.19225  0.29050  0.88285  1.0000
  N   N14       1.0  0.02935  0.29199  0.95637  1.0000
  H   H222      1.0  0.23573  0.34261  0.86998  1.0000
  H   H223      1.0  0.32288  0.25558  0.94500  1.0000
  N   N15       1.0  0.43265  0.34531  0.76170  1.0000
  H   H224      1.0  0.40944  0.11711  0.89750  1.0000
  H   H225      1.0  0.37960  0.27038  0.95119  1.0000
  S   S58       1.0  0.22631  0.28221  0.92923  1.0000
  C   C138      1.0  0.35958  0.33280  0.95249  1.0000
  H   H226      1.0  0.26961  0.28284  0.87559  1.0000
  C   C139      1.0  0.21561  0.29296  0.85288  1.0000
  C   C140      1.0  0.40225  0.23073  0.98670  1.0000
  N   N16       1.0  0.23354  0.29625  0.86699  1.0000
  C   C141      1.0  0.05341  0.31747  0.96428  1.0000
  H   H227      1.0  0.29797  0.05812  0.98452  1.0000
  H   H228      1.0  0.37291  0.28825  0.96828  1.0000
  H   H229      1.0  0.01437  0.16988  0.91990  1.0000
  H   H230      1.0  0.47930  0.30580  0.97015  1.0000
  H   H231      1.0  0.27794  0.32254  0.90561  1.0000
  H   H232      1.0  0.47396  0.22872  0.81443  1.0000
  C   C142      1.0  0.30614  0.04386  0.97682  1.0000
  H   H233      1.0  0.40942  0.29618  0.75736  1.0000
  C   C143      1.0  0.25196  0.33038  0.86871  1.0000
  H   H234      1.0  0.34341  0.34120  0.94631  1.0000
  H   H235      1.0  0.22298  0.28369  0.89228  1.0000
  H   H236      1.0  0.03022  0.29964  0.90523  1.0000
  C   C144      1.0  0.32487  0.27812  0.94959  1.0000
  H   H237      1.0  0.47642  0.34132  0.76648  1.0000
  H   H238      1.0  0.24318  0.25553  0.86347  1.0000
  H   H239      1.0  0.26992  0.34308  0.85824  1.0000
  H   H240      1.0  0.23235  0.30461  0.84188  1.0000
  H   H241      1.0  0.03285  0.13263  0.90754  1.0000
  H   H242      1.0  0.35165  0.32935  0.96544  1.0000
  H   H243      1.0  0.36778  0.28672  0.92464  1.0000
  H   H244      1.0  0.19698  0.25454  0.88070  1.0000
  C   C145      1.0  0.21043  0.28055  0.88130  1.0000
  H   H245      1.0  0.33962  0.07632  0.89178  1.0000
  H   H246      1.0  0.26852  0.03998  0.95354  1.0000
  H   H247      1.0  0.47644  0.20763  0.84172  1.0000
  H   H248      1.0  0.32369  0.03770  0.98307  1.0000
  H   H249      1.0  0.02848  0.25627  0.94129  1.0000
  H   H250      1.0  0.07358  0.33450  0.95555  1.0000
  C   C146      1.0  0.25615  0.28122  0.86503  1.0000
  H   H251      1.0  0.03456  0.32427  0.93592  1.0000
  H   H252      1.0  0.44157  0.31633  0.77986  1.0000
  C   C147      1.0  0.45380  0.34013  0.77288  1.0000
  H   H253      1.0  0.36701  0.07632  0.75214  1.0000
  H   H254      1.0  0.01254  0.25814  0.97723  1.0000
  H   H255      1.0  0.31952  0.05967  0.96581  1.0000
  N   N17       1.0  0.27853  0.01501  0.97317  1.0000
  C   C148      1.0  0.40321  0.34402  0.77068  1.0000
  H   H256      1.0  0.00755  0.10472  0.89512  1.0000
  C   C149      1.0  0.00727  0.11761  0.90567  1.0000
  Fe  Fe31      1.0  0.38929  0.40816  0.16389  1.0000
  S   S59       1.0  0.43822  0.43969  0.15133  1.0000
  S   S60       1.0  0.34127  0.39918  0.15465  1.0000
  Fe  Fe32      1.0  0.41697  0.38841  0.19221  1.0000
  S   S61       1.0  0.46864  0.41786  0.18168  1.0000
  H   H257      1.0  0.32909  0.37832  0.19131  1.0000
  Fe  Fe33      1.0  0.45173  0.45553  0.17518  1.0000
  H   H258      1.0  0.44267  0.61992  0.03650  1.0000
  Fe  Fe34      1.0  0.45142  0.39983  0.15853  1.0000
  H   H259      1.0  0.26326  0.42916  0.14120  1.0000
  S   S62       1.0  0.40121  0.42752  0.18736  1.0000
  H   H260      1.0  0.03321  0.35989  0.12828  1.0000
  Fe  Fe35      1.0  0.26712  0.43130  0.04390  1.0000
  S   S63       1.0  0.26496  0.47833  0.04540  1.0000
  S   S64       1.0  0.23687  0.39754  0.02729  1.0000
  Fe  Fe36      1.0  0.31546  0.44393  0.06849  1.0000
  S   S65       1.0  0.31784  0.49235  0.07155  1.0000
  S   S66       1.0  0.34943  0.42692  0.07988  1.0000
  Fe  Fe37      1.0  0.26363  0.46805  0.07172  1.0000
  S   S67       1.0  0.23238  0.48242  0.08829  1.0000
  Fe  Fe38      1.0  0.31888  0.49818  0.04506  1.0000
  S   S68       1.0  0.35404  0.53994  0.02823  1.0000
  S   S69       1.0  0.26118  0.41903  0.07045  1.0000
  S   S70       1.0  0.32110  0.45168  0.04186  1.0000
  H   H261      1.0  0.29926  0.43569  0.00895  1.0000
  S   S71       1.0  0.05906  0.64598  0.16068  1.0000
  H   H262      1.0  0.32980  0.50980  0.13047  1.0000
  H   H263      1.0  0.29793  0.51618  0.01284  1.0000
  H   H264      1.0  0.02786  0.40337  0.22413  1.0000
  Fe  Fe39      1.0  0.04799  0.63246  0.18697  1.0000
  S   S72       1.0  0.04176  0.58638  0.20038  1.0000
  Fe  Fe40      1.0  0.09087  0.39768  0.15425  1.0000
  S   S73       1.0  0.06069  0.41978  0.14359  1.0000
  S   S74       1.0  0.12545  0.38302  0.14018  1.0000
  Fe  Fe41      1.0  0.05699  0.38904  0.18804  1.0000
  H   H265      1.0  0.22427  0.47758  0.01483  1.0000
  C   C150      1.0  0.04398  0.52998  0.19466  1.0000
  Fe  Fe42      1.0  0.06854  0.44680  0.16511  1.0000
  S   S75       1.0  0.08454  0.49965  0.15914  1.0000
  S   S76       1.0  0.10225  0.42744  0.17463  1.0000
  C   C151      1.0  0.05582  0.56263  0.18979  1.0000
  H   H266      1.0  0.01099  0.61535  0.22068  1.0000
  C   C152      1.0  0.05313  0.51028  0.18559  1.0000
  C   C153      1.0  0.07456  0.52336  0.17178  1.0000
  C   C154      1.0  0.08713  0.55615  0.16724  1.0000
  C   C155      1.0  0.07761  0.57570  0.17613  1.0000
  H   H267      1.0  0.41590  0.35928  0.13371  1.0000
  S   S77       1.0  0.05888  0.36427  0.21186  1.0000
  H   H268      1.0  0.10394  0.56638  0.15663  1.0000
  H   H269      1.0  0.08725  0.60090  0.17243  1.0000
  C   C156      1.0  0.20096  0.45375  0.10167  1.0000
  C   C157      1.0  0.19730  0.42236  0.10402  1.0000
  C   C158      1.0  0.17383  0.40080  0.11579  1.0000
  C   C159      1.0  0.15379  0.41042  0.12520  1.0000
  C   C160      1.0  0.15709  0.44165  0.12269  1.0000
  C   C161      1.0  0.18067  0.46326  0.11097  1.0000
  H   H270      1.0  0.21279  0.41478  0.09695  1.0000
  H   H271      1.0  0.17135  0.37664  0.11768  1.0000
  H   H272      1.0  0.14174  0.44929  0.12989  1.0000
  H   H273      1.0  0.18343  0.48754  0.10924  1.0000
  C   C162      1.0  0.34313  0.40583  0.13380  1.0000
  C   C163      1.0  0.37198  0.41368  0.12418  1.0000
  C   C164      1.0  0.37356  0.42023  0.10770  1.0000
  C   C165      1.0  0.34631  0.41905  0.10066  1.0000
  C   C166      1.0  0.31713  0.41042  0.11018  1.0000
  C   C167      1.0  0.31551  0.40359  0.12671  1.0000
  H   H274      1.0  0.39311  0.41452  0.12938  1.0000
  H   H275      1.0  0.39612  0.42652  0.10040  1.0000
  H   H276      1.0  0.29574  0.40841  0.10476  1.0000
  H   H277      1.0  0.29282  0.39636  0.13401  1.0000
  C   C168      1.0  0.38760  0.38770  0.05123  1.0000
  C   C169      1.0  0.43083  0.35534  0.12444  1.0000
  C   C170      1.0  0.48336  0.36199  0.11288  1.0000
  C   C171      1.0  0.33271  0.62654  0.01855  1.0000
  C   C172      1.0  0.35500  0.62160  0.00828  1.0000
  C   C173      1.0  0.36053  0.59431  0.01106  1.0000
  C   C174      1.0  0.34390  0.57193  0.02414  1.0000
  C   C175      1.0  0.32055  0.57607  0.03399  1.0000
  C   C176      1.0  0.31497  0.60336  0.03118  1.0000
  H   H278      1.0  0.21691  0.50635  0.00256  1.0000
  H   H279      1.0  0.37809  0.59072  0.00322  1.0000
  H   H280      1.0  0.30750  0.55881  0.04407  1.0000
  H   H281      1.0  0.29749  0.60696  0.03909  1.0000
  H   H282      1.0  0.36815  0.63895  0.99828  1.0000
  H   H283      1.0  0.46370  0.64222  0.00866  1.0000
  C   C177      1.0  0.37843  0.38254  0.23611  1.0000
  C   C178      1.0  0.46425  0.36711  0.12502  1.0000
  C   C179      1.0  0.02991  0.38850  0.23395  1.0000
  C   C180      1.0  0.38451  0.35622  0.23317  1.0000
  H   H284      1.0  0.26647  0.44486  0.11231  1.0000
  S   S78       1.0  0.02383  0.41060  0.17996  1.0000
  C   C181      1.0  0.00960  0.57620  0.24557  1.0000
  H   H285      1.0  0.06354  0.61823  0.22795  1.0000
  H   H286      1.0  0.38564  0.40230  0.22700  1.0000
  H   H287      1.0  0.28508  0.48609  0.10494  1.0000
  H   H288      1.0  0.37618  0.38072  0.08305  1.0000
  C   C182      1.0  0.04354  0.36725  0.23108  1.0000
  N   N18       1.0  0.37097  0.35754  0.06168  1.0000
  C   C183      1.0  0.03196  0.54739  0.14101  1.0000
  S   S79       1.0  0.32715  0.66171  0.01621  1.0000
  H   H289      1.0  0.04732  0.37442  0.10773  1.0000
  H   H290      1.0  0.46194  0.67835  0.00095  1.0000
  C   C184      1.0  0.32673  0.36451  0.20294  1.0000
  C   C185      1.0  0.44930  0.65639  0.00940  1.0000
  C   C186      1.0  0.30512  0.50906  0.13211  1.0000
  H   H291      1.0  0.42557  0.63986  0.04909  1.0000
  C   C187      1.0  0.05805  0.62503  0.23974  1.0000
  C   C188      1.0  0.28163  0.45362  0.14243  1.0000
  C   C189      1.0  0.38183  0.36225  0.07769  1.0000
  H   H292      1.0  0.38223  0.40697  0.05592  1.0000
  H   H293      1.0  0.31574  0.37400  0.21215  1.0000
  H   H294      1.0  0.01409  0.56808  0.23396  1.0000
  H   H295      1.0  0.37983  0.38510  0.03908  1.0000
  H   H296      1.0  0.32889  0.36577  0.06774  1.0000
  C   C190      1.0  0.23601  0.50181  0.00821  1.0000
  H   H297      1.0  0.22810  0.45325  0.13149  1.0000
  S   S80       1.0  0.48269  0.38742  0.14098  1.0000
  C   C191      1.0  0.05098  0.36134  0.11830  1.0000
  H   H298      1.0  0.24526  0.49397  0.12313  1.0000
  H   H299      1.0  0.48683  0.44948  0.12504  1.0000
  H   H300      1.0  0.03638  0.52822  0.14752  1.0000
  N   N19       1.0  0.44522  0.66424  0.02576  1.0000
  H   H301      1.0  0.20313  0.37214  0.00059  1.0000
  H   H302      1.0  0.27622  0.47465  0.01144  1.0000
  Fe  Fe43      1.0  0.01624  0.65794  0.16289  1.0000
  S   S81       1.0  0.40193  0.35297  0.21441  1.0000
  H   H303      1.0  0.30586  0.45318  0.14136  1.0000
  H   H304      1.0  0.40841  0.36983  0.07736  1.0000
  S   S82       1.0  0.47815  0.50841  0.17671  1.0000
  S   S83       1.0  0.40155  0.36701  0.16944  1.0000
  C   C192      1.0  0.33562  0.34753  0.06276  1.0000
  H   H305      1.0  0.04336  0.48499  0.18915  1.0000
  Fe  Fe44      1.0  0.01862  0.38209  0.15896  1.0000
  C   C193      1.0  0.42880  0.63466  0.03665  1.0000
  C   C194      1.0  0.24992  0.40369  0.00677  1.0000
  H   H306      1.0  0.24287  0.48440  0.14418  1.0000
  H   H307      1.0  0.30185  0.51636  0.14408  1.0000
  H   H308      1.0  0.35158  0.36955  0.20586  1.0000
  H   H309      1.0  0.27708  0.45910  0.15466  1.0000
  N   N20       1.0  0.27999  0.47708  0.13033  1.0000
  H   H310      1.0  0.30434  0.52728  0.12316  1.0000
  H   H311      1.0  0.42555  0.64241  0.00508  1.0000
  C   C195      1.0  0.28551  0.46846  0.11432  1.0000
  C   C196      1.0  0.24770  0.47723  0.13241  1.0000
  H   H312      1.0  0.30942  0.46757  0.11238  1.0000
  H   H313      1.0  0.03438  0.54457  0.12815  1.0000
  C   C197      1.0  0.28166  0.42443  0.00085  1.0000
  H   H314      1.0  0.41433  0.39595  0.05018  1.0000
  H   H315      1.0  0.40048  0.66819  0.02321  1.0000
  H   H316      1.0  0.40430  0.61968  0.03332  1.0000
  H   H317      1.0  0.07544  0.37610  0.12167  1.0000
  H   H318      1.0  0.05171  0.57054  0.14305  1.0000
  C   C198      1.0  0.28702  0.49835  0.00442  1.0000
  H   H319      1.0  0.02712  0.51974  0.20524  1.0000
  S   S84       1.0  0.04816  0.35783  0.16815  1.0000
  H   H320      1.0  0.01640  0.64895  0.23126  1.0000
  H   H321      1.0  0.24525  0.51911  0.01713  1.0000
  C   C199      1.0  0.04600  0.34806  0.24395  1.0000
  H   H322      1.0  0.06893  0.65140  0.23884  1.0000
  C   C200      1.0  0.00694  0.62258  0.23255  1.0000
  H   H323      1.0  0.01310  0.59504  0.13876  1.0000
  H   H324      1.0  0.01691  0.57385  0.16566  1.0000
  H   H325      1.0  0.50236  0.49749  0.14042  1.0000
  H   H326      1.0  0.49265  0.67029  0.03104  1.0000
  N   N21       1.0  0.02281  0.61127  0.24451  1.0000
  N   N22       1.0  0.26240  0.50449  0.99630  1.0000
  S   S85       1.0  0.11998  0.35185  0.31511  1.0000
  H   H327      1.0  0.45451  0.42589  0.31741  1.0000
  C   C201      1.0  0.01789  0.56630  0.38208  1.0000
  H   H328      1.0  0.13990  0.40533  0.24753  1.0000
  C   C202      1.0  0.45805  0.49880  0.45114  1.0000
  H   H329      1.0  0.41797  0.62665  0.44733  1.0000
  H   H330      1.0  0.32385  0.43352  0.43865  1.0000
  S   S86       1.0  0.43014  0.44700  0.48313  1.0000
  C   C203      1.0  0.33104  0.41775  0.44628  1.0000
  S   S87       1.0  0.09975  0.46356  0.46743  1.0000
  H   H331      1.0  0.27005  0.58946  0.38141  1.0000
  Fe  Fe45      1.0  0.41456  0.46794  0.46397  1.0000
  S   S88       1.0  0.41632  0.46112  0.43441  1.0000
  S   S89       1.0  0.37400  0.48435  0.47078  1.0000
  Fe  Fe46      1.0  0.40882  0.41051  0.43683  1.0000
  H   H332      1.0  0.34398  0.40777  0.43839  1.0000
  S   S90       1.0  0.39859  0.40832  0.46246  1.0000
  Fe  Fe47      1.0  0.33024  0.64119  0.47059  1.0000
  S   S91       1.0  0.29638  0.62729  0.45162  1.0000
  S   S92       1.0  0.35841  0.61336  0.47981  1.0000
  Fe  Fe48      1.0  0.26846  0.65082  0.46452  1.0000
  S   S93       1.0  0.21343  0.62771  0.47323  1.0000
  Fe  Fe49      1.0  0.02286  0.53507  0.44762  1.0000
  S   S94       1.0  0.03180  0.55348  0.42194  1.0000
  S   S95       1.0  0.06020  0.55674  0.46568  1.0000
  H   H333      1.0  0.42625  0.65370  0.46231  1.0000
  H   H334      1.0  0.08748  0.36771  0.28537  1.0000
  H   H335      1.0  0.27251  0.38466  0.43702  1.0000
  S   S96       1.0  0.48390  0.49762  0.47551  1.0000
  H   H336      1.0  0.44116  0.43063  0.28951  1.0000
  Fe  Fe50      1.0  0.19004  0.62609  0.41339  1.0000
  S   S97       1.0  0.19869  0.63778  0.38680  1.0000
  S   S98       1.0  0.20198  0.58535  0.42287  1.0000
  Fe  Fe51      1.0  0.15376  0.64688  0.38930  1.0000
  S   S99       1.0  0.11372  0.63361  0.37206  1.0000
  S   S100      1.0  0.14390  0.63317  0.41560  1.0000
  C   C204      1.0  0.17117  0.61021  0.46995  1.0000
  C   C205      1.0  0.14791  0.59914  0.48326  1.0000
  C   C206      1.0  0.11450  0.58407  0.48162  1.0000
  C   C207      1.0  0.10315  0.57869  0.46665  1.0000
  C   C208      1.0  0.12613  0.59079  0.45329  1.0000
  C   C209      1.0  0.15988  0.60667  0.45488  1.0000
  C   C210      1.0  0.50355  0.37592  0.48175  1.0000
  H   H337      1.0  0.11777  0.58721  0.44173  1.0000
  H   H338      1.0  0.17720  0.61567  0.44447  1.0000
  C   C211      1.0  0.37255  0.52230  0.47074  1.0000
  C   C212      1.0  0.02204  0.37180  0.26247  1.0000
  H   H339      1.0  0.04418  0.42312  0.35592  1.0000
  C   C213      1.0  0.36417  0.57905  0.47482  1.0000
  C   C214      1.0  0.34028  0.55335  0.46872  1.0000
  C   C215      1.0  0.34412  0.52500  0.46708  1.0000
  H   H340      1.0  0.26047  0.65558  0.39947  1.0000
  H   H341      1.0  0.01037  0.60792  0.34954  1.0000
  H   H342      1.0  0.32473  0.50479  0.46313  1.0000
  C   C216      1.0  0.05546  0.61648  0.35910  1.0000
  C   C217      1.0  0.07104  0.60888  0.37134  1.0000
  C   C218      1.0  0.05211  0.58275  0.38248  1.0000
  H   H343      1.0  0.06937  0.63612  0.35020  1.0000
  H   H344      1.0  0.06392  0.57545  0.39144  1.0000
  C   C219      1.0  0.12889  0.49790  0.45561  1.0000
  C   C220      1.0  0.11811  0.51504  0.44510  1.0000
  C   C221      1.0  0.14024  0.54124  0.43480  1.0000
  C   C222      1.0  0.17351  0.55158  0.43534  1.0000
  C   C223      1.0  0.18440  0.53419  0.44572  1.0000
  C   C224      1.0  0.16220  0.50741  0.45579  1.0000
  H   H345      1.0  0.09247  0.50829  0.44494  1.0000
  H   H346      1.0  0.13153  0.55377  0.42654  1.0000
  H   H347      1.0  0.21011  0.54162  0.44599  1.0000
  H   H348      1.0  0.17077  0.49399  0.46358  1.0000
  S   S101      1.0  0.47328  0.39118  0.48328  1.0000
  H   H349      1.0  0.03229  0.61858  0.40083  1.0000
  Fe  Fe52      1.0  0.47359  0.47497  0.43687  1.0000
  C   C225      1.0  0.01713  0.45106  0.38755  1.0000
  H   H350      1.0  0.41663  0.40168  0.39749  1.0000
  H   H351      1.0  0.44101  0.50891  0.45408  1.0000
  C   C226      1.0  0.03553  0.35046  0.25957  1.0000
  H   H352      1.0  0.02274  0.62528  0.45044  1.0000
  H   H353      1.0  0.03697  0.48216  0.48180  1.0000
  H   H354      1.0  0.41921  0.54721  0.47888  1.0000
  C   C227      1.0  0.35353  0.35793  0.26296  1.0000
  C   C228      1.0  0.41712  0.42844  0.29452  1.0000
  H   H355      1.0  0.26439  0.38856  0.47314  1.0000
  H   H356      1.0  0.14092  0.36848  0.27912  1.0000
  S   S102      1.0  0.04979  0.37633  0.32131  1.0000
  H   H357      1.0  0.41143  0.59603  0.48311  1.0000
  C   C229      1.0  0.02163  0.60029  0.35870  1.0000
  H   H358      1.0  0.41437  0.39183  0.36910  1.0000
  N   N23       1.0  0.40658  0.40905  0.31009  1.0000
  H   H359      1.0  0.30168  0.42339  0.47336  1.0000
  H   H360      1.0  0.10066  0.40425  0.25251  1.0000
  H   H361      1.0  0.00863  0.40721  0.25171  1.0000
  H   H362      1.0  0.10765  0.36965  0.25726  1.0000
  C   C230      1.0  0.45454  0.46285  0.45834  1.0000
  H   H363      1.0  0.39964  0.41745  0.28574  1.0000
  H   H364      1.0  0.18663  0.36458  0.30743  1.0000
  C   C231      1.0  0.42055  0.65073  0.44982  1.0000
  C   C232      1.0  0.36944  0.36430  0.40512  1.0000
  S   S103      1.0  0.12897  0.39801  0.48333  1.0000
  H   H365      1.0  0.32613  0.62938  0.39995  1.0000
  N   N24       1.0  0.12812  0.40678  0.27238  1.0000
  H   H366      1.0  0.24136  0.60280  0.38981  1.0000
  S   S104      1.0  0.02836  0.48671  0.39684  1.0000
  H   H367      1.0  0.43229  0.44818  0.32332  1.0000
  H   H368      1.0  0.37523  0.43045  0.31784  1.0000
  H   H369      1.0  0.29286  0.63818  0.36191  1.0000
  N   N25       1.0  0.29085  0.63772  0.38733  1.0000
  C   C233      1.0  0.26625  0.60439  0.39029  1.0000
  H   H370      1.0  0.26354  0.51228  0.47968  1.0000
  C   C234      1.0  0.28486  0.65620  0.39960  1.0000
  C   C235      1.0  0.28885  0.65165  0.37151  1.0000
  C   C236      1.0  0.28550  0.40696  0.46547  1.0000
  H   H371      1.0  0.02569  0.64748  0.25965  1.0000
  C   C237      1.0  0.02226  0.67557  0.37718  1.0000
  H   H372      1.0  0.05751  0.47233  0.36936  1.0000
  H   H373      1.0  0.32942  0.38850  0.47534  1.0000
  H   H374      1.0  0.09736  0.57607  0.49214  1.0000
  H   H375      1.0  0.26484  0.65202  0.37069  1.0000
  C   C238      1.0  0.14284  0.44190  0.27113  1.0000
  S   S105      1.0  0.00878  0.37565  0.28196  1.0000
  H   H376      1.0  0.26667  0.59358  0.40233  1.0000
  H   H377      1.0  0.42814  0.37777  0.30356  1.0000
  H   H378      1.0  0.27642  0.42107  0.45781  1.0000
  N   N26       1.0  0.08030  0.43698  0.41789  1.0000
  C   C239      1.0  0.06655  0.41130  0.40752  1.0000
  C   C240      1.0  0.09844  0.46767  0.40801  1.0000
  C   C241      1.0  0.10241  0.43023  0.42784  1.0000
  C   C242      1.0  0.05383  0.43873  0.42819  1.0000
  H   H379      1.0  0.04934  0.41536  0.40005  1.0000
  H   H380      1.0  0.05305  0.38773  0.41457  1.0000
  H   H381      1.0  0.08573  0.40968  0.39933  1.0000
  H   H382      1.0  0.11905  0.46753  0.40032  1.0000
  H   H383      1.0  0.08270  0.47326  0.40011  1.0000
  H   H384      1.0  0.10837  0.48772  0.41544  1.0000
  H   H385      1.0  0.11406  0.44971  0.43538  1.0000
  H   H386      1.0  0.12211  0.42771  0.42048  1.0000
  H   H387      1.0  0.08932  0.40796  0.43598  1.0000
  H   H388      1.0  0.03930  0.41586  0.43565  1.0000
  H   H389      1.0  0.03708  0.44454  0.42109  1.0000
  H   H390      1.0  0.06337  0.45741  0.43640  1.0000
  Fe  Fe53      1.0  0.45662  0.42561  0.46961  1.0000
  C   C243      1.0  0.32348  0.63883  0.38800  1.0000
  H   H391      1.0  0.32859  0.36346  0.45994  1.0000
  H   H392      1.0  0.06215  0.66325  0.37995  1.0000
  H   H393      1.0  0.32877  0.62482  0.37905  1.0000
  H   H394      1.0  0.10547  0.40154  0.29606  1.0000
  H   H395      1.0  0.15583  0.60218  0.49499  1.0000
  H   H396      1.0  0.08071  0.40247  0.28063  1.0000
  C   C244      1.0  0.48771  0.52291  0.44312  1.0000
  C   C245      1.0  0.39725  0.54872  0.47596  1.0000
  H   H397      1.0  0.16484  0.45232  0.26241  1.0000
  H   H398      1.0  0.29338  0.35354  0.47373  1.0000
  N   N27       1.0  0.30292  0.39240  0.45596  1.0000
  C   C246      1.0  0.15165  0.39499  0.27763  1.0000
  H   H399      1.0  0.31832  0.55482  0.46583  1.0000
  H   H400      1.0  0.12556  0.45142  0.26722  1.0000
  C   C247      1.0  0.03738  0.65786  0.38410  1.0000
  H   H401      1.0  0.47514  0.65062  0.43611  1.0000
  H   H402      1.0  0.41169  0.67244  0.42154  1.0000
  C   C248      1.0  0.09915  0.39414  0.28408  1.0000
  H   H403      1.0  0.35614  0.39556  0.30788  1.0000
  C   C249      1.0  0.11873  0.39607  0.25674  1.0000
  H   H404      1.0  0.41885  0.45282  0.29544  1.0000
  C   C250      1.0  0.31409  0.37366  0.46669  1.0000
  N   N28       1.0  0.44547  0.67604  0.43851  1.0000
  H   H405      1.0  0.39636  0.65079  0.44922  1.0000
  H   H406      1.0  0.11199  0.65419  0.44436  1.0000
  H   H407      1.0  0.17373  0.40359  0.26904  1.0000
  C   C251      1.0  0.28118  0.37128  0.44539  1.0000
  H   H408      1.0  0.07628  0.63147  0.45777  1.0000
  C   C252      1.0  0.39277  0.57653  0.47829  1.0000
  C   C253      1.0  0.03350  0.63316  0.43790  1.0000
  H   H409      1.0  0.29387  0.35993  0.43814  1.0000
  C   C254      1.0  0.03511  0.46863  0.49346  1.0000
  S   S106      1.0  0.37050  0.36951  0.42575  1.0000
  H   H410      1.0  0.48749  0.54459  0.43781  1.0000
  N   N29       1.0  0.24246  0.54195  0.48904  1.0000
  H   H411      1.0  0.22853  0.57056  0.47286  1.0000
  H   H412      1.0  0.42237  0.40954  0.33335  1.0000
  Fe  Fe54      1.0  0.10988  0.43448  0.48725  1.0000
  C   C255      1.0  0.40444  0.37695  0.30818  1.0000
  H   H413      1.0  0.02951  0.61148  0.43195  1.0000
  C   C256      1.0  0.49197  0.46454  0.45571  1.0000
  H   H414      1.0  0.25960  0.35189  0.45232  1.0000
  H   H415      1.0  0.28497  0.58363  0.47964  1.0000
  C   C257      1.0  0.21979  0.55545  0.48446  1.0000
  H   H416      1.0  0.04424  0.45045  0.49107  1.0000
  C   C258      1.0  0.36304  0.38335  0.25093  1.0000
  C   C259      1.0  0.47678  0.67409  0.43919  1.0000
  C   C260      1.0  0.02054  0.63248  0.39601  1.0000
  H   H417      1.0  0.08271  0.61653  0.43962  1.0000
  C   C261      1.0  0.08558  0.63861  0.44500  1.0000
  C   C262      1.0  0.08154  0.66367  0.41994  1.0000
  Fe  Fe55      1.0  0.32771  0.67675  0.44004  1.0000
  S   S107      1.0  0.45920  0.41779  0.44017  1.0000
  S   S108      1.0  0.30164  0.66315  0.48420  1.0000
  H   H418      1.0  0.38676  0.36489  0.29972  1.0000
  S   S109      1.0  0.33422  0.36028  0.28136  1.0000
  H   H419      1.0  0.39659  0.36164  0.31971  1.0000
  H   H420      1.0  0.07077  0.61683  0.24843  1.0000
  C   C263      1.0  0.37452  0.40669  0.31617  1.0000
  H   H421      1.0  0.35844  0.40381  0.25309  1.0000
  H   H422      1.0  0.34884  0.43289  0.45389  1.0000
  H   H423      1.0  0.25612  0.53741  0.46493  1.0000
  C   C264      1.0  0.02910  0.42292  0.36635  1.0000
  C   C265      1.0  0.24653  0.52278  0.47660  1.0000
  C   C266      1.0  0.43566  0.67183  0.42229  1.0000
  C   C267      1.0  0.03657  0.45078  0.37401  1.0000
  N   N30       1.0  0.06827  0.65480  0.43682  1.0000
  H   H424      1.0  0.43352  0.64863  0.41856  1.0000
  H   H425      1.0  0.48482  0.67728  0.45129  1.0000
  H   H426      1.0  0.01958  0.64472  0.43201  1.0000
  H   H427      1.0  0.15930  0.40277  0.28940  1.0000
  H   H428      1.0  0.15002  0.45070  0.28278  1.0000
  C   C268      1.0  0.43006  0.42392  0.32151  1.0000
  C   C269      1.0  0.39533  0.38308  0.39379  1.0000
  C   C270      1.0  0.39396  0.37742  0.37766  1.0000
  H   H429      1.0  0.07936  0.64245  0.41389  1.0000
  H   H430      1.0  0.36566  0.39197  0.32785  1.0000
  Fe  Fe56      1.0  0.01573  0.34977  0.30404  1.0000
  H   H431      1.0  0.28646  0.64672  0.41173  1.0000
  H   H432      1.0  0.02098  0.56678  0.25449  1.0000
  S   S110      1.0  0.37036  0.35184  0.49551  1.0000
  S   S111      1.0  0.22194  0.67635  0.41846  1.0000
  H   H433      1.0  0.40273  0.34930  0.45505  1.0000
  H   H434      1.0  0.06275  0.67790  0.45718  1.0000
  H   H435      1.0  0.09086  0.51828  0.48601  1.0000
  C   C271      1.0  0.36660  0.35322  0.37256  1.0000
  H   H436      1.0  0.22310  0.50265  0.47505  1.0000
  H   H437      1.0  0.30725  0.67682  0.36900  1.0000
  S   S112      1.0  0.36686  0.34678  0.35206  1.0000
  C   C272      1.0  0.01911  0.39066  0.24959  1.0000
  H   H438      1.0  0.19538  0.53653  0.48327  1.0000
  H   H439      1.0  0.50054  0.44901  0.46212  1.0000
  H   H440      1.0  0.06878  0.67562  0.41335  1.0000
  H   H441      1.0  0.02890  0.61376  0.26939  1.0000
  H   H442      1.0  0.21669  0.57080  0.49333  1.0000
  H   H443      1.0  0.45920  0.35770  0.45586  1.0000
  C   C273      1.0  0.27411  0.56803  0.49092  1.0000
  H   H444      1.0  0.34246  0.66378  0.38570  1.0000
  C   C274      1.0  0.01664  0.62117  0.26012  1.0000
  C   C275      1.0  0.50111  0.35231  0.49358  1.0000
  H   H445      1.0  0.29181  0.55883  0.49454  1.0000
  H   H446      1.0  0.43233  0.50666  0.49606  1.0000
  Fe  Fe57      1.0  0.37992  0.38834  0.53626  1.0000
  C   C276      1.0  0.15340  0.59434  0.69283  1.0000
  S   S113      1.0  0.37684  0.41127  0.55887  1.0000
  C   C277      1.0  0.22803  0.35396  0.50484  1.0000
  C   C278      1.0  0.44613  0.37046  0.63293  1.0000
  H   H447      1.0  0.45186  0.56544  0.71570  1.0000
  H   H448      1.0  0.44191  0.41419  0.56000  1.0000
  S   S114      1.0  0.36264  0.40650  0.51539  1.0000
  S   S115      1.0  0.42209  0.38779  0.52136  1.0000
  Fe  Fe58      1.0  0.15767  0.41590  0.50386  1.0000
  S   S116      1.0  0.14117  0.45471  0.50647  1.0000
  Fe  Fe59      1.0  0.08887  0.36605  0.50210  1.0000
  H   H449      1.0  0.00904  0.45590  0.49798  1.0000
  H   H450      1.0  0.41414  0.48323  0.54645  1.0000
  H   H451      1.0  0.37092  0.42801  0.59037  1.0000
  Fe  Fe60      1.0  0.10136  0.41880  0.52375  1.0000
  S   S117      1.0  0.08776  0.43781  0.54573  1.0000
  S   S118      1.0  0.11966  0.38103  0.52242  1.0000
  H   H452      1.0  0.44584  0.50475  0.70150  1.0000
  H   H453      1.0  0.13952  0.58616  0.68252  1.0000
  C   C279      1.0  0.09623  0.43185  0.71486  1.0000
  S   S119      1.0  0.41886  0.42516  0.65327  1.0000
  S   S120      1.0  0.47068  0.50088  0.64884  1.0000
  Fe  Fe61      1.0  0.46436  0.45630  0.63758  1.0000
  H   H454      1.0  0.08416  0.37199  0.71004  1.0000
  Fe  Fe62      1.0  0.42803  0.46841  0.66609  1.0000
  S   S121      1.0  0.39183  0.48656  0.67510  1.0000
  H   H455      1.0  0.05503  0.53051  0.51594  1.0000
  H   H456      1.0  0.30056  0.48628  0.68503  1.0000
  C   C280      1.0  0.01423  0.38824  0.69452  1.0000
  Fe  Fe63      1.0  0.40233  0.40191  0.50008  1.0000
  Fe  Fe64      1.0  0.07751  0.44006  0.66656  1.0000
  S   S122      1.0  0.10373  0.41004  0.66109  1.0000
  H   H457      1.0  0.39170  0.50154  0.53649  1.0000
  Fe  Fe65      1.0  0.13351  0.50082  0.65156  1.0000
  S   S123      1.0  0.16452  0.47550  0.64525  1.0000
  S   S124      1.0  0.15563  0.55439  0.64631  1.0000
  Fe  Fe66      1.0  0.11938  0.43883  0.63705  1.0000
  S   S125      1.0  0.12410  0.41410  0.61525  1.0000
  Fe  Fe67      1.0  0.14645  0.44912  0.66956  1.0000
  S   S126      1.0  0.17664  0.43521  0.68597  1.0000
  S   S127      1.0  0.08938  0.46597  0.64185  1.0000
  S   S128      1.0  0.11928  0.47744  0.67656  1.0000
  C   C281      1.0  0.09641  0.60810  0.66180  1.0000
  C   C282      1.0  0.08255  0.57473  0.66402  1.0000
  C   C283      1.0  0.10012  0.55788  0.65887  1.0000
  C   C284      1.0  0.13157  0.57438  0.65132  1.0000
  C   C285      1.0  0.14513  0.60771  0.64876  1.0000
  C   C286      1.0  0.12773  0.62456  0.65411  1.0000
  H   H458      1.0  0.05824  0.56184  0.66988  1.0000
  H   H459      1.0  0.08944  0.53217  0.66085  1.0000
  H   H460      1.0  0.16932  0.62058  0.64278  1.0000
  C   C287      1.0  0.20003  0.41546  0.55414  1.0000
  C   C288      1.0  0.21431  0.49130  0.72818  1.0000
  C   C289      1.0  0.21704  0.46283  0.72653  1.0000
  C   C290      1.0  0.20474  0.44546  0.71373  1.0000
  C   C291      1.0  0.19047  0.45689  0.70225  1.0000
  C   C292      1.0  0.18763  0.48529  0.70392  1.0000
  C   C293      1.0  0.19926  0.50231  0.71693  1.0000
  H   H461      1.0  0.22833  0.45401  0.73520  1.0000
  H   H462      1.0  0.20634  0.42313  0.71281  1.0000
  H   H463      1.0  0.17667  0.49414  0.69511  1.0000
  C   C294      1.0  0.04108  0.51370  0.50762  1.0000
  C   C295      1.0  0.02842  0.36688  0.69403  1.0000
  N   N31       1.0  0.47758  0.55448  0.69659  1.0000
  S   S129      1.0  0.45743  0.45727  0.68342  1.0000
  H   H464      1.0  0.04823  0.37126  0.68512  1.0000
  C   C296      1.0  0.37582  0.47467  0.69515  1.0000
  C   C297      1.0  0.37805  0.44889  0.70350  1.0000
  C   C298      1.0  0.36424  0.43917  0.71932  1.0000
  C   C299      1.0  0.34816  0.45515  0.72694  1.0000
  C   C300      1.0  0.34592  0.48096  0.71857  1.0000
  C   C301      1.0  0.35968  0.49065  0.70270  1.0000
  H   H465      1.0  0.38983  0.43597  0.69771  1.0000
  H   H466      1.0  0.36585  0.41905  0.72568  1.0000
  H   H467      1.0  0.33343  0.49330  0.72429  1.0000
  H   H468      1.0  0.35781  0.51059  0.69630  1.0000
  H   H469      1.0  0.20905  0.63654  0.67720  1.0000
  C   C302      1.0  0.11979  0.42092  0.73781  1.0000
  H   H470      1.0  0.18699  0.36509  0.50262  1.0000
  H   H471      1.0  0.16646  0.36605  0.57624  1.0000
  S   S130      1.0  0.49766  0.44615  0.65313  1.0000
  H   H472      1.0  0.31248  0.42781  0.68872  1.0000
  H   H473      1.0  0.22853  0.61013  0.67548  1.0000
  H   H474      1.0  0.02583  0.45858  0.52549  1.0000
  H   H475      1.0  0.10297  0.52448  0.50572  1.0000
  H   H476      1.0  0.02790  0.66989  0.68575  1.0000
  S   S131      1.0  0.47476  0.44949  0.61182  1.0000
  C   C303      1.0  0.09846  0.43128  0.56494  1.0000
  C   C304      1.0  0.09360  0.44833  0.57714  1.0000
  C   C305      1.0  0.10146  0.44354  0.59258  1.0000
  C   C306      1.0  0.11405  0.42141  0.59600  1.0000
  C   C307      1.0  0.11881  0.40429  0.58380  1.0000
  C   C308      1.0  0.11116  0.40922  0.56834  1.0000
  H   H477      1.0  0.08364  0.46532  0.57468  1.0000
  H   H478      1.0  0.09758  0.45681  0.60186  1.0000
  H   H479      1.0  0.12805  0.38682  0.58643  1.0000
  H   H480      1.0  0.11441  0.39553  0.55915  1.0000
  C   C309      1.0  0.23052  0.40724  0.50421  1.0000
  H   H481      1.0  0.43539  0.38114  0.74351  1.0000
  C   C310      1.0  0.27914  0.39858  0.50663  1.0000
  C   C311      1.0  0.26386  0.41918  0.50546  1.0000
  H   H482      1.0  0.30479  0.40818  0.50753  1.0000
  H   H483      1.0  0.23914  0.39773  0.53665  1.0000
  C   C312      1.0  0.40378  0.41995  0.57374  1.0000
  C   C313      1.0  0.43444  0.42026  0.57118  1.0000
  C   C314      1.0  0.45578  0.42917  0.58302  1.0000
  C   C315      1.0  0.44656  0.43742  0.59757  1.0000
  C   C316      1.0  0.41569  0.43650  0.60025  1.0000
  C   C317      1.0  0.39455  0.42809  0.58831  1.0000
  H   H484      1.0  0.40834  0.44289  0.61136  1.0000
  Fe  Fe68      1.0  0.45250  0.41704  0.66924  1.0000
  C   C318      1.0  0.20139  0.60120  0.70533  1.0000
  H   H485      1.0  0.16207  0.54155  0.70011  1.0000
  H   H486      1.0  0.16439  0.54913  0.67900  1.0000
  H   H487      1.0  0.20688  0.62646  0.70685  1.0000
  H   H488      1.0  0.22473  0.59893  0.70448  1.0000
  H   H489      1.0  0.18670  0.58640  0.71633  1.0000
  C   C319      1.0  0.41412  0.49829  0.50668  1.0000
  H   H490      1.0  0.48357  0.57764  0.67302  1.0000
  H   H491      1.0  0.21819  0.43111  0.56150  1.0000
  H   H492      1.0  0.42770  0.45129  0.51844  1.0000
  H   H493      1.0  0.09926  0.48919  0.49707  1.0000
  H   H494      1.0  0.20845  0.38282  0.57938  1.0000
  H   H495      1.0  0.42822  0.54823  0.69994  1.0000
  C   C320      1.0  0.40392  0.48550  0.53514  1.0000
  H   H496      1.0  0.09144  0.45056  0.72049  1.0000
  S   S132      1.0  0.44121  0.36654  0.67850  1.0000
  H   H497      1.0  0.27794  0.44446  0.50571  1.0000
  C   C321      1.0  0.45281  0.56482  0.70260  1.0000
  C   C322      1.0  0.20466  0.61121  0.67685  1.0000
  H   H498      1.0  0.19305  0.60322  0.66588  1.0000
  C   C323      1.0  0.26130  0.36583  0.50640  1.0000
  H   H499      1.0  0.30157  0.41410  0.66976  1.0000
  N   N32       1.0  0.27450  0.43799  0.67988  1.0000
  C   C324      1.0  0.26541  0.44651  0.66447  1.0000
  C   C325      1.0  0.24823  0.40808  0.68760  1.0000
  C   C326      1.0  0.27980  0.46378  0.69015  1.0000
  C   C327      1.0  0.30459  0.43361  0.67729  1.0000
  H   H500      1.0  0.45307  0.39275  0.63865  1.0000
  H   H501      1.0  0.24262  0.44982  0.66605  1.0000
  H   H502      1.0  0.26129  0.42763  0.65639  1.0000
  H   H503      1.0  0.22483  0.41008  0.68902  1.0000
  H   H504      1.0  0.24449  0.38789  0.68044  1.0000
  H   H505      1.0  0.25358  0.40167  0.69959  1.0000
  H   H506      1.0  0.28513  0.45755  0.70219  1.0000
  H   H507      1.0  0.25817  0.46890  0.69169  1.0000
  H   H508      1.0  0.49168  0.39399  0.60816  1.0000
  S   S133      1.0  0.21198  0.43375  0.50404  1.0000
  H   H509      1.0  0.20601  0.50115  0.50316  1.0000
  H   H510      1.0  0.46907  0.52186  0.71739  1.0000
  H   H511      1.0  0.22551  0.53492  0.51388  1.0000
  H   H512      1.0  0.47969  0.42997  0.58081  1.0000
  H   H513      1.0  0.12640  0.39349  0.71184  1.0000
  H   H514      1.0  0.45775  0.58897  0.69707  1.0000
  H   H515      1.0  0.04232  0.52800  0.49638  1.0000
  H   H516      1.0  0.01528  0.50210  0.51270  1.0000
  H   H517      1.0  0.13754  0.57987  0.70361  1.0000
  H   H518      1.0  0.39590  0.47438  0.50456  1.0000
  H   H519      1.0  0.38491  0.46148  0.53378  1.0000
  H   H520      1.0  0.23182  0.36204  0.54879  1.0000
  C   C328      1.0  0.06270  0.39147  0.73582  1.0000
  C   C329      1.0  0.44514  0.47545  0.52048  1.0000
  H   H521      1.0  0.17609  0.41448  0.55853  1.0000
  H   H522      1.0  0.45377  0.53708  0.67597  1.0000
  C   C330      1.0  0.46986  0.52235  0.70426  1.0000
  H   H523      1.0  0.47294  0.37879  0.74583  1.0000
  N   N33       1.0  0.42913  0.49714  0.52145  1.0000
  H   H524      1.0  0.20018  0.55421  0.68808  1.0000
  S   S134      1.0  0.07417  0.62846  0.66902  1.0000
  H   H525      1.0  0.15745  0.61952  0.69352  1.0000
  C   C331      1.0  0.08826  0.50630  0.49817  1.0000
  H   H526      1.0  0.25054  0.39995  0.55644  1.0000
  S   S135      1.0  0.06788  0.40142  0.50469  1.0000
  C   C332      1.0  0.17745  0.55753  0.68956  1.0000
  C   C333      1.0  0.50191  0.38497  0.71292  1.0000
  H   H527      1.0  0.46521  0.52922  0.53456  1.0000
  H   H528      1.0  0.19705  0.52428  0.71825  1.0000
  C   C334      1.0  0.10193  0.38274  0.71865  1.0000
  N   N34       1.0  0.09515  0.40674  0.72680  1.0000
  N   N35       1.0  0.18423  0.59109  0.69115  1.0000
  Fe  Fe69      1.0  0.33231  0.35591  0.51235  1.0000
  C   C335      1.0  0.48529  0.38882  0.70024  1.0000
  H   H529      1.0  0.04347  0.38174  0.72780  1.0000
  C   C336      1.0  0.46274  0.36218  0.69422  1.0000
  Fe  Fe70      1.0  0.49979  0.48770  0.66571  1.0000
  H   H530      1.0  0.40156  0.51420  0.50697  1.0000
  H   H531      1.0  0.49373  0.37999  0.65159  1.0000
  S   S136      1.0  0.02906  0.42331  0.68130  1.0000
  N   N36       1.0  0.19937  0.38336  0.55486  1.0000
  H   H532      1.0  0.43634  0.37414  0.62169  1.0000
  C   C337      1.0  0.00707  0.65815  0.67884  1.0000
  H   H533      1.0  0.32480  0.45558  0.67123  1.0000
  C   C338      1.0  0.23161  0.38587  0.54897  1.0000
  H   H534      1.0  0.06059  0.45298  0.51840  1.0000
  H   H535      1.0  0.28463  0.46908  0.65834  1.0000
  C   C339      1.0  0.49617  0.35450  0.71966  1.0000
  H   H536      1.0  0.45589  0.47310  0.53158  1.0000
  H   H537      1.0  0.24612  0.51106  0.50804  1.0000
  C   C340      1.0  0.21266  0.37456  0.50374  1.0000
  H   H538      1.0  0.13846  0.65024  0.65219  1.0000
  C   C341      1.0  0.45346  0.52932  0.52351  1.0000
  H   H539      1.0  0.44229  0.54638  0.52423  1.0000
  H   H540      1.0  0.18012  0.37496  0.53241  1.0000
  H   H541      1.0  0.10084  0.36308  0.72722  1.0000
  H   H542      1.0  0.42628  0.35144  0.64100  1.0000
  N   N37       1.0  0.47420  0.36288  0.62996  1.0000
  C   C342      1.0  0.22947  0.52148  0.50423  1.0000
  H   H543      1.0  0.47285  0.53856  0.51336  1.0000
  H   H544      1.0  0.14455  0.43273  0.73140  1.0000
  N   N38       1.0  0.05394  0.48997  0.50482  1.0000
  H   H545      1.0  0.20620  0.42725  0.54172  1.0000
  C   C343      1.0  0.47769  0.55377  0.67922  1.0000
  H   H546      1.0  0.07781  0.42200  0.70638  1.0000
  H   H547      1.0  0.48996  0.41245  0.69514  1.0000
  H   H548      1.0  0.46457  0.48351  0.51040  1.0000
  H   H549      1.0  0.15022  0.36032  0.54930  1.0000
  C   C344      1.0  0.50016  0.38937  0.61965  1.0000
  H   H550      1.0  0.12024  0.44347  0.70771  1.0000
  H   H551      1.0  0.27189  0.58336  0.50002  1.0000
  C   C345      1.0  0.05132  0.47125  0.52003  1.0000
  H   H552      1.0  0.06574  0.48651  0.52880  1.0000
  C   C346      1.0  0.17503  0.36366  0.54486  1.0000
  C   C347      1.0  0.19074  0.36844  0.57145  1.0000
  H   H553      1.0  0.01901  0.61601  0.69671  1.0000
  H   H554      1.0  0.48834  0.51396  0.70017  1.0000
  H   H555      1.0  0.49596  0.54592  0.67430  1.0000
  H   H556      1.0  0.01683  0.65341  0.66742  1.0000
  C   C348      1.0  0.48620  0.35827  0.64522  1.0000
  H   H557      1.0  0.05720  0.40867  0.74252  1.0000
  H   H558      1.0  0.06036  0.37135  0.74445  1.0000
  S   S137      1.0  0.22881  0.51325  0.74429  1.0000
  H   H559      1.0  0.11558  0.43926  0.74413  1.0000
  Fe  Fe71      1.0  0.25020  0.39686  0.93533  1.0000
  C   C349      1.0  0.37675  0.67049  0.87837  1.0000
  S   S138      1.0  0.27904  0.42854  0.95317  1.0000
  Fe  Fe72      1.0  0.25382  0.38936  0.89955  1.0000
  H   H560      1.0  0.26856  0.48171  0.97584  1.0000
  S   S139      1.0  0.28580  0.40784  0.87611  1.0000
  S   S140      1.0  0.20466  0.35184  0.94096  1.0000
  S   S141      1.0  0.33079  0.44172  0.74674  1.0000
  C   C350      1.0  0.45020  0.37680  0.75244  1.0000
  C   C351      1.0  0.33551  0.54899  0.84021  1.0000
  S   S142      1.0  0.23273  0.41550  0.91454  1.0000
  S   S143      1.0  0.27536  0.37488  0.91993  1.0000
  Fe  Fe73      1.0  0.30745  0.46862  0.76012  1.0000
  Fe  Fe74      1.0  0.26420  0.46338  0.79034  1.0000
  S   S144      1.0  0.26699  0.51243  0.78451  1.0000
  S   S145      1.0  0.23192  0.43398  0.81246  1.0000
  Fe  Fe75      1.0  0.26061  0.49919  0.75950  1.0000
  Fe  Fe76      1.0  0.31980  0.52682  0.77774  1.0000
  S   S146      1.0  0.36203  0.56986  0.78433  1.0000
  S   S147      1.0  0.25344  0.44892  0.76583  1.0000
  S   S148      1.0  0.31760  0.47864  0.78524  1.0000
  C   C352      1.0  0.35729  0.59616  0.79721  1.0000
  C   C353      1.0  0.38497  0.61958  0.80233  1.0000
  C   C354      1.0  0.32673  0.59343  0.80294  1.0000
  H   H561      1.0  0.32967  0.50048  0.82264  1.0000
  H   H562      1.0  0.30530  0.57591  0.79878  1.0000
  C   C355      1.0  0.26963  0.41211  0.85830  1.0000
  C   C356      1.0  0.23738  0.40732  0.85823  1.0000
  C   C357      1.0  0.22589  0.41311  0.84396  1.0000
  C   C358      1.0  0.24655  0.42389  0.82971  1.0000
  C   C359      1.0  0.27849  0.42755  0.82970  1.0000
  C   C360      1.0  0.28995  0.42161  0.84395  1.0000
  H   H563      1.0  0.22149  0.39992  0.86921  1.0000
  H   H564      1.0  0.20108  0.41003  0.84403  1.0000
  H   H565      1.0  0.29445  0.43530  0.81875  1.0000
  H   H566      1.0  0.31485  0.42503  0.84392  1.0000
  C   C361      1.0  0.26797  0.41671  0.97369  1.0000
  C   C362      1.0  0.23662  0.39490  0.97961  1.0000
  C   C363      1.0  0.35170  0.63616  0.81961  1.0000
  H   H567      1.0  0.35609  0.54226  0.84088  1.0000
  H   H568      1.0  0.21902  0.38368  0.97151  1.0000
  C   C364      1.0  0.27864  0.53103  0.83686  1.0000
  C   C365      1.0  0.32173  0.63087  0.88409  1.0000
  C   C366      1.0  0.24922  0.48085  0.98485  1.0000
  H   H569      1.0  0.27419  0.54049  0.84801  1.0000
  H   H570      1.0  0.40927  0.36273  0.77898  1.0000
  C   C367      1.0  0.38223  0.63964  0.81342  1.0000
  H   H571      1.0  0.30029  0.61079  0.81883  1.0000
  Fe  Fe77      1.0  0.18880  0.36850  0.91907  1.0000
  H   H572      1.0  0.29754  0.62411  0.89070  1.0000
  H   H573      1.0  0.34285  0.56841  0.83037  1.0000
  H   H574      1.0  0.27407  0.47549  0.84940  1.0000
  S   S149      1.0  0.34787  0.65901  0.83469  1.0000
  H   H575      1.0  0.37470  0.67015  0.86540  1.0000
  H   H576      1.0  0.31853  0.52857  0.81228  1.0000
  H   H577      1.0  0.33244  0.55906  0.85139  1.0000
  H   H578      1.0  0.38696  0.65345  0.88195  1.0000
  H   H579      1.0  0.31619  0.48703  0.85127  1.0000
  H   H580      1.0  0.33000  0.61221  0.88752  1.0000
  H   H581      1.0  0.29418  0.50446  0.86243  1.0000
  H   H582      1.0  0.29762  0.53962  0.97884  1.0000
  H   H583      1.0  0.07407  0.35044  0.91101  1.0000
  H   H584      1.0  0.28814  0.48996  0.81952  1.0000
  H   H585      1.0  0.40869  0.62198  0.79785  1.0000
  H   H586      1.0  0.28372  0.54970  0.82690  1.0000
  C   C368      1.0  0.34892  0.66247  0.90460  1.0000
  H   H587      1.0  0.31488  0.44793  0.97987  1.0000
  N   N39       1.0  0.30556  0.52145  0.83755  1.0000
  H   H588      1.0  0.25963  0.54251  0.98159  1.0000
  H   H589      1.0  0.35739  0.64435  0.90874  1.0000
  C   C369      1.0  0.32394  0.61320  0.81425  1.0000
  S   S150      1.0  0.13880  0.36661  0.91842  1.0000
  H   H590      1.0  0.40378  0.65737  0.81739  1.0000
  N   N40       1.0  0.34515  0.66258  0.88744  1.0000
  H   H591      1.0  0.23758  0.45618  0.99095  1.0000
  H   H592      1.0  0.30700  0.49913  0.99590  1.0000
  C   C370      1.0  0.27750  0.53689  0.98784  1.0000
  C   C371      1.0  0.29723  0.49607  0.85074  1.0000
  H   H593      1.0  0.11974  0.40259  0.74694  1.0000
  H   H594      1.0  0.31855  0.63042  0.87118  1.0000
  C   C372      1.0  0.31073  0.50957  0.82238  1.0000
  H   H595      1.0  0.32579  0.65748  0.91185  1.0000
  C   C373      1.0  0.29052  0.43121  0.98437  1.0000
  H   H596      1.0  0.25573  0.51052  0.83494  1.0000
  H   H597      1.0  0.46103  0.35833  0.78144  1.0000
  H   H598      1.0  0.23068  0.48476  0.97838  1.0000
  S   S151      1.0  0.31400  0.51800  0.75219  1.0000
  H   H599      1.0  0.38663  0.34762  0.76257  1.0000
  H   H600      1.0  0.28786  0.55521  0.99620  1.0000
  H   H601      1.0  0.45707  0.39637  0.76024  1.0000
  H   H602      1.0  0.38453  0.35222  0.95045  1.0000
  C   C374      1.0  0.22765  0.38845  0.99610  1.0000
  H   H603      1.0  0.22402  0.76503  0.09561  1.0000
  S   S152      1.0  0.40154  0.74354  0.01280  1.0000
  H   H604      1.0  0.50534  0.97818  0.15229  1.0000
  S   S153      1.0  0.39063  0.82250  0.00455  1.0000
  H   H605      1.0  0.31129  0.99070  0.11943  1.0000
  H   H606      1.0  0.00856  0.69802  0.13185  1.0000
  H   H607      1.0  0.20230  0.73849  0.06423  1.0000
  C   C375      1.0  0.47737  0.68362  0.03077  1.0000
  S   S154      1.0  0.13871  0.72911  0.15728  1.0000
  S   S155      1.0  0.04530  0.70901  0.16703  1.0000
  Fe  Fe78      1.0  0.21951  0.85701  0.08353  1.0000
  S   S156      1.0  0.26693  0.85596  0.08803  1.0000
  S   S157      1.0  0.17150  0.83443  0.09914  1.0000
  Fe  Fe79      1.0  0.24529  0.89175  0.04979  1.0000
  S   S158      1.0  0.29462  0.89349  0.05161  1.0000
  S   S159      1.0  0.22687  0.90849  0.02849  1.0000
  Fe  Fe80      1.0  0.26842  0.84321  0.06295  1.0000
  S   S160      1.0  0.27618  0.80021  0.05684  1.0000
  Fe  Fe81      1.0  0.28923  0.90644  0.07648  1.0000
  S   S161      1.0  0.33178  0.94823  0.08395  1.0000
  S   S162      1.0  0.21933  0.84046  0.05932  1.0000
  S   S163      1.0  0.24161  0.90861  0.07377  1.0000
  C   C376      1.0  0.14732  0.75922  0.14162  1.0000
  C   C377      1.0  0.12269  0.76319  0.13424  1.0000
  C   C378      1.0  0.13052  0.78696  0.12150  1.0000
  C   C379      1.0  0.16295  0.80674  0.11599  1.0000
  C   C380      1.0  0.18755  0.80328  0.12366  1.0000
  C   C381      1.0  0.17973  0.77951  0.13639  1.0000
  H   H608      1.0  0.09763  0.74770  0.13816  1.0000
  H   H609      1.0  0.11136  0.78964  0.11567  1.0000
  H   H610      1.0  0.21262  0.81875  0.11969  1.0000
  H   H611      1.0  0.19891  0.77669  0.14212  1.0000
  C   C382      1.0  0.35258  0.96389  0.13548  1.0000
  C   C383      1.0  0.37306  0.98509  0.12284  1.0000
  C   C384      1.0  0.36683  0.97932  0.10713  1.0000
  C   C385      1.0  0.33977  0.95256  0.10387  1.0000
  C   C386      1.0  0.31944  0.93096  0.11647  1.0000
  C   C387      1.0  0.32602  0.93652  0.13224  1.0000
  H   H612      1.0  0.20287  0.71556  0.08189  1.0000
  H   H613      1.0  0.29855  0.91019  0.11406  1.0000
  H   H614      1.0  0.31009  0.91989  0.14195  1.0000
  C   C388      1.0  0.36008  0.81607  0.01981  1.0000
  C   C389      1.0  0.35767  0.84218  0.02606  1.0000
  C   C390      1.0  0.33211  0.83755  0.03754  1.0000
  C   C391      1.0  0.30908  0.80677  0.04290  1.0000
  C   C392      1.0  0.31192  0.78065  0.03685  1.0000
  C   C393      1.0  0.33734  0.78527  0.02529  1.0000
  H   H615      1.0  0.37536  0.86606  0.02194  1.0000
  H   H616      1.0  0.33038  0.85776  0.04232  1.0000
  H   H617      1.0  0.29425  0.75677  0.04102  1.0000
  H   H618      1.0  0.33910  0.76498  0.02054  1.0000
  Fe  Fe82      1.0  0.39068  0.77718  0.99683  1.0000
  H   H619      1.0  0.44530  0.00266  0.12283  1.0000
  Fe  Fe83      1.0  0.08728  0.69584  0.16687  1.0000
  H   H620      1.0  0.38275  0.99596  0.09742  1.0000
  H   H621      1.0  0.33346  0.98347  0.24284  1.0000
  H   H622      1.0  0.13572  0.73853  0.07414  1.0000
  C   C394      1.0  0.03786  0.71914  0.23121  1.0000
  H   H623      1.0  0.30103  0.81334  0.00765  1.0000
  C   C395      1.0  0.49865  0.77808  0.04002  1.0000
  H   H624      1.0  0.42761  0.94656  0.13359  1.0000
  C   C396      1.0  0.30826  0.00741  0.12747  1.0000
  H   H625      1.0  0.20289  0.79006  0.09524  1.0000
  N   N41       1.0  0.17878  0.74597  0.08533  1.0000
  C   C397      1.0  0.18776  0.72515  0.07559  1.0000
  C   C398      1.0  0.20850  0.77295  0.08865  1.0000
  H   H626      1.0  0.48324  0.00469  0.11432  1.0000
  C   C399      1.0  0.15871  0.75815  0.07661  1.0000
  H   H627      1.0  0.44736  0.80964  0.01641  1.0000
  H   H628      1.0  0.17176  0.77164  0.06504  1.0000
  Fe  Fe84      1.0  0.03717  0.69142  0.19308  1.0000
  H   H629      1.0  0.07418  0.70234  0.22564  1.0000
  C   C400      1.0  0.47039  0.00745  0.12531  1.0000
  C   C401      1.0  0.48462  0.76602  0.02635  1.0000
  H   H630      1.0  0.13792  0.70705  0.09844  1.0000
  H   H631      1.0  0.15298  0.74295  0.10792  1.0000
  C   C402      1.0  0.45822  0.82777  0.02475  1.0000
  H   H632      1.0  0.43698  0.00346  0.23104  1.0000
  S   S164      1.0  0.35913  0.97151  0.15535  1.0000
  Fe  Fe85      1.0  0.36466  0.70472  0.00101  1.0000
  H   H633      1.0  0.45869  0.75454  0.02672  1.0000
  H   H634      1.0  0.16303  0.79708  0.17144  1.0000
  N   N42       1.0  0.48567  0.85626  0.01656  1.0000
  H   H635      1.0  0.45482  0.87782  0.00908  1.0000
  N   N43       1.0  0.12513  0.79113  0.18956  1.0000
  C   C403      1.0  0.09989  0.78167  0.17854  1.0000
  C   C404      1.0  0.12571  0.76238  0.19772  1.0000
  C   C405      1.0  0.11777  0.80959  0.20147  1.0000
  C   C406      1.0  0.15699  0.81063  0.18050  1.0000
  H   H636      1.0  0.10474  0.76766  0.16941  1.0000
  H   H637      1.0  0.09873  0.80273  0.17211  1.0000
  H   H638      1.0  0.07550  0.76680  0.18497  1.0000
  H   H639      1.0  0.10178  0.74686  0.20438  1.0000
  H   H640      1.0  0.13171  0.74811  0.18911  1.0000
  H   H641      1.0  0.14406  0.76852  0.20637  1.0000
  H   H642      1.0  0.13629  0.81709  0.21003  1.0000
  H   H643      1.0  0.09384  0.79522  0.20849  1.0000
  H   H644      1.0  0.11691  0.83141  0.19576  1.0000
  H   H645      1.0  0.17670  0.81815  0.18841  1.0000
  H   H646      1.0  0.15740  0.83244  0.17406  1.0000
  H   H647      1.0  0.48335  0.77578  0.05078  1.0000
  C   C407      1.0  0.02277  0.72905  0.24329  1.0000
  C   C408      1.0  0.27532  0.91519  0.00517  1.0000
  C   C409      1.0  0.24311  0.91004  0.00883  1.0000
  H   H648      1.0  0.47536  0.69124  0.04279  1.0000
  H   H649      1.0  0.29058  0.91728  0.01461  1.0000
  C   C410      1.0  0.45330  0.95251  0.13551  1.0000
  H   H650      1.0  0.22322  0.78652  0.07751  1.0000
  H   H651      1.0  0.46587  0.81652  0.03462  1.0000
  H   H652      1.0  0.43854  0.83366  0.02984  1.0000
  H   H653      1.0  0.43623  0.70383  0.01731  1.0000
  H   H654      1.0  0.46497  0.94781  0.12466  1.0000
  H   H655      1.0  0.49077  0.70559  0.02246  1.0000
  C   C411      1.0  0.16037  0.72786  0.10046  1.0000
  S   S165      1.0  0.02606  0.71919  0.21175  1.0000
  C   C412      1.0  0.06199  0.70953  0.23484  1.0000
  H   H656      1.0  0.42801  0.98563  0.15166  1.0000
  H   H657      1.0  0.17502  0.71898  0.10758  1.0000
  H   H658      1.0  0.16600  0.70467  0.07261  1.0000
  C   C413      1.0  0.22373  0.90806  0.99646  1.0000
  H   H659      1.0  0.42335  0.69058  0.03802  1.0000
  N   N44       1.0  0.47042  0.98590  0.13890  1.0000
  H   H660      1.0  0.15227  0.77467  0.08348  1.0000
  C   C414      1.0  0.45370  0.99098  0.15321  1.0000
  H   H661      1.0  0.45372  0.97567  0.16384  1.0000
  C   C415      1.0  0.50419  0.99281  0.14162  1.0000
  H   H662      1.0  0.45306  0.93570  0.14553  1.0000
  H   H663      1.0  0.39361  0.00603  0.12509  1.0000
  H   H664      1.0  0.28205  0.99781  0.13166  1.0000
  H   H665      1.0  0.49382  0.89277  0.99765  1.0000
  C   C416      1.0  0.47390  0.87104  0.00405  1.0000
  C   C417      1.0  0.50417  0.76848  0.01247  1.0000
  H   H666      1.0  0.27829  0.83616  0.00447  1.0000
  C   C418      1.0  0.42547  0.68250  0.02613  1.0000
  C   C419      1.0  0.34811  0.00872  0.24281  1.0000
  H   H667      1.0  0.32128  0.00672  0.13802  1.0000
  C   C420      1.0  0.50018  0.87911  0.02818  1.0000
  H   H668      1.0  0.19881  0.90413  0.99922  1.0000
  H   H669      1.0  0.48220  0.88649  0.03397  1.0000
  H   H670      1.0  0.49993  0.82863  0.00096  1.0000
  C   C421      1.0  0.28732  0.81997  0.99891  1.0000
  S   S166      1.0  0.08044  0.68082  0.19312  1.0000
  H   H671      1.0  0.25247  0.00805  0.99626  1.0000
  H   H672      1.0  0.26592  0.79787  0.99716  1.0000
  Fe  Fe86      1.0  0.28035  0.97212  0.32990  1.0000
  S   S167      1.0  0.32306  0.96723  0.31801  1.0000
  S   S168      1.0  0.23475  0.92890  0.34122  1.0000
  Fe  Fe87      1.0  0.06365  0.79606  0.31927  1.0000
  S   S169      1.0  0.08036  0.75716  0.32118  1.0000
  S   S170      1.0  0.09943  0.84864  0.31493  1.0000
  Fe  Fe88      1.0  0.03692  0.73130  0.33941  1.0000
  Fe  Fe89      1.0  0.04727  0.73588  0.30251  1.0000
  S   S171      1.0  0.06369  0.71404  0.28240  1.0000
  H   H673      1.0  0.10762  0.68027  0.41862  1.0000
  S   S172      1.0  0.03249  0.77596  0.29951  1.0000
  H   H674      1.0  0.10397  0.71853  0.37379  1.0000
  H   H675      1.0  0.45478  0.71109  0.45514  1.0000
  Fe  Fe90      1.0  0.33167  0.71039  0.46930  1.0000
  S   S173      1.0  0.29709  0.69914  0.45064  1.0000
  S   S174      1.0  0.35447  0.76072  0.47782  1.0000
  H   H676      1.0  0.26429  0.80177  0.42817  1.0000
  H   H677      1.0  0.42611  0.71034  0.44167  1.0000
  S   S175      1.0  0.47467  0.00256  0.44905  1.0000
  Fe  Fe91      1.0  0.48192  0.83619  0.36885  1.0000
  S   S176      1.0  0.48294  0.86283  0.38987  1.0000
  S   S177      1.0  0.43202  0.81332  0.35900  1.0000
  H   H678      1.0  0.29900  0.82472  0.43800  1.0000
  H   H679      1.0  0.41683  0.93633  0.34751  1.0000
  S   S178      1.0  0.48791  0.80566  0.42282  1.0000
  H   H680      1.0  0.26785  0.73824  0.43445  1.0000
  H   H681      1.0  0.13183  0.71587  0.33174  1.0000
  C   C422      1.0  0.43941  0.89168  0.34830  1.0000
  H   H682      1.0  0.24136  0.76675  0.47028  1.0000
  Fe  Fe92      1.0  0.48453  0.95900  0.44861  1.0000
  S   S179      1.0  0.45185  0.91035  0.46305  1.0000
  C   C423      1.0  0.13796  0.76246  0.35001  1.0000
  H   H683      1.0  0.42023  0.87270  0.34271  1.0000
  C   C424      1.0  0.28442  0.80063  0.43447  1.0000
  S   S180      1.0  0.16379  0.72018  0.43087  1.0000
  H   H684      1.0  0.15161  0.78192  0.35721  1.0000
  S   S181      1.0  0.27932  0.72171  0.37843  1.0000
  S   S182      1.0  0.33224  0.99742  0.27503  1.0000
  C   C425      1.0  0.39012  0.78745  0.36583  1.0000
  C   C426      1.0  0.36769  0.78050  0.35456  1.0000
  C   C427      1.0  0.33451  0.76069  0.35873  1.0000
  C   C428      1.0  0.32231  0.74701  0.37436  1.0000
  C   C429      1.0  0.34457  0.75384  0.38586  1.0000
  C   C430      1.0  0.37822  0.77397  0.38163  1.0000
  H   H685      1.0  0.37606  0.79046  0.34234  1.0000
  H   H686      1.0  0.31810  0.75593  0.34965  1.0000
  H   H687      1.0  0.33602  0.74356  0.39802  1.0000
  H   H688      1.0  0.39489  0.77882  0.39059  1.0000
  C   C431      1.0  0.39041  0.72514  0.41631  1.0000
  C   C432      1.0  0.39282  0.74522  0.42821  1.0000
  C   C433      1.0  0.42282  0.76988  0.43020  1.0000
  C   C434      1.0  0.45024  0.77533  0.41995  1.0000
  C   C435      1.0  0.44755  0.75585  0.40775  1.0000
  C   C436      1.0  0.41765  0.73105  0.40582  1.0000
  H   H689      1.0  0.37170  0.74150  0.43609  1.0000
  H   H690      1.0  0.42487  0.78464  0.43974  1.0000
  H   H691      1.0  0.46872  0.75888  0.40019  1.0000
  H   H692      1.0  0.41595  0.71576  0.39654  1.0000
  C   C437      1.0  0.38161  0.80205  0.47220  1.0000
  C   C438      1.0  0.39208  0.82158  0.48445  1.0000
  C   C439      1.0  0.41312  0.85413  0.48127  1.0000
  C   C440      1.0  0.42432  0.86860  0.46569  1.0000
  C   C441      1.0  0.41373  0.84937  0.45319  1.0000
  C   C442      1.0  0.39240  0.81631  0.45644  1.0000
  H   H693      1.0  0.42191  0.85986  0.44105  1.0000
  H   H694      1.0  0.38419  0.80201  0.44675  1.0000
  C   C443      1.0  0.16502  0.75526  0.48051  1.0000
  C   C444      1.0  0.15605  0.76907  0.46771  1.0000
  C   C445      1.0  0.15574  0.75780  0.45269  1.0000
  C   C446      1.0  0.16422  0.73254  0.45026  1.0000
  C   C447      1.0  0.17271  0.71832  0.46310  1.0000
  C   C448      1.0  0.17321  0.72974  0.47813  1.0000
  H   H695      1.0  0.14970  0.78870  0.46933  1.0000
  H   H696      1.0  0.14903  0.76894  0.44286  1.0000
  C   C449      1.0  0.20741  0.99717  0.33006  1.0000
  H   H697      1.0  0.18010  0.71876  0.48796  1.0000
  C   C450      1.0  0.43694  0.99625  0.36554  1.0000
  C   C451      1.0  0.50337  0.85948  0.45509  1.0000
  H   H698      1.0  0.19113  0.75840  0.35965  1.0000
  H   H699      1.0  0.39374  0.92423  0.36658  1.0000
  Fe  Fe93      1.0  0.17680  0.68443  0.41826  1.0000
  C   C452      1.0  0.05454  0.71807  0.26267  1.0000
  H   H700      1.0  0.10178  0.88707  0.49263  1.0000
  S   S183      1.0  0.49567  0.96493  0.42215  1.0000
  C   C453      1.0  0.03094  0.72839  0.25897  1.0000
  C   C454      1.0  0.19875  0.90525  0.33283  1.0000
  C   C455      1.0  0.17610  0.87695  0.34159  1.0000
  C   C456      1.0  0.14623  0.85852  0.33595  1.0000
  C   C457      1.0  0.13828  0.86863  0.32164  1.0000
  C   C458      1.0  0.16101  0.89685  0.31286  1.0000
  C   C459      1.0  0.19124  0.91478  0.31826  1.0000
  H   H701      1.0  0.18156  0.86939  0.35289  1.0000
  H   H702      1.0  0.12889  0.83712  0.34294  1.0000
  H   H703      1.0  0.15516  0.90488  0.30176  1.0000
  H   H704      1.0  0.20849  0.93613  0.31122  1.0000
  H   H705      1.0  0.45665  0.88189  0.35193  1.0000
  S   S184      1.0  0.02209  0.77178  0.33869  1.0000
  H   H706      1.0  0.26436  0.80819  0.46378  1.0000
  H   H707      1.0  0.42237  0.86195  0.37783  1.0000
  H   H708      1.0  0.38646  0.97395  0.45582  1.0000
  S   S185      1.0  0.36273  0.68924  0.45819  1.0000
  C   C460      1.0  0.44924  0.00131  0.38040  1.0000
  H   H709      1.0  0.09733  0.70194  0.34626  1.0000
  H   H710      1.0  0.13014  0.69906  0.37501  1.0000
  C   C461      1.0  0.07033  0.70909  0.25048  1.0000
  H   H711      1.0  0.13474  0.97434  0.48192  1.0000
  H   H712      1.0  0.46956  0.99617  0.38287  1.0000
  S   S186      1.0  0.04529  0.70712  0.36202  1.0000
  H   H713      1.0  0.14301  0.91494  0.49286  1.0000
  H   H714      1.0  0.21598  0.97857  0.32776  1.0000
  H   H715      1.0  0.29092  0.75736  0.46683  1.0000
  H   H716      1.0  0.46820  0.72725  0.43476  1.0000
  C   C462      1.0  0.25098  0.78446  0.45959  1.0000
  H   H717      1.0  0.39615  0.87985  0.38420  1.0000
  H   H718      1.0  0.41088  0.00541  0.47722  1.0000
  H   H719      1.0  0.24319  0.72592  0.45323  1.0000
  H   H720      1.0  0.07713  0.93626  0.48120  1.0000
  H   H721      1.0  0.18017  0.71802  0.35557  1.0000
  H   H722      1.0  0.14660  0.77130  0.33729  1.0000
  H   H723      1.0  0.31403  0.79893  0.46079  1.0000
  C   C463      1.0  0.12365  0.70817  0.34458  1.0000
  H   H724      1.0  0.11205  0.75820  0.35181  1.0000
  H   H725      1.0  0.37228  0.99053  0.43989  1.0000
  S   S187      1.0  0.18497  0.69869  0.39189  1.0000
  H   H726      1.0  0.22977  0.78485  0.45403  1.0000
  H   H727      1.0  0.35172  0.98825  0.47524  1.0000
  H   H728      1.0  0.23344  0.01043  0.36657  1.0000
  H   H729      1.0  0.18574  0.94947  0.35348  1.0000
  C   C464      1.0  0.25293  0.74493  0.44307  1.0000
  N   N45       1.0  0.27193  0.77644  0.44839  1.0000
  H   H730      1.0  0.12077  0.91832  0.47677  1.0000
  C   C465      1.0  0.17654  0.73977  0.35225  1.0000
  H   H731      1.0  0.31606  0.77021  0.44827  1.0000
  C   C466      1.0  0.07601  0.92940  0.49410  1.0000
  H   H732      1.0  0.18669  0.74819  0.33964  1.0000
  N   N46       1.0  0.14191  0.73317  0.35457  1.0000
  Fe  Fe94      1.0  0.22898  0.68836  0.39197  1.0000
  C   C467      1.0  0.29936  0.77572  0.45639  1.0000
  H   H733      1.0  0.05956  0.69650  0.43849  1.0000
  H   H734      1.0  0.48635  0.89766  0.43636  1.0000
  C   C468      1.0  0.17885  0.96943  0.35533  1.0000
  H   H735      1.0  0.45339  0.69108  0.41347  1.0000
  H   H736      1.0  0.46860  0.91532  0.37409  1.0000
  H   H737      1.0  0.01866  0.73545  0.26824  1.0000
  H   H738      1.0  0.42079  0.86827  0.49108  1.0000
  C   C469      1.0  0.39087  0.99630  0.44841  1.0000
  S   S188      1.0  0.35490  0.69025  0.41583  1.0000
  H   H739      1.0  0.15500  0.96305  0.35068  1.0000
  H   H740      1.0  0.09824  0.70062  0.44375  1.0000
  H   H741      1.0  0.14386  0.73966  0.37941  1.0000
  H   H742      1.0  0.30020  0.79511  0.42575  1.0000
  N   N47       1.0  0.42555  0.90150  0.36205  1.0000
  C   C470      1.0  0.45204  0.92524  0.36964  1.0000
  C   C471      1.0  0.40389  0.91558  0.35661  1.0000
  H   H743      1.0  0.45275  0.91203  0.33906  1.0000
  H   H744      1.0  0.44256  0.93360  0.37994  1.0000
  H   H745      1.0  0.38318  0.89808  0.35119  1.0000
  H   H746      1.0  0.41466  0.00431  0.44120  1.0000
  H   H747      1.0  0.46714  0.94648  0.36118  1.0000
  H   H748      1.0  0.38683  0.85482  0.36825  1.0000
  S   S189      1.0  0.39553  0.99482  0.34328  1.0000
  H   H749      1.0  0.44813  0.98753  0.35660  1.0000
  H   H750      1.0  0.17559  0.97035  0.36835  1.0000
  H   H751      1.0  0.23192  0.74461  0.43708  1.0000
  C   C472      1.0  0.40687  0.87338  0.37362  1.0000
  C   C473      1.0  0.07231  0.68370  0.44441  1.0000
  H   H752      1.0  0.48370  0.86417  0.46115  1.0000
  H   H753      1.0  0.17894  0.69860  0.46149  1.0000
  C   C474      1.0  0.12953  0.72219  0.37144  1.0000
  C   C475      1.0  0.44884  0.70750  0.44273  1.0000
  N   N48       1.0  0.20369  0.99987  0.34725  1.0000
  H   H754      1.0  0.24244  0.98751  0.35252  1.0000
  H   H755      1.0  0.12638  0.68583  0.34759  1.0000
  C   C476      1.0  0.11888  0.91254  0.48982  1.0000
  Fe  Fe95      1.0  0.48789  0.00967  0.42256  1.0000
  H   H756      1.0  0.49517  0.87104  0.42474  1.0000
  H   H757      1.0  0.18412  0.99048  0.32481  1.0000
  H   H758      1.0  0.08892  0.70152  0.25324  1.0000
  Fe  Fe96      1.0  0.35449  0.00386  0.33295  1.0000
  H   H759      1.0  0.49142  0.83767  0.44909  1.0000
  S   S190      1.0  0.31144  0.00594  0.34618  1.0000
  H   H760      1.0  0.33873  0.00512  0.45895  1.0000
  Fe  Fe97      1.0  0.32823  0.00835  0.30071  1.0000
  C   C477      1.0  0.41069  0.00298  0.36201  1.0000
  C   C478      1.0  0.23486  0.00711  0.35374  1.0000
  H   H761      1.0  0.49609  0.69284  0.43074  1.0000
  C   C479      1.0  0.35791  0.01023  0.46710  1.0000
  S   S191      1.0  0.28340  0.01128  0.31194  1.0000
  H   H762      1.0  0.30253  0.68165  0.39763  1.0000
  C   C480      1.0  0.13182  0.96668  0.49484  1.0000
  S   S192      1.0  0.14327  0.84741  0.49595  1.0000
  Fe  Fe98      1.0  0.12273  0.81411  0.54062  1.0000
  S   S193      1.0  0.11483  0.85641  0.53136  1.0000
  S   S194      1.0  0.10050  0.78476  0.56445  1.0000
  C   C481      1.0  0.29019  0.95561  0.51411  1.0000
  Fe  Fe99      1.0  0.16365  0.87296  0.51710  1.0000
  C   C482      1.0  0.01267  0.72126  0.70724  1.0000
  Fe  Fe100     1.0  0.09503  0.82926  0.51088  1.0000
  H   H763      1.0  0.04891  0.70749  0.71539  1.0000
  S   S195      1.0  0.17324  0.83272  0.52821  1.0000
  S   S196      1.0  0.09940  0.78566  0.52093  1.0000
  C   C483      1.0  0.02020  0.83799  0.50862  1.0000
  S   S197      1.0  0.07889  0.71253  0.65617  1.0000
  Fe  Fe101     1.0  0.14491  0.73682  0.68525  1.0000
  S   S198      1.0  0.12749  0.77113  0.67435  1.0000
  S   S199      1.0  0.18696  0.75169  0.70006  1.0000
  Fe  Fe102     1.0  0.07782  0.73132  0.67983  1.0000
  C   C484      1.0  0.13228  0.71553  0.56554  1.0000
  Fe  Fe103     1.0  0.13039  0.74948  0.65174  1.0000
  S   S200      1.0  0.15918  0.78427  0.63027  1.0000
  S   S201      1.0  0.09504  0.69877  0.69275  1.0000
  S   S202      1.0  0.15069  0.71705  0.66245  1.0000
  H   H764      1.0  0.12193  0.73227  0.52730  1.0000
  H   H765      1.0  0.30661  0.94463  0.51566  1.0000
  H   H766      1.0  0.15541  0.77561  0.55202  1.0000
  C   C485      1.0  0.19165  0.78250  0.71193  1.0000
  C   C486      1.0  0.16587  0.79012  0.71613  1.0000
  C   C487      1.0  0.16959  0.81309  0.72672  1.0000
  C   C488      1.0  0.19910  0.82863  0.73304  1.0000
  C   C489      1.0  0.22528  0.82208  0.72818  1.0000
  C   C490      1.0  0.22149  0.79890  0.71774  1.0000
  H   H767      1.0  0.14275  0.77761  0.71166  1.0000
  H   H768      1.0  0.16674  0.71595  0.52863  1.0000
  H   H769      1.0  0.24835  0.83463  0.73258  1.0000
  H   H770      1.0  0.24166  0.79343  0.71428  1.0000
  H   H771      1.0  0.23102  0.99442  0.50868  1.0000
  H   H772      1.0  0.08747  0.89906  0.51911  1.0000
  H   H773      1.0  0.21572  0.86635  0.64446  1.0000
  Fe  Fe104     1.0  0.14927  0.80577  0.50795  1.0000
  C   C491      1.0  0.33552  0.96497  0.72623  1.0000
  H   H774      1.0  0.31308  0.95093  0.73359  1.0000
  C   C492      1.0  0.30248  0.98896  0.51158  1.0000
  H   H775      1.0  0.41586  0.99130  0.53770  1.0000
  H   H776      1.0  0.24756  0.91065  0.51667  1.0000
  C   C493      1.0  0.11765  0.78553  0.58255  1.0000
  C   C494      1.0  0.14968  0.80606  0.58421  1.0000
  C   C495      1.0  0.16216  0.80536  0.59889  1.0000
  C   C496      1.0  0.14281  0.78410  0.61196  1.0000
  C   C497      1.0  0.11095  0.76336  0.61020  1.0000
  C   C498      1.0  0.09847  0.76411  0.59557  1.0000
  H   H777      1.0  0.16468  0.82265  0.57428  1.0000
  H   H778      1.0  0.18684  0.82150  0.60016  1.0000
  H   H779      1.0  0.09581  0.74693  0.62015  1.0000
  H   H780      1.0  0.07368  0.74813  0.59438  1.0000
  H   H781      1.0  0.14160  0.68216  0.54246  1.0000
  C   C499      1.0  0.38393  0.99214  0.56534  1.0000
  C   C500      1.0  0.25669  0.93625  0.51469  1.0000
  C   C501      1.0  0.23512  0.95009  0.51275  1.0000
  C   C502      1.0  0.33554  0.98323  0.71238  1.0000
  H   H782      1.0  0.15305  0.71822  0.57235  1.0000
  H   H783      1.0  0.18802  0.76411  0.55319  1.0000
  C   C503      1.0  0.39343  0.00144  0.70688  1.0000
  C   C504      1.0  0.39343  0.98330  0.72082  1.0000
  C   C505      1.0  0.02271  0.85026  0.52331  1.0000
  C   C506      1.0  0.18205  0.85102  0.67333  1.0000
  H   H784      1.0  0.34630  0.01023  0.54766  1.0000
  H   H785      1.0  0.37442  0.98216  0.53474  1.0000
  S   S203      1.0  0.19265  0.92704  0.51344  1.0000
  S   S204      1.0  0.34484  0.01220  0.51111  1.0000
  H   H786      1.0  0.12018  0.72937  0.57105  1.0000
  S   S205      1.0  0.03348  0.73824  0.68830  1.0000
  H   H787      1.0  0.14930  0.81827  0.73033  1.0000
  H   H788      1.0  0.31305  0.98323  0.70920  1.0000
  H   H789      1.0  0.17498  0.76982  0.53422  1.0000
  H   H790      1.0  0.12883  0.92647  0.51973  1.0000
  S   S206      1.0  0.16754  0.76979  0.49946  1.0000
  H   H791      1.0  0.18016  0.70995  0.54747  1.0000
  C   C507      1.0  0.36449  0.96510  0.73056  1.0000
  N   N49       1.0  0.14297  0.72679  0.54854  1.0000
  H   H792      1.0  0.09704  0.93923  0.52293  1.0000
  H   H793      1.0  0.04236  0.85176  0.53008  1.0000
  H   H794      1.0  0.09661  0.69820  0.54092  1.0000
  C   C508      1.0  0.11467  0.72341  0.54012  1.0000
  C   C509      1.0  0.36446  0.00164  0.70271  1.0000
  H   H795      1.0  0.10211  0.73718  0.54523  1.0000
  H   H796      1.0  0.16629  0.84195  0.66368  1.0000
  H   H797      1.0  0.16985  0.83484  0.68439  1.0000
  C   C510      1.0  0.02541  0.70718  0.71823  1.0000
  N   N50       1.0  0.21469  0.85267  0.66924  1.0000
  C   C511      1.0  0.23446  0.86420  0.68249  1.0000
  C   C512      1.0  0.10522  0.92415  0.51587  1.0000
  C   C513      1.0  0.21202  0.82070  0.66644  1.0000
  C   C514      1.0  0.23011  0.87466  0.65467  1.0000
  H   H798      1.0  0.25915  0.86539  0.67995  1.0000
  H   H799      1.0  0.22318  0.84820  0.69368  1.0000
  H   H800      1.0  0.23718  0.88838  0.68488  1.0000
  C   C515      1.0  0.28095  0.00280  0.50958  1.0000
  H   H801      1.0  0.19731  0.81124  0.65648  1.0000
  H   H802      1.0  0.20023  0.80340  0.67712  1.0000
  H   H803      1.0  0.23614  0.82087  0.66345  1.0000
  H   H804      1.0  0.18309  0.87478  0.67535  1.0000
  H   H805      1.0  0.25481  0.87652  0.65125  1.0000
  H   H806      1.0  0.23239  0.89904  0.65626  1.0000
  C   C516      1.0  0.15856  0.70782  0.54149  1.0000
  C   C517      1.0  0.24747  0.98344  0.51018  1.0000
  C   C518      1.0  0.16641  0.76056  0.54691  1.0000
  C   C519      1.0  0.39791  0.00154  0.53692  1.0000
  H   H807      1.0  0.11468  0.69007  0.56727  1.0000
  H   H808      1.0  0.41593  0.98344  0.72408  1.0000
  H   H809      1.0  0.38112  0.00258  0.57648  1.0000
  S   S207      1.0  0.05002  0.82704  0.49995  1.0000
  C   C520      1.0  0.00764  0.69259  0.73297  1.0000
  H   H810      1.0  0.36019  0.97217  0.56408  1.0000
  H   H811      1.0  0.40176  0.98196  0.56693  1.0000
  H   H812      1.0  0.05772  0.90420  0.49667  1.0000
  H   H813      1.0  0.01752  0.68149  0.74137  1.0000
  H   H814      1.0  0.38399  0.81135  0.49665  1.0000
  H   H815      1.0  0.18609  0.75580  0.74477  1.0000
  H   H816      1.0  0.06663  0.94415  0.50075  1.0000
  N   N51       1.0  0.10797  0.93322  0.49864  1.0000
  Fe  Fe105     1.0  0.09894  0.68190  0.66887  1.0000
  H   H817      1.0  0.15610  0.97003  0.49824  1.0000
  H   H818      1.0  0.12442  0.98300  0.50131  1.0000
  H   H819      1.0  0.24639  0.78242  0.74514  1.0000
  C   C521      1.0  0.05116  0.82506  0.91851  1.0000
  H   H820      1.0  0.15779  0.83238  0.85634  1.0000
  H   H821      1.0  0.14937  0.89014  0.88220  1.0000
  C   C522      1.0  0.05230  0.84999  0.90802  1.0000
  H   H822      1.0  0.18492  0.85173  0.89588  1.0000
  H   H823      1.0  0.14839  0.85238  0.90431  1.0000
  S   S208      1.0  0.21637  0.94148  0.94004  1.0000
  H   H824      1.0  0.12707  0.90595  0.91370  1.0000
  C   C523      1.0  0.15818  0.84070  0.89578  1.0000
  C   C524      1.0  0.16036  0.87839  0.87425  1.0000
  C   C525      1.0  0.16380  0.82972  0.86867  1.0000
  H   H825      1.0  0.10363  0.80254  0.88415  1.0000
  H   H826      1.0  0.07624  0.80972  0.93525  1.0000
  C   C526      1.0  0.07718  0.82926  0.92729  1.0000
  N   N52       1.0  0.14887  0.84426  0.87969  1.0000
  H   H827      1.0  0.18711  0.89113  0.87402  1.0000
  H   H828      1.0  0.10140  0.83878  0.88841  1.0000
  C   C527      1.0  0.10610  0.88327  0.91492  1.0000
  H   H829      1.0  0.10526  0.83082  0.86820  1.0000
  H   H830      1.0  0.15430  0.88205  0.86203  1.0000
  C   C528      1.0  0.10438  0.85850  0.92577  1.0000
  H   H831      1.0  0.08101  0.89834  0.89789  1.0000
  S   S209      1.0  0.13536  0.86329  0.93784  1.0000
  Fe  Fe106     1.0  0.18580  0.89868  0.92827  1.0000
  C   C529      1.0  0.11325  0.82835  0.88010  1.0000
  H   H832      1.0  0.19071  0.84121  0.86826  1.0000
  C   C530      1.0  0.08000  0.87900  0.90605  1.0000
  C   C531      1.0  0.26859  0.91666  0.97688  1.0000
  S   S210      1.0  0.27646  0.94969  0.91324  1.0000
  C   C532      1.0  0.25053  0.92389  0.85892  1.0000
  Fe  Fe107     1.0  0.24068  0.90677  0.90333  1.0000
  S   S211      1.0  0.28545  0.92159  0.95700  1.0000
  Fe  Fe108     1.0  0.23567  0.96457  0.91511  1.0000
  C   C533      1.0  0.23629  0.91099  0.98056  1.0000
  N   N53       1.0  0.21191  0.75345  0.76466  1.0000
  Fe  Fe109     1.0  0.25447  0.92303  0.93740  1.0000
  C   C534      1.0  0.25212  0.93425  0.84280  1.0000
  C   C535      1.0  0.26078  0.88909  0.83509  1.0000
  H   H833      1.0  0.22093  0.90892  0.97118  1.0000
  H   H834      1.0  0.24949  0.95586  0.83957  1.0000
  S   S212      1.0  0.23776  0.85419  0.78778  1.0000
  S   S213      1.0  0.22262  0.87868  0.92731  1.0000
  Fe  Fe110     1.0  0.27013  0.90455  0.79129  1.0000
  C   C536      1.0  0.25390  0.89597  0.86317  1.0000
  Fe  Fe111     1.0  0.24500  0.87157  0.76185  1.0000
  C   C537      1.0  0.25900  0.87862  0.85121  1.0000
  H   H835      1.0  0.14917  0.81528  0.90050  1.0000
  S   S214      1.0  0.27346  0.92288  0.76566  1.0000
  S   S215      1.0  0.20128  0.92338  0.90359  1.0000
  H   H836      1.0  0.26487  0.87564  0.82597  1.0000
  S   S216      1.0  0.28774  0.80315  0.78998  1.0000
  C   C538      1.0  0.25733  0.91696  0.83083  1.0000
  S   S217      1.0  0.25904  0.93067  0.81072  1.0000
  Fe  Fe112     1.0  0.28401  0.84895  0.78282  1.0000
  H   H837      1.0  0.26171  0.85705  0.85441  1.0000
  H   H838      1.0  0.15571  0.80396  0.87236  1.0000
  S   S218      1.0  0.25050  0.88120  0.88326  1.0000
  H   H839      1.0  0.24674  0.93752  0.86803  1.0000
  S   S219      1.0  0.28879  0.86241  0.75662  1.0000
  S   S220      1.0  0.31611  0.89813  0.78820  1.0000
  Fe  Fe113     1.0  0.31696  0.91238  0.76228  1.0000
  H   H840      1.0  0.30650  0.98817  0.96931  1.0000
  H   H841      1.0  0.31722  0.76075  0.79682  1.0000
  H   H842      1.0  0.18484  0.77375  0.77801  1.0000
  C   C539      1.0  0.24358  0.76442  0.75507  1.0000
  C   C540      1.0  0.20879  0.78084  0.77111  1.0000
  H   H843      1.0  0.22758  0.79200  0.77918  1.0000
  H   H844      1.0  0.31330  0.92401  0.98641  1.0000
  C   C541      1.0  0.31915  0.80640  0.80157  1.0000
  H   H845      1.0  0.29922  0.79068  0.97458  1.0000
  H   H846      1.0  0.03015  0.80254  0.91993  1.0000
  C   C542      1.0  0.28811  0.91893  0.98922  1.0000
  H   H847      1.0  0.01809  0.82585  0.94798  1.0000
  H   H848      1.0  0.18640  0.72166  0.78556  1.0000
  C   C543      1.0  0.20978  0.73018  0.77792  1.0000
  C   C544      1.0  0.00860  0.80390  0.95647  1.0000
  C   C545      1.0  0.18562  0.73846  0.75458  1.0000
  C   C546      1.0  0.28848  0.84341  0.97251  1.0000
  H   H849      1.0  0.06414  0.80139  0.96374  1.0000
  H   H850      1.0  0.26394  0.77570  0.76234  1.0000
  H   H851      1.0  0.22952  0.74097  0.78567  1.0000
  H   H852      1.0  0.21199  0.70911  0.77353  1.0000
  S   S221      1.0  0.01933  0.84496  0.89731  1.0000
  H   H853      1.0  0.26757  0.82188  0.96972  1.0000
  H   H854      1.0  0.07014  0.84199  0.96016  1.0000
  N   N54       1.0  0.02306  0.80995  0.97163  1.0000
  C   C547      1.0  0.32948  0.78198  0.80258  1.0000
  H   H855      1.0  0.01030  0.73041  0.76542  1.0000
  H   H856      1.0  0.07025  0.82555  0.97986  1.0000
  C   C548      1.0  0.05839  0.82015  0.96874  1.0000
  H   H857      1.0  0.30328  0.85588  0.96110  1.0000
  H   H858      1.0  0.21157  0.79958  0.76154  1.0000
  N   N55       1.0  0.30775  0.83521  0.98378  1.0000
  H   H859      1.0  0.24667  0.74442  0.74989  1.0000
  H   H860      1.0  0.27032  0.97554  0.95961  1.0000
  C   C549      1.0  0.31957  0.81305  0.97701  1.0000
  C   C550      1.0  0.29060  0.99680  0.96308  1.0000
  H   H861      1.0  0.01948  0.77199  0.76189  1.0000
  C   C551      1.0  0.02644  0.75812  0.79236  1.0000
  H   H862      1.0  0.27862  0.85953  0.97742  1.0000
  H   H863      1.0  0.32774  0.88086  0.99275  1.0000
  H   H864      1.0  0.04533  0.78165  0.78703  1.0000
  H   H865      1.0  0.02761  0.85790  0.97061  1.0000
  C   C552      1.0  0.00848  0.78047  0.98267  1.0000
  H   H866      1.0  0.32652  0.85212  0.80886  1.0000
  C   C553      1.0  0.33495  0.83365  0.80915  1.0000
  H   H867      1.0  0.01379  0.78560  0.95059  1.0000
  H   H868      1.0  0.30480  0.01131  0.95198  1.0000
  H   H869      1.0  0.18771  0.71830  0.74905  1.0000
  H   H870      1.0  0.27696  0.98643  0.99454  1.0000
  H   H871      1.0  0.16141  0.72928  0.76151  1.0000
  H   H872      1.0  0.03608  0.74008  0.79058  1.0000
  C   C554      1.0  0.33569  0.86446  0.98672  1.0000
  H   H873      1.0  0.33017  0.68722  0.86969  1.0000
  H   H874      1.0  0.01970  0.78358  0.99402  1.0000
  H   H875      1.0  0.23974  0.97343  0.98571  1.0000
  S   S222      1.0  0.20200  0.85487  0.74750  1.0000
  H   H876      1.0  0.02296  0.75927  0.80538  1.0000
  H   H877      1.0  0.42988  0.89261  0.74816  1.0000
  H   H878      1.0  0.23546  0.00316  0.96133  1.0000
  C   C555      1.0  0.26121  0.99495  0.98808  1.0000
  C   C556      1.0  0.33323  0.68651  0.88260  1.0000
  H   H879      1.0  0.02688  0.84017  0.99018  1.0000
  C   C557      1.0  0.01665  0.83525  0.97862  1.0000
  C   C558      1.0  0.42630  0.90723  0.75729  1.0000
  H   H880      1.0  0.30944  0.68137  0.88922  1.0000
  H   H881      1.0  0.01133  0.76039  0.97737  1.0000
  H   H882      1.0  0.36707  0.68588  0.90742  1.0000
  H   H883      1.0  0.35066  0.87756  0.97545  1.0000
  H   H884      1.0  0.39481  0.69460  0.88027  1.0000
  H   H885      1.0  0.35177  0.85892  0.99441  1.0000
  C   C559      1.0  0.43602  0.74487  0.89867  1.0000
  C   C560      1.0  0.41671  0.86611  0.77853  1.0000
  C   C561      1.0  0.36178  0.83702  0.81721  1.0000
  H   H886      1.0  0.33534  0.82389  0.96566  1.0000
  Fe  Fe114     1.0  0.43886  0.74400  0.85790  1.0000
  S   S223      1.0  0.37245  0.74114  0.94344  1.0000
  H   H887      1.0  0.45040  0.92231  0.76101  1.0000
  N   N56       1.0  0.40358  0.88710  0.77099  1.0000
  H   H888      1.0  0.38210  0.89327  0.79309  1.0000
  Fe  Fe115     1.0  0.43606  0.74568  0.99226  1.0000
  H   H889      1.0  0.41710  0.92349  0.75141  1.0000
  C   C562      1.0  0.39019  0.75093  0.91149  1.0000
  H   H890      1.0  0.50487  0.80787  0.80557  1.0000
  Fe  Fe116     1.0  0.46320  0.74575  0.82353  1.0000
  H   H891      1.0  0.35032  0.71080  0.88489  1.0000
  S   S224      1.0  0.41690  0.74138  0.81414  1.0000
  C   C563      1.0  0.37276  0.81306  0.81780  1.0000
  H   H892      1.0  0.40303  0.75742  0.88614  1.0000
  S   S225      1.0  0.35019  0.73845  0.98702  1.0000
  H   H893      1.0  0.43195  0.73264  0.93906  1.0000
  H   H894      1.0  0.35403  0.85256  0.77553  1.0000
  H   H895      1.0  0.36455  0.76667  0.81115  1.0000
  C   C564      1.0  0.39825  0.74397  0.92648  1.0000
  H   H896      1.0  0.36171  0.88257  0.75948  1.0000
  C   C565      1.0  0.40915  0.75160  0.89762  1.0000
  H   H897      1.0  0.33409  0.80629  0.98528  1.0000
  Fe  Fe117     1.0  0.38822  0.74077  0.96810  1.0000
  H   H898      1.0  0.42101  0.85079  0.77002  1.0000
  Fe  Fe118     1.0  0.39252  0.70488  0.83519  1.0000
  S   S226      1.0  0.36522  0.94324  0.74819  1.0000
  H   H899      1.0  0.39968  0.84996  0.78860  1.0000
  H   H900      1.0  0.37419  0.85126  0.75690  1.0000
  Fe  Fe119     1.0  0.41793  0.77632  0.83140  1.0000
  C   C566      1.0  0.37202  0.86748  0.76547  1.0000
  S   S227      1.0  0.43868  0.70603  0.84300  1.0000
  H   H901      1.0  0.46528  0.73331  0.91452  1.0000
  S   S228      1.0  0.39994  0.70412  0.98145  1.0000
  S   S229      1.0  0.42785  0.78228  0.97697  1.0000
  C   C567      1.0  0.44441  0.73840  0.91365  1.0000
  C   C568      1.0  0.35625  0.78528  0.81070  1.0000
  S   S230      1.0  0.40866  0.81963  0.82626  1.0000
  H   H902      1.0  0.38938  0.92380  0.77727  1.0000
  S   S231      1.0  0.39030  0.73967  0.85188  1.0000
  H   H903      1.0  0.36924  0.75590  0.91063  1.0000
  C   C569      1.0  0.39923  0.90762  0.78262  1.0000
  C   C570      1.0  0.42560  0.73802  0.92755  1.0000
  S   S232      1.0  0.45879  0.74323  0.88145  1.0000
  H   H904      1.0  0.37425  0.85835  0.82288  1.0000
  H   H905      1.0  0.43996  0.87998  0.78338  1.0000
  H   H906      1.0  0.42249  0.92270  0.78710  1.0000
  S   S233      1.0  0.46644  0.78388  0.83892  1.0000
  S   S234      1.0  0.48701  0.75201  0.99539  1.0000
  H   H907      1.0  0.46289  0.85425  0.99511  1.0000
  Fe  Fe120     1.0  0.84493  0.27373  0.05762  1.0000
  S   S235      1.0  0.84008  0.22418  0.05537  1.0000
  S   S236      1.0  0.80268  0.28378  0.05108  1.0000
  Fe  Fe121     1.0  0.91046  0.29485  0.06995  1.0000
  S   S237      1.0  0.91137  0.24733  0.06817  1.0000
  H   H908      1.0  0.63210  0.29400  0.05320  1.0000
  Fe  Fe122     1.0  0.89182  0.24790  0.04461  1.0000
  S   S238      1.0  0.90403  0.22423  0.02413  1.0000
  Fe  Fe123     1.0  0.85964  0.22718  0.07900  1.0000
  S   S239      1.0  0.84472  0.18498  0.09763  1.0000
  S   S240      1.0  0.89549  0.29746  0.04526  1.0000
  S   S241      1.0  0.85996  0.27480  0.08237  1.0000
  C   C571      1.0  0.56014  0.24329  0.04191  1.0000
  Fe  Fe124     1.0  0.69986  0.08675  0.16037  1.0000
  S   S242      1.0  0.65953  0.04206  0.15450  1.0000
  S   S243      1.0  0.71545  0.13272  0.14443  1.0000
  H   H909      1.0  0.68429  0.07122  0.10570  1.0000
  H   H910      1.0  0.54529  0.27034  0.06650  1.0000
  S   S244      1.0  0.67904  0.08250  0.18561  1.0000
  S   S245      1.0  0.73190  0.06317  0.16652  1.0000
  C   C572      1.0  0.53481  0.02809  0.18446  1.0000
  C   C573      1.0  0.93947  0.32070  0.12584  1.0000
  H   H911      1.0  0.59914  0.25265  0.07514  1.0000
  C   C574      1.0  0.59934  0.31788  0.00679  1.0000
  C   C575      1.0  0.56758  0.03694  0.17948  1.0000
  H   H912      1.0  0.70178  0.04556  0.08452  1.0000
  H   H913      1.0  0.57752  0.09212  0.14876  1.0000
  C   C576      1.0  0.78266  0.31722  0.03018  1.0000
  H   H914      1.0  0.55869  0.22506  0.07262  1.0000
  H   H915      1.0  0.84179  0.27885  0.02361  1.0000
  H   H916      1.0  0.53511  0.22908  0.04781  1.0000
  H   H917      1.0  0.86135  0.33404  0.03436  1.0000
  H   H918      1.0  0.58595  0.29852  0.06817  1.0000
  H   H919      1.0  0.60824  0.06729  0.16283  1.0000
  H   H920      1.0  0.55858  0.25917  0.03193  1.0000
  H   H921      1.0  0.56751  0.29998  0.05039  1.0000
  C   C577      1.0  0.57543  0.32206  0.01638  1.0000
  H   H922      1.0  0.77086  0.05782  0.10827  1.0000
  C   C578      1.0  0.56555  0.07434  0.15877  1.0000
  H   H923      1.0  0.55045  0.30500  0.01703  1.0000
  C   C579      1.0  0.56970  0.28359  0.05988  1.0000
  H   H924      1.0  0.92472  0.28780  0.00755  1.0000
  C   C580      1.0  0.95557  0.34126  0.09801  1.0000
  C   C581      1.0  0.58295  0.06022  0.16668  1.0000
  C   C582      1.0  0.69651  0.03801  0.23717  1.0000
  H   H925      1.0  0.74973  0.20236  0.18278  1.0000
  H   H926      1.0  0.92387  0.30185  0.13479  1.0000
  H   H927      1.0  0.91634  0.29592  0.10629  1.0000
  N   N57       1.0  0.58199  0.26171  0.05324  1.0000
  C   C583      1.0  0.80961  0.17232  0.11106  1.0000
  C   C584      1.0  0.78716  0.18524  0.10969  1.0000
  C   C585      1.0  0.75846  0.17311  0.12011  1.0000
  C   C586      1.0  0.75203  0.14797  0.13187  1.0000
  C   C587      1.0  0.77483  0.13556  0.13345  1.0000
  C   C588      1.0  0.80347  0.14766  0.12306  1.0000
  H   H928      1.0  0.79176  0.20430  0.10048  1.0000
  H   H929      1.0  0.74103  0.18301  0.11891  1.0000
  H   H930      1.0  0.77041  0.11653  0.14257  1.0000
  H   H931      1.0  0.82088  0.13770  0.12419  1.0000
  C   C589      1.0  0.80935  0.31455  0.03615  1.0000
  H   H932      1.0  0.70779  0.08365  0.12207  1.0000
  H   H933      1.0  0.76648  0.34191  0.01290  1.0000
  H   H934      1.0  0.77550  0.08760  0.23867  1.0000
  Fe  Fe125     1.0  0.70819  0.05535  0.19159  1.0000
  H   H935      1.0  0.76993  0.09807  0.08839  1.0000
  Fe  Fe126     1.0  0.64144  0.03545  0.18034  1.0000
  H   H936      1.0  0.81515  0.18021  0.19446  1.0000
  C   C590      1.0  0.92153  0.27109  0.99883  1.0000
  H   H937      1.0  0.61482  0.29790  0.03539  1.0000
  C   C591      1.0  0.78719  0.34034  0.01760  1.0000
  C   C592      1.0  0.58322  0.23961  0.06623  1.0000
  S   S246      1.0  0.58861  0.01821  0.18926  1.0000
  S   S247      1.0  0.74181  0.06956  0.21113  1.0000
  H   H938      1.0  0.73202  0.16982  0.17110  1.0000
  C   C593      1.0  0.84062  0.33553  0.02968  1.0000
  H   H939      1.0  0.73811  0.03976  0.08565  1.0000
  Fe  Fe127     1.0  0.69015  0.01787  0.16240  1.0000
  H   H940      1.0  0.56856  0.22645  0.03667  1.0000
  C   C594      1.0  0.93517  0.31728  0.10970  1.0000
  H   H941      1.0  0.78800  0.23806  0.02214  1.0000
  N   N58       1.0  0.72856  0.06530  0.10404  1.0000
  C   C595      1.0  0.71739  0.04085  0.09284  1.0000
  C   C596      1.0  0.70026  0.06558  0.11342  1.0000
  C   C597      1.0  0.74756  0.09686  0.09507  1.0000
  C   C598      1.0  0.74897  0.05780  0.11486  1.0000
  C   C599      1.0  0.79800  0.22966  0.01198  1.0000
  H   H942      1.0  0.67910  0.02819  0.22877  1.0000
  H   H943      1.0  0.51802  0.01820  0.14358  1.0000
  H   H944      1.0  0.73324  0.10286  0.08643  1.0000
  C   C600      1.0  0.75075  0.07139  0.24279  1.0000
  C   C601      1.0  0.61481  0.28033  0.04494  1.0000
  H   H945      1.0  0.70287  0.01682  0.09924  1.0000
  C   C602      1.0  0.91237  0.23900  0.00384  1.0000
  H   H946      1.0  0.75524  0.11597  0.10310  1.0000
  H   H947      1.0  0.75729  0.07533  0.12368  1.0000
  H   H948      1.0  0.79798  0.20836  0.19643  1.0000
  H   H949      1.0  0.59274  0.29733  0.00021  1.0000
  N   N59       1.0  0.77553  0.17309  0.18063  1.0000
  C   C603      1.0  0.74511  0.17715  0.18178  1.0000
  C   C604      1.0  0.79674  0.19263  0.16638  1.0000
  C   C605      1.0  0.76799  0.13929  0.17939  1.0000
  C   C606      1.0  0.79210  0.18301  0.19499  1.0000
  H   H950      1.0  0.72831  0.16232  0.19227  1.0000
  C   C607      1.0  0.53281  0.06550  0.16370  1.0000
  C   C608      1.0  0.72847  0.05886  0.23168  1.0000
  H   H951      1.0  0.81951  0.18939  0.16484  1.0000
  H   H952      1.0  0.78456  0.18608  0.15540  1.0000
  H   H953      1.0  0.80348  0.21840  0.16702  1.0000
  H   H954      1.0  0.75178  0.12381  0.18987  1.0000
  H   H955      1.0  0.79018  0.13498  0.17859  1.0000
  H   H956      1.0  0.75551  0.13111  0.16870  1.0000
  H   H957      1.0  0.75840  0.30100  0.03513  1.0000
  H   H958      1.0  0.77675  0.16832  0.20589  1.0000
  H   H959      1.0  0.62455  0.26478  0.03931  1.0000
  Fe  Fe128     1.0  0.50691  0.31185  0.04498  1.0000
  H   H960      1.0  0.59250  0.22281  0.06166  1.0000
  H   H961      1.0  0.99547  0.30913  0.11792  1.0000
  C   C609      1.0  0.85116  0.27107  0.01312  1.0000
  H   H962      1.0  0.86051  0.25398  0.01778  1.0000
  S   S248      1.0  0.51139  0.08208  0.15268  1.0000
  C   C610      1.0  0.51746  0.04242  0.17662  1.0000
  H   H963      1.0  0.51970  0.06763  0.22050  1.0000
  H   H964      1.0  0.80547  0.21140  0.01710  1.0000
  H   H965      1.0  0.68543  0.04210  0.12032  1.0000
  C   C611      1.0  0.63174  0.34019  0.00574  1.0000
  S   S249      1.0  0.95242  0.33702  0.07760  1.0000
  H   H966      1.0  0.73549  0.03398  0.12167  1.0000
  H   H967      1.0  0.80465  0.28932  0.00587  1.0000
  N   N60       1.0  0.82565  0.25631  0.00266  1.0000
  H   H968      1.0  0.77809  0.21782  0.00456  1.0000
  H   H969      1.0  0.87194  0.29225  0.00683  1.0000
  H   H970      1.0  0.91345  0.26560  0.44914  1.0000
  S   S250      1.0  0.97506  0.32174  0.32314  1.0000
  S   S251      1.0  0.96800  0.23209  0.32207  1.0000
  Fe  Fe129     1.0  0.78908  0.09671  0.31796  1.0000
  S   S252      1.0  0.73539  0.08266  0.32073  1.0000
  S   S253      1.0  0.81805  0.15066  0.31607  1.0000
  Fe  Fe130     1.0  0.73261  0.04720  0.34080  1.0000
  H   H971      1.0  0.89943  0.23612  0.27909  1.0000
  Fe  Fe131     1.0  0.73116  0.04588  0.30422  1.0000
  H   H972      1.0  0.62234  0.08611  0.43543  1.0000
  S   S254      1.0  0.78660  0.06247  0.33848  1.0000
  S   S255      1.0  0.78484  0.06256  0.29969  1.0000
  N   N61       1.0  0.63603  0.05806  0.45185  1.0000
  S   S256      1.0  0.82145  0.17381  0.47127  1.0000
  H   H973      1.0  0.76882  0.27960  0.45288  1.0000
  Fe  Fe132     1.0  0.64238  0.27848  0.45785  1.0000
  S   S257      1.0  0.62558  0.22460  0.45558  1.0000
  S   S258      1.0  0.61564  0.30557  0.44784  1.0000
  S   S259      1.0  0.69058  0.31505  0.44586  1.0000
  Fe  Fe133     1.0  0.65053  0.14665  0.38694  1.0000
  S   S260      1.0  0.62788  0.13940  0.41189  1.0000
  S   S261      1.0  0.63569  0.10472  0.37117  1.0000
  Fe  Fe134     1.0  0.69247  0.22026  0.38935  1.0000
  S   S262      1.0  0.67098  0.21613  0.41442  1.0000
  S   S263      1.0  0.72803  0.26981  0.37635  1.0000
  Fe  Fe135     1.0  0.67783  0.17101  0.41810  1.0000
  S   S264      1.0  0.69085  0.15626  0.44190  1.0000
  Fe  Fe136     1.0  0.62295  0.18491  0.40632  1.0000
  S   S265      1.0  0.57825  0.19439  0.41157  1.0000
  S   S266      1.0  0.70154  0.17587  0.39331  1.0000
  S   S267      1.0  0.64365  0.19142  0.38081  1.0000
  Fe  Fe137     1.0  0.52766  0.03293  0.45073  1.0000
  S   S268      1.0  0.54610  0.07138  0.46829  1.0000
  S   S269      1.0  0.54056  0.04204  0.42431  1.0000
  C   C612      1.0  0.60824  0.06277  0.37368  1.0000
  C   C613      1.0  0.61307  0.04188  0.36357  1.0000
  H   H974      1.0  0.63340  0.05128  0.35447  1.0000
  C   C614      1.0  0.60477  0.18192  0.46009  1.0000
  C   C615      1.0  0.60647  0.16234  0.44851  1.0000
  C   C616      1.0  0.58907  0.12882  0.45094  1.0000
  C   C617      1.0  0.56926  0.11395  0.46503  1.0000
  C   C618      1.0  0.56854  0.13335  0.47701  1.0000
  C   C619      1.0  0.58614  0.16699  0.47459  1.0000
  H   H975      1.0  0.62057  0.17335  0.43734  1.0000
  H   H976      1.0  0.59008  0.11445  0.44168  1.0000
  H   H977      1.0  0.55378  0.12232  0.48813  1.0000
  H   H978      1.0  0.57766  0.06498  0.39332  1.0000
  S   S270      1.0  0.57748  0.33068  0.48299  1.0000
  C   C620      1.0  0.76244  0.33178  0.38634  1.0000
  C   C621      1.0  0.75405  0.31221  0.37382  1.0000
  C   C622      1.0  0.76632  0.32688  0.35833  1.0000
  C   C623      1.0  0.68085  0.30846  0.39958  1.0000
  C   C624      1.0  0.58172  0.04971  0.38534  1.0000
  H   H979      1.0  0.75383  0.32123  0.39844  1.0000
  H   H980      1.0  0.76045  0.31259  0.34848  1.0000
  C   C625      1.0  0.78483  0.16775  0.46308  1.0000
  C   C626      1.0  0.75453  0.15014  0.47164  1.0000
  C   C627      1.0  0.72613  0.14665  0.46485  1.0000
  C   C628      1.0  0.72758  0.16055  0.44941  1.0000
  C   C629      1.0  0.75785  0.17813  0.44081  1.0000
  C   C630      1.0  0.78630  0.18177  0.44765  1.0000
  H   H981      1.0  0.75302  0.13938  0.48354  1.0000
  H   H982      1.0  0.70292  0.13340  0.47171  1.0000
  H   H983      1.0  0.75938  0.18903  0.42895  1.0000
  H   H984      1.0  0.80961  0.19542  0.44091  1.0000
  H   H985      1.0  0.72636  0.23490  0.44084  1.0000
  H   H986      1.0  0.53761  0.18628  0.47231  1.0000
  H   H987      1.0  0.75305  0.22319  0.46298  1.0000
  C   C631      1.0  0.98023  0.25608  0.27507  1.0000
  C   C632      1.0  0.53913  0.13887  0.43056  1.0000
  C   C633      1.0  0.54618  0.17075  0.42636  1.0000
  C   C634      1.0  0.52618  0.18358  0.43339  1.0000
  C   C635      1.0  0.51207  0.23609  0.49034  1.0000
  H   H988      1.0  0.56731  0.14310  0.39320  1.0000
  H   H989      1.0  0.55380  0.12846  0.42504  1.0000
  H   H990      1.0  0.53080  0.20796  0.42983  1.0000
  H   H991      1.0  0.62031  0.26502  0.40825  1.0000
  C   C636      1.0  0.66574  0.05124  0.38912  1.0000
  H   H992      1.0  0.68500  0.32474  0.36870  1.0000
  H   H993      1.0  0.67748  0.07687  0.38714  1.0000
  H   H994      1.0  0.63056  0.05123  0.40728  1.0000
  C   C637      1.0  0.70928  0.04237  0.26471  1.0000
  H   H995      1.0  0.52131  0.18150  0.49269  1.0000
  N   N62       1.0  0.65346  0.29960  0.38983  1.0000
  C   C638      1.0  0.92573  0.20952  0.32184  1.0000
  C   C639      1.0  0.91388  0.17666  0.32063  1.0000
  C   C640      1.0  0.88086  0.15810  0.31926  1.0000
  C   C641      1.0  0.85937  0.17235  0.31889  1.0000
  C   C642      1.0  0.87115  0.20518  0.32021  1.0000
  C   C643      1.0  0.90407  0.22364  0.32185  1.0000
  H   H996      1.0  0.93040  0.16549  0.32063  1.0000
  H   H997      1.0  0.87216  0.13289  0.31825  1.0000
  H   H998      1.0  0.85471  0.21642  0.31998  1.0000
  H   H999      1.0  0.91268  0.24878  0.32299  1.0000
  H   H1000     1.0  0.67709  0.09315  0.43698  1.0000
  H   H1001     1.0  0.54713  0.26856  0.46331  1.0000
  H   H1002     1.0  0.68729  0.26524  0.47125  1.0000
  N   N63       1.0  0.52737  0.10575  0.38452  1.0000
  N   N64       1.0  0.75472  0.15338  0.35411  1.0000
  C   C644      1.0  0.77229  0.13314  0.35580  1.0000
  C   C645      1.0  0.76133  0.16872  0.33765  1.0000
  C   C646      1.0  0.76575  0.17810  0.36516  1.0000
  C   C647      1.0  0.71959  0.13360  0.35781  1.0000
  H   H1003     1.0  0.76760  0.12089  0.36804  1.0000
  H   H1004     1.0  0.79888  0.14713  0.35290  1.0000
  H   H1005     1.0  0.76450  0.11421  0.34767  1.0000
  H   H1006     1.0  0.75383  0.15071  0.32897  1.0000
  H   H1007     1.0  0.74818  0.18388  0.33589  1.0000
  H   H1008     1.0  0.78764  0.18394  0.33447  1.0000
  H   H1009     1.0  0.75315  0.19398  0.36415  1.0000
  H   H1010     1.0  0.79222  0.19329  0.36272  1.0000
  H   H1011     1.0  0.76095  0.16727  0.37770  1.0000
  H   H1012     1.0  0.70539  0.14793  0.35678  1.0000
  H   H1013     1.0  0.71368  0.12139  0.37008  1.0000
  H   H1014     1.0  0.71039  0.11459  0.34973  1.0000
  N   N65       1.0  0.95123  0.26256  0.27501  1.0000
  H   H1015     1.0  0.69989  0.25420  0.44400  1.0000
  H   H1016     1.0  0.60798  0.25937  0.38864  1.0000
  S   S271      1.0  0.70846  0.05358  0.36409  1.0000
  Fe  Fe138     1.0  0.69681  0.34021  0.46781  1.0000
  H   H1017     1.0  0.93482  0.30355  0.47778  1.0000
  H   H1018     1.0  0.95258  0.27241  0.29935  1.0000
  C   C648      1.0  0.61279  0.06159  0.44156  1.0000
  H   H1019     1.0  0.56053  0.10380  0.40077  1.0000
  C   C649      1.0  0.67615  0.03319  0.37948  1.0000
  C   C650      1.0  0.51326  0.12033  0.44209  1.0000
  Fe  Fe139     1.0  0.82782  0.15194  0.49507  1.0000
  H   H1020     1.0  0.76372  0.01645  0.25092  1.0000
  H   H1021     1.0  0.92963  0.28368  0.25896  1.0000
  C   C651      1.0  0.70841  0.23720  0.44959  1.0000
  N   N66       1.0  0.53476  0.22798  0.48037  1.0000
  H   H1022     1.0  0.53742  0.07328  0.37058  1.0000
  H   H1023     1.0  0.74137  0.29740  0.45663  1.0000
  C   C652      1.0  0.52722  0.12674  0.37072  1.0000
  H   H1024     1.0  0.71380  0.20006  0.47344  1.0000
  H   H1025     1.0  0.58956  0.05692  0.44854  1.0000
  H   H1026     1.0  0.69260  0.29187  0.39889  1.0000
  H   H1027     1.0  0.58494  0.18124  0.48392  1.0000
  Fe  Fe140     1.0  0.66440  0.34437  0.43893  1.0000
  N   N67       1.0  0.90884  0.25416  0.47440  1.0000
  C   C653      1.0  0.56664  0.24075  0.48658  1.0000
  C   C654      1.0  0.89594  0.26088  0.45981  1.0000
  C   C655      1.0  0.93901  0.28185  0.47670  1.0000
  C   C656      1.0  0.88463  0.24766  0.48819  1.0000
  H   H1028     1.0  0.89043  0.28193  0.46045  1.0000
  H   H1029     1.0  0.69971  0.33294  0.39566  1.0000
  H   H1030     1.0  0.62933  0.32167  0.40381  1.0000
  H   H1031     1.0  0.75857  0.07339  0.26761  1.0000
  H   H1032     1.0  0.57856  0.11886  0.38075  1.0000
  H   H1033     1.0  0.98059  0.24008  0.26597  1.0000
  N   N68       1.0  0.72212  0.24741  0.46459  1.0000
  H   H1034     1.0  0.66592  0.05312  0.43250  1.0000
  C   C657      1.0  0.62411  0.02444  0.45835  1.0000
  H   H1035     1.0  0.98111  0.24442  0.28683  1.0000
  H   H1036     1.0  0.00285  0.27840  0.27260  1.0000
  C   C658      1.0  0.63833  0.32194  0.39125  1.0000
  C   C659      1.0  0.62933  0.26703  0.39551  1.0000
  H   H1037     1.0  0.51748  0.05661  0.39015  1.0000
  H   H1038     1.0  0.92012  0.21632  0.26875  1.0000
  H   H1039     1.0  0.61746  0.31588  0.38412  1.0000
  H   H1040     1.0  0.86161  0.22683  0.48688  1.0000
  H   H1041     1.0  0.53358  0.15136  0.37385  1.0000
  C   C660      1.0  0.55989  0.11844  0.39003  1.0000
  H   H1042     1.0  0.74391  0.23105  0.48270  1.0000
  C   C661      1.0  0.95129  0.27860  0.25938  1.0000
  H   H1043     1.0  0.64559  0.29572  0.36523  1.0000
  C   C662      1.0  0.63892  0.03659  0.40072  1.0000
  H   H1044     1.0  0.60727  0.04477  0.43235  1.0000
  H   H1045     1.0  0.61578  0.07036  0.47257  1.0000
  H   H1046     1.0  0.94911  0.27747  0.48770  1.0000
  H   H1047     1.0  0.68625  0.06667  0.44983  1.0000
  H   H1048     1.0  0.97309  0.30675  0.28523  1.0000
  H   H1049     1.0  0.67281  0.30800  0.41228  1.0000
  C   C663      1.0  0.69677  0.24839  0.47601  1.0000
  C   C664      1.0  0.63923  0.07804  0.46503  1.0000
  H   H1050     1.0  0.68705  0.21363  0.45160  1.0000
  C   C665      1.0  0.74934  0.27940  0.46154  1.0000
  C   C666      1.0  0.52225  0.19305  0.48065  1.0000
  H   H1051     1.0  0.95805  0.28719  0.46664  1.0000
  H   H1052     1.0  0.76015  0.28794  0.47264  1.0000
  H   H1053     1.0  0.55591  0.23716  0.45612  1.0000
  C   C667      1.0  0.66772  0.06812  0.44241  1.0000
  Fe  Fe141     1.0  0.62348  0.33000  0.47016  1.0000
  H   H1054     1.0  0.67575  0.22466  0.47848  1.0000
  H   H1055     1.0  0.92183  0.21892  0.28960  1.0000
  C   C668      1.0  0.92185  0.23221  0.27821  1.0000
  S   S272      1.0  0.64949  0.30179  0.48055  1.0000
  H   H1056     1.0  0.52124  0.26236  0.49054  1.0000
  H   H1057     1.0  0.54504  0.12816  0.36074  1.0000
  H   H1058     1.0  0.92446  0.21965  0.48394  1.0000
  C   C669      1.0  0.66531  0.30092  0.37305  1.0000
  H   H1059     1.0  0.89357  0.20494  0.47076  1.0000
  C   C670      1.0  0.51906  0.07346  0.37984  1.0000
  C   C671      1.0  0.91568  0.22606  0.47294  1.0000
  C   C672      1.0  0.53829  0.24224  0.46388  1.0000
  H   H1060     1.0  0.58450  0.23551  0.47920  1.0000
  C   C673      1.0  0.95163  0.28337  0.28747  1.0000
  H   H1061     1.0  0.65762  0.07725  0.47273  1.0000
  S   S273      1.0  0.69642  0.03081  0.28527  1.0000
  H   H1062     1.0  0.92975  0.28819  0.28815  1.0000
  C   C674      1.0  0.74123  0.06328  0.25922  1.0000
  H   H1063     1.0  0.87309  0.24028  0.45786  1.0000
  H   H1064     1.0  0.63983  0.24952  0.39448  1.0000
  C   C675      1.0  0.73378  0.22447  0.47125  1.0000
  H   H1065     1.0  0.67542  0.28322  0.37145  1.0000
  H   H1066     1.0  0.87883  0.26831  0.48970  1.0000
  H   H1067     1.0  0.64644  0.10328  0.46051  1.0000
  Fe  Fe142     1.0  0.99546  0.28549  0.32328  1.0000
  Fe  Fe143     1.0  0.77741  0.02667  0.32050  1.0000
  H   H1068     1.0  0.74962  0.01396  0.27970  1.0000
  H   H1069     1.0  0.51487  0.23263  0.45865  1.0000
  H   H1070     1.0  0.93449  0.23030  0.46292  1.0000
  H   H1071     1.0  0.97296  0.30179  0.25671  1.0000
  H   H1072     1.0  0.70618  0.25621  0.48746  1.0000
  C   C676      1.0  0.68702  0.02978  0.25361  1.0000
  H   H1073     1.0  0.57657  0.26704  0.48665  1.0000
  H   H1074     1.0  0.80529  0.02436  0.26944  1.0000
  H   H1075     1.0  0.95147  0.26385  0.24962  1.0000
  H   H1076     1.0  0.50853  0.12850  0.40107  1.0000
  C   C677      1.0  0.56072  0.01674  0.38690  1.0000
  C   C678      1.0  0.52375  0.33911  0.49349  1.0000
  H   H1077     1.0  0.66224  0.01364  0.25772  1.0000
  H   H1078     1.0  0.50851  0.09580  0.44541  1.0000
  H   H1079     1.0  0.64144  0.02090  0.46594  1.0000
  H   H1080     1.0  0.60046  0.01627  0.46571  1.0000
  Fe  Fe144     1.0  0.87918  0.17626  0.51885  1.0000
  S   S274      1.0  0.83137  0.17795  0.51663  1.0000
  H   H1081     1.0  0.69369  0.11639  0.61759  1.0000
  Fe  Fe145     1.0  0.85160  0.10607  0.51182  1.0000
  S   S275      1.0  0.80179  0.10345  0.50892  1.0000
  H   H1082     1.0  0.83247  0.16668  0.56041  1.0000
  Fe  Fe146     1.0  0.80929  0.13002  0.53081  1.0000
  S   S276      1.0  0.77124  0.12583  0.55070  1.0000
  S   S277      1.0  0.85731  0.12978  0.53452  1.0000
  H   H1083     1.0  0.83641  0.20512  0.56491  1.0000
  Fe  Fe147     1.0  0.75853  0.14770  0.67024  1.0000
  S   S278      1.0  0.70563  0.12233  0.67886  1.0000
  S   S279      1.0  0.79027  0.19293  0.68032  1.0000
  Fe  Fe148     1.0  0.75320  0.10478  0.64389  1.0000
  S   S280      1.0  0.69995  0.07557  0.65061  1.0000
  S   S281      1.0  0.78042  0.09343  0.62364  1.0000
  Fe  Fe149     1.0  0.69759  0.12219  0.65314  1.0000
  S   S282      1.0  0.66158  0.13692  0.64220  1.0000
  Fe  Fe150     1.0  0.71225  0.07768  0.67583  1.0000
  H   H1084     1.0  0.87370  0.18118  0.59756  1.0000
  S   S283      1.0  0.75005  0.15137  0.64455  1.0000
  S   S284      1.0  0.76603  0.10309  0.66909  1.0000
  S   S285      1.0  0.51174  0.04744  0.65551  1.0000
  H   H1085     1.0  0.95403  0.27284  0.68177  1.0000
  H   H1086     1.0  0.83771  0.15637  0.58935  1.0000
  H   H1087     1.0  0.81161  0.02304  0.52466  1.0000
  H   H1088     1.0  0.54893  0.19366  0.67865  1.0000
  H   H1089     1.0  0.91827  0.20689  0.71478  1.0000
  H   H1090     1.0  0.86227  0.20139  0.54911  1.0000
  C   C679      1.0  0.80171  0.19093  0.69955  1.0000
  C   C680      1.0  0.81012  0.21760  0.70806  1.0000
  C   C681      1.0  0.82042  0.21703  0.72325  1.0000
  C   C682      1.0  0.82260  0.18984  0.72994  1.0000
  C   C683      1.0  0.81500  0.16349  0.72125  1.0000
  C   C684      1.0  0.80449  0.16397  0.70612  1.0000
  H   H1091     1.0  0.80837  0.23867  0.70293  1.0000
  H   H1092     1.0  0.82613  0.23742  0.72987  1.0000
  H   H1093     1.0  0.81777  0.14283  0.72613  1.0000
  H   H1094     1.0  0.79916  0.14379  0.69936  1.0000
  H   H1095     1.0  0.88792  0.24180  0.57529  1.0000
  H   H1096     1.0  0.61550  0.16801  0.68288  1.0000
  H   H1097     1.0  0.84470  0.19619  0.59262  1.0000
  C   C685      1.0  0.62013  0.11153  0.64584  1.0000
  C   C686      1.0  0.59792  0.11986  0.63841  1.0000
  C   C687      1.0  0.56460  0.10022  0.64119  1.0000
  C   C688      1.0  0.55337  0.07212  0.65140  1.0000
  C   C689      1.0  0.57566  0.06348  0.65857  1.0000
  C   C690      1.0  0.60899  0.08324  0.65589  1.0000
  H   H1098     1.0  0.60649  0.14162  0.63050  1.0000
  H   H1099     1.0  0.54758  0.10669  0.63537  1.0000
  H   H1100     1.0  0.56707  0.04163  0.66641  1.0000
  H   H1101     1.0  0.62599  0.07660  0.66164  1.0000
  S   S286      1.0  0.97952  0.30095  0.73113  1.0000
  C   C691      1.0  0.91335  0.22808  0.71621  1.0000
  C   C692      1.0  0.77520  0.11762  0.57088  1.0000
  C   C693      1.0  0.76156  0.12967  0.58258  1.0000
  C   C694      1.0  0.76343  0.12288  0.59879  1.0000
  C   C695      1.0  0.77846  0.10346  0.60343  1.0000
  C   C696      1.0  0.79266  0.09194  0.59170  1.0000
  C   C697      1.0  0.79129  0.09919  0.57548  1.0000
  H   H1102     1.0  0.74975  0.14454  0.57904  1.0000
  H   H1103     1.0  0.75325  0.13258  0.60772  1.0000
  H   H1104     1.0  0.80454  0.07706  0.59519  1.0000
  H   H1105     1.0  0.80190  0.08978  0.56657  1.0000
  H   H1106     1.0  0.77821  0.02361  0.71258  1.0000
  H   H1107     1.0  0.51886  0.13953  0.67105  1.0000
  C   C698      1.0  0.73719  0.02819  0.70365  1.0000
  H   H1108     1.0  0.76232  0.09339  0.71856  1.0000
  H   H1109     1.0  0.52125  0.32132  0.50300  1.0000
  C   C699      1.0  0.85649  0.02831  0.51233  1.0000
  C   C700      1.0  0.95042  0.25841  0.69332  1.0000
  H   H1110     1.0  0.57101  0.15908  0.70381  1.0000
  H   H1111     1.0  0.75180  0.04844  0.69519  1.0000
  C   C701      1.0  0.73918  0.09507  0.72193  1.0000
  C   C702      1.0  0.85680  0.18112  0.58874  1.0000
  H   H1112     1.0  0.88858  0.21956  0.72242  1.0000
  S   S287      1.0  0.68394  0.03510  0.69388  1.0000
  S   S288      1.0  0.88686  0.28174  0.74407  1.0000
  H   H1113     1.0  0.74263  0.11979  0.71829  1.0000
  C   C703      1.0  0.97100  0.27856  0.52264  1.0000
  H   H1114     1.0  0.96788  0.27385  0.70104  1.0000
  H   H1115     1.0  0.91689  0.22695  0.58055  1.0000
  H   H1116     1.0  0.60720  0.16344  0.66262  1.0000
  C   C704      1.0  0.89879  0.22530  0.57214  1.0000
  H   H1117     1.0  0.58080  0.20042  0.66338  1.0000
  C   C705      1.0  0.97249  0.23826  0.50650  1.0000
  N   N69       1.0  0.66237  0.07758  0.60565  1.0000
  C   C706      1.0  0.68510  0.06245  0.60545  1.0000
  C   C707      1.0  0.64655  0.07292  0.59084  1.0000
  C   C708      1.0  0.68031  0.11198  0.60687  1.0000
  C   C709      1.0  0.63750  0.06307  0.61942  1.0000
  H   H1118     1.0  0.91159  0.28838  0.69196  1.0000
  H   H1119     1.0  0.62942  0.08427  0.59057  1.0000
  H   H1120     1.0  0.93037  0.24271  0.72432  1.0000
  N   N70       1.0  0.56620  0.15717  0.67884  1.0000
  H   H1121     1.0  0.50858  0.22535  0.50282  1.0000
  H   H1122     1.0  0.63264  0.04720  0.58958  1.0000
  H   H1123     1.0  0.66374  0.12392  0.60788  1.0000
  H   H1124     1.0  0.69827  0.12408  0.59637  1.0000
  H   H1125     1.0  0.53730  0.11249  0.67033  1.0000
  H   H1126     1.0  0.89868  0.02535  0.50107  1.0000
  H   H1127     1.0  0.67228  0.03627  0.60522  1.0000
  H   H1128     1.0  0.95834  0.28619  0.53146  1.0000
  C   C710      1.0  0.59689  0.15434  0.67517  1.0000
  H   H1129     1.0  0.87101  0.14628  0.56827  1.0000
  C   C711      1.0  0.69760  0.08797  0.74278  1.0000
  H   H1130     1.0  0.89969  0.20512  0.68800  1.0000
  C   C712      1.0  0.72461  0.05317  0.74333  1.0000
  H   H1131     1.0  0.91224  0.23422  0.56007  1.0000
  H   H1132     1.0  0.96138  0.21448  0.50294  1.0000
  C   C713      1.0  0.00262  0.29955  0.51618  1.0000
  H   H1133     1.0  0.88356  0.26554  0.70880  1.0000
  C   C714      1.0  0.89440  0.22581  0.69029  1.0000
  C   C715      1.0  0.55360  0.14530  0.69562  1.0000
  C   C716      1.0  0.54227  0.13809  0.66853  1.0000
  S   S289      1.0  0.91612  0.22247  0.52661  1.0000
  H   H1134     1.0  0.90187  0.17895  0.55568  1.0000
  H   H1135     1.0  0.70339  0.07195  0.59485  1.0000
  H   H1136     1.0  0.66468  0.08354  0.58021  1.0000
  H   H1137     1.0  0.90743  0.17179  0.57605  1.0000
  H   H1138     1.0  0.55058  0.14658  0.65576  1.0000
  H   H1139     1.0  0.92510  0.28958  0.71133  1.0000
  N   N71       1.0  0.91677  0.24649  0.70078  1.0000
  H   H1140     1.0  0.54873  0.11981  0.69811  1.0000
  C   C717      1.0  0.57175  0.19084  0.67600  1.0000
  H   H1141     1.0  0.62390  0.03696  0.61920  1.0000
  H   H1142     1.0  0.72088  0.07928  0.71468  1.0000
  S   S290      1.0  0.53232  0.27338  0.74398  1.0000
  H   H1143     1.0  0.61961  0.07355  0.61974  1.0000
  C   C718      1.0  0.90889  0.27368  0.70331  1.0000
  H   H1144     1.0  0.86890  0.21615  0.69568  1.0000
  H   H1145     1.0  0.95717  0.23854  0.69117  1.0000
  S   S291      1.0  0.87152  0.06976  0.50632  1.0000
  C   C719      1.0  0.85021  0.19142  0.56129  1.0000
  C   C720      1.0  0.88921  0.17143  0.56795  1.0000
  H   H1146     1.0  0.53046  0.14724  0.69870  1.0000
  H   H1147     1.0  0.58972  0.20606  0.68357  1.0000
  C   C721      1.0  0.95579  0.24784  0.51786  1.0000
  N   N72       1.0  0.87377  0.19234  0.57254  1.0000
  H   H1148     1.0  0.89580  0.23902  0.67863  1.0000
  H   H1149     1.0  0.59331  0.12909  0.67682  1.0000
  C   C722      1.0  0.99136  0.33395  0.71681  1.0000
  C   C723      1.0  0.00417  0.25924  0.50007  1.0000
  H   H1150     1.0  0.69871  0.06675  0.61609  1.0000
  H   H1151     1.0  0.64848  0.06707  0.63081  1.0000
  H   H1152     1.0  0.67862  0.07191  0.73586  1.0000
  H   H1153     1.0  0.69996  0.11255  0.73977  1.0000
  N   N73       1.0  0.72874  0.08606  0.73909  1.0000
  S   S292      1.0  0.87725  0.15297  0.49648  1.0000
  H   H1154     1.0  0.70552  0.03596  0.73695  1.0000
  H   H1155     1.0  0.89345  0.24225  0.49939  1.0000
  C   C724      1.0  0.75209  0.01412  0.71352  1.0000
  C   C725      1.0  0.70346  0.01624  0.70491  1.0000
  H   H1156     1.0  0.74732  0.05048  0.74017  1.0000
  H   H1157     1.0  0.77698  0.10644  0.74609  1.0000
  H   H1158     1.0  0.56511  0.23036  0.49895  1.0000
  H   H1159     1.0  0.75802  0.13322  0.74501  1.0000
  Fe  Fe151     1.0  0.91628  0.17543  0.92297  1.0000
  S   S293      1.0  0.88689  0.20392  0.92317  1.0000
  S   S294      1.0  0.90522  0.12496  0.93221  1.0000
  S   S295      1.0  0.95428  0.26512  0.90722  1.0000
  Fe  Fe152     1.0  0.93030  0.24222  0.93176  1.0000
  S   S296      1.0  0.93026  0.27428  0.95079  1.0000
  Fe  Fe153     1.0  0.91266  0.22472  0.89858  1.0000
  S   S297      1.0  0.88334  0.22980  0.87888  1.0000
  S   S298      1.0  0.95734  0.21201  0.93369  1.0000
  S   S299      1.0  0.93824  0.19290  0.89786  1.0000
  C   C726      1.0  0.60930  0.31182  0.78814  1.0000
  H   H1160     1.0  0.66056  0.33400  0.81676  1.0000
  H   H1161     1.0  0.74595  0.10249  0.76125  1.0000
  Fe  Fe154     1.0  0.54242  0.27484  0.76949  1.0000
  H   H1162     1.0  0.84470  0.30520  0.82014  1.0000
  Fe  Fe155     1.0  0.50676  0.30407  0.74977  1.0000
  H   H1163     1.0  0.84173  0.01389  0.92385  1.0000
  Fe  Fe156     1.0  0.91280  0.25902  0.78435  1.0000
  H   H1164     1.0  0.90261  0.19292  0.99621  1.0000
  S   S300      1.0  0.93616  0.25014  0.80579  1.0000
  Fe  Fe157     1.0  0.88396  0.29937  0.76794  1.0000
  H   H1165     1.0  0.94070  0.13017  0.89953  1.0000
  H   H1166     1.0  0.80151  0.05160  0.94512  1.0000
  S   S301      1.0  0.86140  0.25090  0.78179  1.0000
  S   S302      1.0  0.91790  0.23785  0.76189  1.0000
  C   C727      1.0  0.60440  0.33941  0.78569  1.0000
  H   H1167     1.0  0.59647  0.32100  0.83257  1.0000
  N   N74       1.0  0.98903  0.13708  0.90349  1.0000
  Fe  Fe158     1.0  0.86836  0.23383  0.75811  1.0000
  H   H1168     1.0  0.63149  0.34165  0.92804  1.0000
  H   H1169     1.0  0.85933  0.26397  0.98215  1.0000
  H   H1170     1.0  0.63330  0.28864  0.80140  1.0000
  H   H1171     1.0  0.81873  0.28308  0.78765  1.0000
  C   C728      1.0  0.00434  0.16080  0.88950  1.0000
  N   N75       1.0  0.89545  0.32740  0.82300  1.0000
  C   C729      1.0  0.73485  0.30582  0.77479  1.0000
  Fe  Fe159     1.0  0.97771  0.23130  0.90859  1.0000
  C   C730      1.0  0.57478  0.31072  0.84147  1.0000
  H   H1172     1.0  0.73452  0.29245  0.76438  1.0000
  H   H1173     1.0  0.95397  0.10338  0.89040  1.0000
  C   C731      1.0  0.79622  0.04578  0.95821  1.0000
  H   H1174     1.0  0.53319  0.26698  0.82478  1.0000
  H   H1175     1.0  0.81990  0.23261  0.98140  1.0000
  H   H1176     1.0  0.99097  0.28239  0.97486  1.0000
  C   C732      1.0  0.89778  0.23375  0.85861  1.0000
  C   C733      1.0  0.92979  0.23953  0.85391  1.0000
  C   C734      1.0  0.94092  0.24391  0.83768  1.0000
  C   C735      1.0  0.92021  0.24246  0.82599  1.0000
  C   C736      1.0  0.88798  0.23603  0.83066  1.0000
  C   C737      1.0  0.87689  0.23191  0.84692  1.0000
  H   H1177     1.0  0.94611  0.24105  0.86278  1.0000
  H   H1178     1.0  0.96587  0.24879  0.83415  1.0000
  H   H1179     1.0  0.87168  0.23429  0.82176  1.0000
  H   H1180     1.0  0.85200  0.22712  0.85049  1.0000
  C   C738      1.0  0.92324  0.26016  0.97112  1.0000
  C   C739      1.0  0.92683  0.28159  0.98252  1.0000
  C   C740      1.0  0.91472  0.22821  0.97611  1.0000
  H   H1181     1.0  0.93382  0.30644  0.97872  1.0000
  H   H1182     1.0  0.91207  0.21153  0.96743  1.0000
  C   C741      1.0  0.82059  0.04404  0.91442  1.0000
  C   C742      1.0  0.84403  0.03796  0.92187  1.0000
  C   C743      1.0  0.87008  0.06305  0.92721  1.0000
  C   C744      1.0  0.87326  0.09436  0.92471  1.0000
  C   C745      1.0  0.85053  0.10059  0.91671  1.0000
  C   C746      1.0  0.82405  0.07540  0.91171  1.0000
  H   H1183     1.0  0.88773  0.05819  0.93335  1.0000
  H   H1184     1.0  0.85290  0.12472  0.91472  1.0000
  H   H1185     1.0  0.80597  0.08025  0.90596  1.0000
  H   H1186     1.0  0.99829  0.28793  0.93791  1.0000
  H   H1187     1.0  0.58931  0.34125  0.77680  1.0000
  S   S303      1.0  0.52086  0.30880  0.77463  1.0000
  C   C747      1.0  0.62037  0.34404  0.93969  1.0000
  H   H1188     1.0  0.65528  0.32573  0.95906  1.0000
  H   H1189     1.0  0.00169  0.31821  0.95052  1.0000
  H   H1190     1.0  0.98427  0.25081  0.96263  1.0000
  C   C748      1.0  0.78917  0.29936  0.80204  1.0000
  H   H1191     1.0  0.77276  0.02889  0.87658  1.0000
  C   C749      1.0  0.81541  0.30352  0.79111  1.0000
  H   H1192     1.0  0.71753  0.04572  0.75626  1.0000
  C   C750      1.0  0.78285  0.01682  0.86835  1.0000
  H   H1193     1.0  0.85884  0.28092  0.83175  1.0000
  H   H1194     1.0  0.67040  0.28526  0.77988  1.0000
  S   S304      1.0  0.83453  0.18795  0.74913  1.0000
  C   C751      1.0  0.95525  0.11628  0.90108  1.0000
  H   H1195     1.0  0.99127  0.17602  0.88755  1.0000
  S   S305      1.0  0.75041  0.31937  0.81954  1.0000
  C   C752      1.0  0.86552  0.29900  0.82129  1.0000
  H   H1196     1.0  0.51293  0.27345  0.85174  1.0000
  C   C753      1.0  0.53879  0.29230  0.82114  1.0000
  H   H1197     1.0  0.68221  0.29259  0.75890  1.0000
  H   H1198     1.0  0.97578  0.16850  0.91651  1.0000
  H   H1199     1.0  0.83553  0.30115  0.98954  1.0000
  H   H1200     1.0  0.68866  0.08097  0.75559  1.0000
  N   N76       1.0  0.54610  0.31147  0.83475  1.0000
  C   C754      1.0  0.98932  0.15364  0.91778  1.0000
  H   H1201     1.0  0.61578  0.34285  0.97151  1.0000
  H   H1202     1.0  0.86833  0.28752  0.81057  1.0000
  H   H1203     1.0  0.79612  0.27012  0.98804  1.0000
  S   S306      1.0  0.58982  0.27900  0.77765  1.0000
  S   S307      1.0  0.66157  0.33415  0.99416  1.0000
  S   S308      1.0  0.93499  0.30876  0.77208  1.0000
  H   H1204     1.0  0.77234  0.27563  0.80699  1.0000
  H   H1205     1.0  0.72492  0.28834  0.78558  1.0000
  H   H1206     1.0  0.51761  0.29277  0.81558  1.0000
  H   H1207     1.0  0.78634  0.06219  0.96272  1.0000
  C   C755      1.0  0.81500  0.28022  0.99622  1.0000
  C   C756      1.0  0.00321  0.26984  0.96830  1.0000
  C   C757      1.0  0.92242  0.31811  0.82450  1.0000
  C   C758      1.0  0.62981  0.31011  0.79929  1.0000
  H   H1208     1.0  0.81977  0.05145  0.96308  1.0000
  H   H1209     1.0  0.57080  0.28597  0.84544  1.0000
  H   H1210     1.0  0.91773  0.30117  0.83527  1.0000
  H   H1211     1.0  0.58088  0.32479  0.85183  1.0000
  C   C759      1.0  0.68284  0.30436  0.76992  1.0000
  C   C760      1.0  0.64518  0.33577  0.80804  1.0000
  H   H1212     1.0  0.70350  0.32271  0.79789  1.0000
  H   H1213     1.0  0.75432  0.02060  0.98476  1.0000
  H   H1214     1.0  0.92622  0.30632  0.81406  1.0000
  C   C761      1.0  0.83698  0.33408  0.78458  1.0000
  C   C762      1.0  0.90941  0.21773  0.99241  1.0000
  C   C763      1.0  0.78449  0.32570  0.80653  1.0000
  H   H1215     1.0  0.66799  0.31805  0.76866  1.0000
  H   H1216     1.0  0.73148  0.02286  0.85777  1.0000
  H   H1217     1.0  0.80210  0.03554  0.85991  1.0000
  H   H1218     1.0  0.94287  0.09829  0.91150  1.0000
  C   C764      1.0  0.75343  0.10799  0.74826  1.0000
  H   H1219     1.0  0.55956  0.30133  0.81174  1.0000
  H   H1220     1.0  0.73124  0.02058  0.95925  1.0000
  H   H1221     1.0  0.88447  0.32474  0.84822  1.0000
  C   C765      1.0  0.51806  0.29820  0.84705  1.0000
  C   C766      1.0  0.83857  0.24433  0.98945  1.0000
  N   N77       1.0  0.71632  0.32509  0.77283  1.0000
  H   H1222     1.0  0.97764  0.13658  0.92858  1.0000
  H   H1223     1.0  0.00467  0.14929  0.87847  1.0000
  S   S309      1.0  0.87050  0.34022  0.77114  1.0000
  S   S310      1.0  0.78528  0.01285  0.90970  1.0000
  H   H1224     1.0  0.99635  0.09954  0.91617  1.0000
  C   C767      1.0  0.71574  0.34057  0.78741  1.0000
  Fe  Fe160     1.0  0.93609  0.28706  0.74941  1.0000
  H   H1225     1.0  0.94560  0.33902  0.82540  1.0000
  C   C768      1.0  0.89050  0.34181  0.83735  1.0000
  H   H1226     1.0  0.76090  0.02881  0.84126  1.0000
  H   H1227     1.0  0.76065  0.32104  0.77617  1.0000
  H   H1228     1.0  0.60635  0.31964  0.94586  1.0000
  H   H1229     1.0  0.52227  0.31250  0.85734  1.0000
  H   H1230     1.0  0.84744  0.22669  0.99392  1.0000
  C   C769      1.0  0.55279  0.34468  0.82935  1.0000
  H   H1231     1.0  0.53177  0.34608  0.82407  1.0000
  H   H1232     1.0  0.90707  0.34035  0.79784  1.0000
  H   H1233     1.0  0.73320  0.33896  0.74805  1.0000
  H   H1234     1.0  0.51751  0.44274  0.11398  1.0000
  S   S311      1.0  0.00375  0.64177  0.18897  1.0000
  Fe  Fe161     1.0  0.75044  0.44280  0.00033  1.0000
  Fe  Fe162     1.0  0.65357  0.63819  0.15624  1.0000
  S   S312      1.0  0.62978  0.58423  0.15863  1.0000
  S   S313      1.0  0.70021  0.66016  0.16724  1.0000
  H   H1235     1.0  0.65726  0.63096  0.22383  1.0000
  N   N78       1.0  0.99979  0.54574  0.14633  1.0000
  H   H1236     1.0  0.81243  0.47223  0.04554  1.0000
  Fe  Fe163     1.0  0.87892  0.61466  0.05068  1.0000
  S   S314      1.0  0.84040  0.63069  0.04562  1.0000
  S   S315      1.0  0.88090  0.57209  0.04028  1.0000
  C   C770      1.0  0.84515  0.35849  0.01703  1.0000
  H   H1237     1.0  0.81441  0.58264  0.01247  1.0000
  Fe  Fe164     1.0  0.84069  0.64104  0.07104  1.0000
  S   S316      1.0  0.79364  0.62424  0.08684  1.0000
  H   H1238     1.0  0.55826  0.48098  0.14799  1.0000
  S   S317      1.0  0.87588  0.62060  0.07668  1.0000
  C   C771      1.0  0.64010  0.36691  0.01408  1.0000
  H   H1239     1.0  0.81815  0.38339  0.04272  1.0000
  H   H1240     1.0  0.85002  0.46644  0.02386  1.0000
  C   C772      1.0  0.53891  0.46554  0.14114  1.0000
  S   S318      1.0  0.74953  0.47806  0.01704  1.0000
  S   S319      1.0  0.74333  0.39400  0.00998  1.0000
  H   H1241     1.0  0.62290  0.39158  0.03026  1.0000
  C   C773      1.0  0.94471  0.64607  0.10547  1.0000
  C   C774      1.0  0.94920  0.63256  0.11989  1.0000
  C   C775      1.0  0.97214  0.65120  0.12949  1.0000
  C   C776      1.0  0.96288  0.67845  0.10065  1.0000
  H   H1242     1.0  0.86390  0.42942  0.05075  1.0000
  H   H1243     1.0  0.92718  0.63145  0.09811  1.0000
  H   H1244     1.0  0.93481  0.60755  0.12361  1.0000
  C   C777      1.0  0.53418  0.56225  0.16859  1.0000
  C   C778      1.0  0.58393  0.34848  0.02499  1.0000
  C   C779      1.0  0.84441  0.54642  0.03368  1.0000
  C   C780      1.0  0.81487  0.54505  0.04011  1.0000
  C   C781      1.0  0.78591  0.52428  0.03473  1.0000
  C   C782      1.0  0.78637  0.50489  0.02288  1.0000
  C   C783      1.0  0.81598  0.50660  0.01627  1.0000
  C   C784      1.0  0.84495  0.52718  0.02176  1.0000
  H   H1245     1.0  0.81421  0.55954  0.04945  1.0000
  H   H1246     1.0  0.76304  0.52297  0.03992  1.0000
  H   H1247     1.0  0.81657  0.49185  0.00709  1.0000
  H   H1248     1.0  0.86784  0.52836  0.01669  1.0000
  H   H1249     1.0  0.87435  0.64498  0.01211  1.0000
  H   H1250     1.0  0.77986  0.44027  0.03819  1.0000
  H   H1251     1.0  0.85412  0.61535  0.13875  1.0000
  C   C785      1.0  0.78551  0.65050  0.09843  1.0000
  C   C786      1.0  0.75792  0.63837  0.10949  1.0000
  C   C787      1.0  0.75189  0.65816  0.11975  1.0000
  H   H1252     1.0  0.74142  0.61342  0.11032  1.0000
  H   H1253     1.0  0.73075  0.64850  0.12840  1.0000
  C   C788      1.0  0.58775  0.56362  0.16412  1.0000
  C   C789      1.0  0.57415  0.53055  0.16810  1.0000
  C   C790      1.0  0.54056  0.51330  0.17214  1.0000
  H   H1254     1.0  0.57518  0.48152  0.11306  1.0000
  H   H1255     1.0  0.85101  0.42849  0.02268  1.0000
  C   C791      1.0  0.56769  0.57945  0.16448  1.0000
  H   H1256     1.0  0.58964  0.51824  0.16804  1.0000
  H   H1257     1.0  0.89144  0.66800  0.14622  1.0000
  H   H1258     1.0  0.81690  0.65116  0.12639  1.0000
  H   H1259     1.0  0.81613  0.43392  0.01774  1.0000
  H   H1260     1.0  0.88023  0.62195  0.12081  1.0000
  H   H1261     1.0  0.61555  0.62863  0.20657  1.0000
  H   H1262     1.0  0.52063  0.52136  0.12187  1.0000
  H   H1263     1.0  0.57786  0.60490  0.16140  1.0000
  C   C792      1.0  0.80228  0.39567  0.04518  1.0000
  C   C793      1.0  0.51073  0.46176  0.11783  1.0000
  C   C794      1.0  0.62180  0.61225  0.19951  1.0000
  H   H1264     1.0  0.65284  0.55834  0.20600  1.0000
  H   H1265     1.0  0.85378  0.65998  0.10128  1.0000
  H   H1266     1.0  0.67335  0.60167  0.22372  1.0000
  C   C795      1.0  0.98410  0.37233  0.11874  1.0000
  N   N79       1.0  0.63425  0.59330  0.20926  1.0000
  H   H1267     1.0  0.62205  0.55665  0.19350  1.0000
  H   H1268     1.0  0.91737  0.67475  0.12826  1.0000
  Fe  Fe165     1.0  0.91391  0.67018  0.06944  1.0000
  C   C796      1.0  0.87423  0.67318  0.10814  1.0000
  H   H1269     1.0  0.86142  0.46681  0.05175  1.0000
  C   C797      1.0  0.66308  0.61496  0.21628  1.0000
  H   H1270     1.0  0.66206  0.58760  0.18924  1.0000
  H   H1271     1.0  0.54513  0.44589  0.13779  1.0000
  H   H1272     1.0  0.99555  0.38763  0.09363  1.0000
  C   C798      1.0  0.97988  0.36887  0.10261  1.0000
  S   S320      1.0  0.63198  0.66818  0.16726  1.0000
  N   N80       1.0  0.53532  0.48370  0.12704  1.0000
  C   C799      1.0  0.60889  0.57316  0.22203  1.0000
  S   S321      1.0  0.92010  0.66275  0.04370  1.0000
  H   H1273     1.0  0.87362  0.60619  0.01385  1.0000
  H   H1274     1.0  0.66503  0.38428  0.01331  1.0000
  H   H1275     1.0  0.59995  0.59692  0.19401  1.0000
  H   H1276     1.0  0.50927  0.37120  0.11321  1.0000
  S   S322      1.0  0.97565  0.63339  0.14782  1.0000
  H   H1277     1.0  0.83705  0.43349  0.06601  1.0000
  H   H1278     1.0  0.97427  0.54955  0.16778  1.0000
  C   C800      1.0  0.87576  0.62606  0.00518  1.0000
  H   H1279     1.0  0.00280  0.39376  0.12214  1.0000
  N   N81       1.0  0.82081  0.43060  0.04276  1.0000
  S   S323      1.0  0.67303  0.67088  0.13355  1.0000
  H   H1280     1.0  0.53023  0.48784  0.17523  1.0000
  H   H1281     1.0  0.68250  0.63080  0.20690  1.0000
  C   C801      1.0  0.61623  0.37102  0.02368  1.0000
  C   C802      1.0  0.97453  0.51422  0.14391  1.0000
  H   H1282     1.0  0.97517  0.50987  0.13119  1.0000
  C   C803      1.0  0.52045  0.52911  0.17224  1.0000
  H   H1283     1.0  0.81559  0.62171  0.01063  1.0000
  H   H1284     1.0  0.64037  0.62726  0.18974  1.0000
  H   H1285     1.0  0.97054  0.57042  0.14079  1.0000
  H   H1286     1.0  0.78280  0.38735  0.03716  1.0000
  C   C804      1.0  0.85959  0.62601  0.12619  1.0000
  H   H1287     1.0  0.50732  0.47447  0.10705  1.0000
  H   H1288     1.0  0.60158  0.58791  0.22980  1.0000
  H   H1289     1.0  0.58679  0.55670  0.21705  1.0000
  C   C805      1.0  0.56667  0.49930  0.11705  1.0000
  H   H1290     1.0  0.97790  0.49474  0.15076  1.0000
  C   C806      1.0  0.81847  0.36096  0.01099  1.0000
  C   C807      1.0  0.89568  0.67729  0.13346  1.0000
  C   C808      1.0  0.84694  0.44051  0.05330  1.0000
  H   H1291     1.0  0.61743  0.55848  0.22965  1.0000
  H   H1292     1.0  0.98034  0.61278  0.23578  1.0000
  H   H1293     1.0  0.56488  0.51321  0.10628  1.0000
  H   H1294     1.0  0.79074  0.38737  0.05759  1.0000
  C   C809      1.0  0.79895  0.44588  0.04648  1.0000
  C   C810      1.0  0.64321  0.57301  0.19912  1.0000
  H   H1295     1.0  0.78656  0.43799  0.05875  1.0000
  H   H1296     1.0  0.83826  0.61262  0.11979  1.0000
  C   C811      1.0  0.83513  0.44033  0.02606  1.0000
  H   H1297     1.0  0.54380  0.52599  0.13846  1.0000
  H   H1298     1.0  0.58577  0.51606  0.12366  1.0000
  H   H1299     1.0  0.90033  0.63565  0.99858  1.0000
  H   H1300     1.0  0.86941  0.37452  0.01199  1.0000
  H   H1301     1.0  0.94992  0.51208  0.14782  1.0000
  C   C812      1.0  0.99810  0.55037  0.16336  1.0000
  H   H1302     1.0  0.83350  0.65584  0.14506  1.0000
  H   H1303     1.0  0.89584  0.67120  0.10249  1.0000
  C   C813      1.0  0.83903  0.66452  0.13220  1.0000
  N   N82       1.0  0.86714  0.66027  0.12502  1.0000
  S   S324      1.0  0.55514  0.35345  0.03796  1.0000
  H   H1304     1.0  0.51606  0.45448  0.14929  1.0000
  H   H1305     1.0  0.51875  0.57464  0.16873  1.0000
  C   C814      1.0  0.52506  0.50816  0.13214  1.0000
  H   H1306     1.0  0.99580  0.56839  0.12414  1.0000
  H   H1307     1.0  0.00196  0.53181  0.17073  1.0000
  C   C815      1.0  0.99459  0.57091  0.13707  1.0000
  S   S325      1.0  0.97051  0.35014  0.15071  1.0000
  C   C816      1.0  0.96433  0.34795  0.13041  1.0000
  C   C817      1.0  0.81814  0.60314  0.00377  1.0000
  Fe  Fe166     1.0  0.88123  0.67936  0.04046  1.0000
  H   H1308     1.0  0.74768  0.49404  0.38116  1.0000
  Fe  Fe167     1.0  0.90330  0.53034  0.37786  1.0000
  S   S326      1.0  0.87083  0.51957  0.35794  1.0000
  S   S327      1.0  0.95862  0.55870  0.37008  1.0000
  Fe  Fe168     1.0  0.84306  0.50192  0.40196  1.0000
  S   S328      1.0  0.80893  0.49076  0.38340  1.0000
  S   S329      1.0  0.81403  0.48751  0.42571  1.0000
  Fe  Fe169     1.0  0.84103  0.47104  0.37193  1.0000
  S   S330      1.0  0.82032  0.42162  0.36216  1.0000
  Fe  Fe170     1.0  0.84126  0.53996  0.37216  1.0000
  S   S331      1.0  0.81524  0.57110  0.36421  1.0000
  S   S332      1.0  0.87482  0.48104  0.39100  1.0000
  S   S333      1.0  0.87429  0.55206  0.39140  1.0000
  H   H1309     1.0  0.73779  0.47091  0.40013  1.0000
  S   S334      1.0  0.67121  0.37040  0.46056  1.0000
  N   N83       1.0  0.73557  0.51616  0.40043  1.0000
  H   H1310     1.0  0.84412  0.54296  0.44340  1.0000
  H   H1311     1.0  0.78712  0.53873  0.39447  1.0000
  S   S335      1.0  0.51349  0.50902  0.41916  1.0000
  Fe  Fe171     1.0  0.98284  0.55418  0.42441  1.0000
  C   C818      1.0  0.61646  0.62648  0.42140  1.0000
  C   C819      1.0  0.98857  0.62492  0.40161  1.0000
  N   N84       1.0  0.60744  0.59337  0.41780  1.0000
  C   C820      1.0  0.65500  0.66506  0.35679  1.0000
  H   H1312     1.0  0.83969  0.66457  0.39504  1.0000
  H   H1313     1.0  0.65596  0.59752  0.41844  1.0000
  H   H1314     1.0  0.89414  0.43008  0.36981  1.0000
  S   S336      1.0  0.64386  0.65292  0.37726  1.0000
  H   H1315     1.0  0.86802  0.49232  0.46999  1.0000
  H   H1316     1.0  0.91664  0.59147  0.36055  1.0000
  C   C821      1.0  0.98289  0.39512  0.38585  1.0000
  Fe  Fe172     1.0  0.95008  0.48832  0.44388  1.0000
  S   S337      1.0  0.95620  0.50430  0.41775  1.0000
  S   S338      1.0  0.90056  0.45247  0.45736  1.0000
  S   S339      1.0  0.97495  0.53849  0.45063  1.0000
  S   S340      1.0  0.68088  0.37493  0.41573  1.0000
  C   C822      1.0  0.55221  0.37230  0.46938  1.0000
  C   C823      1.0  0.52918  0.38569  0.46946  1.0000
  H   H1317     1.0  0.92874  0.60703  0.33153  1.0000
  S   S341      1.0  0.99759  0.48317  0.44312  1.0000
  H   H1318     1.0  0.97508  0.42279  0.40387  1.0000
  H   H1319     1.0  0.88344  0.52898  0.42835  1.0000
  H   H1320     1.0  0.74654  0.54552  0.37828  1.0000
  H   H1321     1.0  0.77409  0.51556  0.41339  1.0000
  C   C824      1.0  0.78984  0.38554  0.46970  1.0000
  C   C825      1.0  0.81287  0.38962  0.48049  1.0000
  C   C826      1.0  0.84597  0.40991  0.47641  1.0000
  C   C827      1.0  0.85755  0.42685  0.46131  1.0000
  C   C828      1.0  0.83468  0.42292  0.45029  1.0000
  C   C829      1.0  0.80108  0.40253  0.45447  1.0000
  H   H1322     1.0  0.86281  0.41239  0.48512  1.0000
  H   H1323     1.0  0.84270  0.43545  0.43851  1.0000
  H   H1324     1.0  0.78398  0.39996  0.44588  1.0000
  C   C830      1.0  0.79449  0.37966  0.36758  1.0000
  H   H1325     1.0  0.79509  0.37014  0.34315  1.0000
  C   C831      1.0  0.77759  0.45456  0.42385  1.0000
  C   C832      1.0  0.74923  0.45039  0.43300  1.0000
  C   C833      1.0  0.71941  0.42635  0.43027  1.0000
  C   C834      1.0  0.71790  0.40615  0.41854  1.0000
  C   C835      1.0  0.74627  0.41016  0.40950  1.0000
  C   C836      1.0  0.77612  0.43406  0.41229  1.0000
  H   H1326     1.0  0.75022  0.46607  0.44199  1.0000
  H   H1327     1.0  0.69750  0.42371  0.43713  1.0000
  H   H1328     1.0  0.74523  0.39450  0.40050  1.0000
  H   H1329     1.0  0.79803  0.43653  0.40546  1.0000
  C   C837      1.0  0.80920  0.60392  0.37160  1.0000
  C   C838      1.0  0.78534  0.61220  0.36570  1.0000
  C   C839      1.0  0.78055  0.63864  0.37054  1.0000
  C   C840      1.0  0.80024  0.65810  0.38106  1.0000
  C   C841      1.0  0.82401  0.64971  0.38703  1.0000
  C   C842      1.0  0.82806  0.62260  0.38261  1.0000
  H   H1330     1.0  0.77073  0.59838  0.35705  1.0000
  H   H1331     1.0  0.64633  0.60638  0.39917  1.0000
  C   C843      1.0  0.65258  0.64264  0.34618  1.0000
  H   H1332     1.0  0.84657  0.61691  0.38733  1.0000
  C   C844      1.0  0.92930  0.61705  0.36230  1.0000
  C   C845      1.0  0.89208  0.62984  0.34766  1.0000
  N   N85       1.0  0.92653  0.63757  0.34900  1.0000
  C   C846      1.0  0.59465  0.57166  0.43263  1.0000
  H   H1333     1.0  0.87836  0.60462  0.34541  1.0000
  H   H1334     1.0  0.91880  0.62060  0.37381  1.0000
  H   H1335     1.0  0.91141  0.51891  0.43849  1.0000
  H   H1336     1.0  0.89894  0.46806  0.36097  1.0000
  C   C847      1.0  0.54975  0.34898  0.48156  1.0000
  H   H1337     1.0  0.66555  0.63533  0.32237  1.0000
  H   H1338     1.0  0.63038  0.56587  0.40771  1.0000
  H   H1339     1.0  0.54167  0.48988  0.44516  1.0000
  H   H1340     1.0  0.53153  0.40380  0.46017  1.0000
  H   H1341     1.0  0.64102  0.61755  0.35029  1.0000
  H   H1342     1.0  0.93854  0.45390  0.38669  1.0000
  H   H1343     1.0  0.76255  0.64482  0.36554  1.0000
  H   H1344     1.0  0.59083  0.60080  0.39543  1.0000
  N   N86       1.0  0.94325  0.46245  0.36118  1.0000
  C   C848      1.0  0.71222  0.50671  0.41481  1.0000
  C   C849      1.0  0.90799  0.44942  0.36013  1.0000
  C   C850      1.0  0.00216  0.57563  0.37042  1.0000
  S   S342      1.0  0.96734  0.59367  0.41711  1.0000
  C   C851      1.0  0.72967  0.53863  0.38939  1.0000
  C   C852      1.0  0.97391  0.64387  0.39546  1.0000
  H   H1345     1.0  0.91020  0.51794  0.46764  1.0000
  H   H1346     1.0  0.94954  0.63908  0.40012  1.0000
  H   H1347     1.0  0.68684  0.49485  0.41187  1.0000
  C   C853      1.0  0.78250  0.36521  0.38324  1.0000
  H   H1348     1.0  0.70462  0.52802  0.38591  1.0000
  H   H1349     1.0  0.57535  0.55995  0.40349  1.0000
  C   C854      1.0  0.51884  0.49148  0.44731  1.0000
  H   H1350     1.0  0.73348  0.56100  0.39471  1.0000
  H   H1351     1.0  0.83007  0.50672  0.45630  1.0000
  H   H1352     1.0  0.71465  0.52764  0.42115  1.0000
  C   C855      1.0  0.51427  0.51605  0.43871  1.0000
  H   H1353     1.0  0.63560  0.63401  0.42965  1.0000
  H   H1354     1.0  0.86951  0.49227  0.44097  1.0000
  C   C856      1.0  0.99019  0.42304  0.39344  1.0000
  H   H1355     1.0  0.61307  0.57712  0.44122  1.0000
  C   C857      1.0  0.88581  0.51781  0.46813  1.0000
  C   C858      1.0  0.84851  0.53194  0.45449  1.0000
  H   H1356     1.0  0.95589  0.48198  0.33671  1.0000
  N   N87       1.0  0.88164  0.53382  0.45340  1.0000
  H   H1357     1.0  0.59529  0.62948  0.42691  1.0000
  C   C859      1.0  0.63630  0.59059  0.41049  1.0000
  H   H1358     1.0  0.95214  0.50870  0.35022  1.0000
  H   H1359     1.0  0.55981  0.58558  0.41193  1.0000
  C   C860      1.0  0.95445  0.43738  0.35880  1.0000
  H   H1360     1.0  0.00366  0.54678  0.39093  1.0000
  H   H1361     1.0  0.58689  0.54639  0.43025  1.0000
  C   C861      1.0  0.00215  0.39486  0.37223  1.0000
  C   C862      1.0  0.58231  0.58462  0.40668  1.0000
  H   H1362     1.0  0.88248  0.52930  0.47873  1.0000
  H   H1363     1.0  0.90147  0.43935  0.34868  1.0000
  H   H1364     1.0  0.97691  0.48420  0.37801  1.0000
  H   H1365     1.0  0.95505  0.62200  0.36351  1.0000
  H   H1366     1.0  0.94924  0.42812  0.34708  1.0000
  H   H1367     1.0  0.94219  0.49243  0.37923  1.0000
  H   H1368     1.0  0.94242  0.41679  0.36807  1.0000
  C   C863      1.0  0.73165  0.48760  0.39252  1.0000
  C   C864      1.0  0.78614  0.35985  0.35528  1.0000
  H   H1369     1.0  0.98099  0.44651  0.35932  1.0000
  C   C865      1.0  0.99064  0.66906  0.38331  1.0000
  C   C866      1.0  0.95043  0.47361  0.37698  1.0000
  Fe  Fe173     1.0  0.00454  0.50201  0.41727  1.0000
  H   H1370     1.0  0.90310  0.57990  0.43999  1.0000
  H   H1371     1.0  0.70638  0.47425  0.38971  1.0000
  H   H1372     1.0  0.93060  0.56981  0.45040  1.0000
  H   H1373     1.0  0.96720  0.63748  0.33482  1.0000
  H   H1374     1.0  0.90216  0.58060  0.46121  1.0000
  C   C867      1.0  0.66684  0.65274  0.33044  1.0000
  C   C868      1.0  0.94125  0.63220  0.33410  1.0000
  H   H1375     1.0  0.77287  0.55366  0.41072  1.0000
  S   S343      1.0  0.99130  0.35892  0.36316  1.0000
  H   H1376     1.0  0.96201  0.37353  0.39052  1.0000
  H   H1377     1.0  0.93339  0.67602  0.36318  1.0000
  C   C869      1.0  0.88671  0.51786  0.43970  1.0000
  H   H1378     1.0  0.84395  0.54414  0.46455  1.0000
  C   C870      1.0  0.96028  0.48948  0.34882  1.0000
  H   H1379     1.0  0.71610  0.48961  0.42328  1.0000
  C   C871      1.0  0.76882  0.53170  0.40498  1.0000
  H   H1380     1.0  0.78902  0.37968  0.39299  1.0000
  C   C872      1.0  0.90536  0.56753  0.45123  1.0000
  S   S344      1.0  0.74813  0.35848  0.47631  1.0000
  H   H1381     1.0  0.88920  0.64517  0.33781  1.0000
  C   C873      1.0  0.94353  0.67124  0.35189  1.0000
  H   H1382     1.0  0.57199  0.38031  0.46003  1.0000
  H   H1383     1.0  0.62610  0.64348  0.41044  1.0000
  H   H1384     1.0  0.57309  0.57346  0.43854  1.0000
  H   H1385     1.0  0.98689  0.50028  0.34955  1.0000
  S   S345      1.0  0.71466  0.67728  0.40685  1.0000
  H   H1386     1.0  0.93999  0.64768  0.32383  1.0000
  H   H1387     1.0  0.88019  0.63347  0.35873  1.0000
  H   H1388     1.0  0.99032  0.61080  0.26421  1.0000
  H   H1389     1.0  0.98300  0.56491  0.24899  1.0000
  H   H1390     1.0  0.96980  0.67819  0.35254  1.0000
  H   H1391     1.0  0.80500  0.37696  0.49226  1.0000
  H   H1392     1.0  0.65602  0.34681  0.38715  1.0000
  H   H1393     1.0  0.97695  0.39838  0.70638  1.0000
  H   H1394     1.0  0.96203  0.60946  0.66673  1.0000
  H   H1395     1.0  0.52168  0.38448  0.61699  1.0000
  H   H1396     1.0  0.75310  0.63967  0.72974  1.0000
  H   H1397     1.0  0.97955  0.58342  0.69758  1.0000
  H   H1398     1.0  0.80681  0.65911  0.70182  1.0000
  N   N88       1.0  0.98257  0.62857  0.68778  1.0000
  C   C874      1.0  0.97187  0.63582  0.70324  1.0000
  H   H1399     1.0  0.99219  0.64501  0.71072  1.0000
  C   C875      1.0  0.73533  0.62019  0.73840  1.0000
  S   S346      1.0  0.63602  0.65928  0.64325  1.0000
  H   H1400     1.0  0.94314  0.63142  0.67647  1.0000
  C   C876      1.0  0.56850  0.55978  0.66724  1.0000
  C   C877      1.0  0.56247  0.57092  0.65268  1.0000
  C   C878      1.0  0.58327  0.60155  0.64548  1.0000
  C   C879      1.0  0.61020  0.62116  0.65276  1.0000
  C   C880      1.0  0.61605  0.61009  0.66738  1.0000
  C   C881      1.0  0.59521  0.57953  0.67460  1.0000
  H   H1401     1.0  0.54201  0.55588  0.64690  1.0000
  H   H1402     1.0  0.57861  0.60995  0.63417  1.0000
  H   H1403     1.0  0.63677  0.62496  0.67306  1.0000
  H   H1404     1.0  0.60003  0.57103  0.68585  1.0000
  H   H1405     1.0  0.50834  0.41197  0.62532  1.0000
  H   H1406     1.0  0.76239  0.57867  0.73801  1.0000
  H   H1407     1.0  0.93573  0.59216  0.68484  1.0000
  H   H1408     1.0  0.96253  0.65433  0.70171  1.0000
  H   H1409     1.0  0.71745  0.62870  0.74317  1.0000
  S   S347      1.0  0.54287  0.52171  0.67684  1.0000
  H   H1410     1.0  0.99702  0.67576  0.67614  1.0000
  H   H1411     1.0  0.65673  0.66515  0.58646  1.0000
  H   H1412     1.0  0.52895  0.56936  0.69582  1.0000
  H   H1413     1.0  0.72240  0.59969  0.73163  1.0000
  H   H1414     1.0  0.51924  0.40574  0.71755  1.0000
  C   C882      1.0  0.99690  0.60570  0.69042  1.0000
  H   H1415     1.0  0.95237  0.61437  0.71008  1.0000
  S   S348      1.0  0.51591  0.35115  0.73634  1.0000
  H   H1416     1.0  0.79347  0.61870  0.73556  1.0000
  C   C883      1.0  0.98811  0.38198  0.70599  1.0000
  C   C884      1.0  0.95458  0.61475  0.67855  1.0000
  C   C885      1.0  0.97672  0.35493  0.71715  1.0000
  C   C886      1.0  0.77469  0.60010  0.74427  1.0000
  C   C887      1.0  0.50991  0.57681  0.70025  1.0000
  H   H1417     1.0  0.83516  0.67893  0.72551  1.0000
  H   H1418     1.0  0.51674  0.60128  0.69454  1.0000
  H   H1419     1.0  0.67850  0.66760  0.61276  1.0000
  H   H1420     1.0  0.95698  0.35063  0.72613  1.0000
  H   H1421     1.0  0.62998  0.67659  0.61011  1.0000
  S   S349      1.0  0.76162  0.67446  0.68555  1.0000
  C   C888      1.0  0.80342  0.67768  0.70761  1.0000
  H   H1422     1.0  0.51085  0.57796  0.71326  1.0000
  H   H1423     1.0  0.50742  0.35256  0.64351  1.0000
  H   H1424     1.0  0.00449  0.59910  0.67897  1.0000
  S   S350      1.0  0.79187  0.45090  0.98232  1.0000
  H   H1425     1.0  0.83625  0.45604  0.85495  1.0000
  Fe  Fe174     1.0  0.75405  0.42891  0.96583  1.0000
  S   S351      1.0  0.75650  0.45230  0.94126  1.0000
  Fe  Fe175     1.0  0.69958  0.39374  0.82888  1.0000
  S   S352      1.0  0.74486  0.40294  0.81327  1.0000
  H   H1426     1.0  0.75047  0.38853  0.93799  1.0000
  Fe  Fe176     1.0  0.72721  0.38373  0.85934  1.0000
  S   S353      1.0  0.77468  0.39175  0.84619  1.0000
  S   S354      1.0  0.71661  0.36494  0.88533  1.0000
  Fe  Fe177     1.0  0.77016  0.43232  0.83227  1.0000
  S   S355      1.0  0.81469  0.47901  0.82746  1.0000
  Fe  Fe178     1.0  0.74525  0.36179  0.82845  1.0000
  S   S356      1.0  0.72470  0.42661  0.84683  1.0000
  C   C889      1.0  0.85264  0.58998  0.98566  1.0000
  H   H1427     1.0  0.61530  0.38612  0.79284  1.0000
  H   H1428     1.0  0.91260  0.36331  0.83905  1.0000
  C   C890      1.0  0.66334  0.39621  0.94074  1.0000
  Fe  Fe179     1.0  0.84102  0.63749  0.78039  1.0000
  S   S357      1.0  0.79807  0.59003  0.78709  1.0000
  H   H1429     1.0  0.82002  0.42544  0.87131  1.0000
  H   H1430     1.0  0.72075  0.42831  0.88873  1.0000
  H   H1431     1.0  0.80246  0.37670  0.80337  1.0000
  C   C891      1.0  0.80993  0.50967  0.81615  1.0000
  C   C892      1.0  0.83654  0.53922  0.81222  1.0000
  C   C893      1.0  0.83324  0.56404  0.80328  1.0000
  C   C894      1.0  0.80325  0.55945  0.79828  1.0000
  C   C895      1.0  0.77664  0.52989  0.80224  1.0000
  C   C896      1.0  0.77995  0.50505  0.81114  1.0000
  H   H1432     1.0  0.85981  0.54290  0.81602  1.0000
  H   H1433     1.0  0.85391  0.58665  0.80026  1.0000
  H   H1434     1.0  0.75336  0.52614  0.79843  1.0000
  H   H1435     1.0  0.75928  0.48235  0.81412  1.0000
  H   H1436     1.0  0.84281  0.51062  0.85865  1.0000
  H   H1437     1.0  0.84881  0.38413  0.78392  1.0000
  C   C897      1.0  0.73508  0.37825  0.91479  1.0000
  C   C898      1.0  0.72750  0.38967  0.90069  1.0000
  H   H1438     1.0  0.67503  0.39508  0.92901  1.0000
  C   C899      1.0  0.74404  0.39733  0.92730  1.0000
  C   C900      1.0  0.74532  0.42789  0.92580  1.0000
  C   C901      1.0  0.72793  0.41993  0.89932  1.0000
  N   N89       1.0  0.82007  0.47019  0.87620  1.0000
  H   H1439     1.0  0.73765  0.46265  0.91070  1.0000
  S   S358      1.0  0.74828  0.37919  0.97249  1.0000
  C   C902      1.0  0.73721  0.43917  0.91180  1.0000
  C   C903      1.0  0.83468  0.45144  0.86810  1.0000
  H   H1440     1.0  0.73845  0.57876  0.77231  1.0000
  H   H1441     1.0  0.80681  0.47658  0.90011  1.0000
  H   H1442     1.0  0.77226  0.43592  0.87322  1.0000
  C   C904      1.0  0.80605  0.35629  0.80002  1.0000
  H   H1443     1.0  0.87656  0.59848  0.97848  1.0000
  H   H1444     1.0  0.74067  0.35557  0.79021  1.0000
  Fe  Fe180     1.0  0.78226  0.40061  0.99068  1.0000
  H   H1445     1.0  0.68712  0.36450  0.95938  1.0000
  H   H1446     1.0  0.84163  0.46812  0.89776  1.0000
  H   H1447     1.0  0.78852  0.46941  0.85848  1.0000
  S   S359      1.0  0.82498  0.39041  0.99542  1.0000
  C   C905      1.0  0.62952  0.36664  0.96467  1.0000
  N   N90       1.0  0.64525  0.36416  0.94935  1.0000
  H   H1448     1.0  0.68290  0.41180  0.94753  1.0000
  H   H1449     1.0  0.92577  0.37241  0.80966  1.0000
  H   H1450     1.0  0.85186  0.66198  0.98929  1.0000
  H   H1451     1.0  0.70271  0.35603  0.78629  1.0000
  C   C906      1.0  0.61938  0.36491  0.79465  1.0000
  C   C907      1.0  0.81754  0.46270  0.89358  1.0000
  H   H1452     1.0  0.75248  0.64991  0.76429  1.0000
  H   H1453     1.0  0.77476  0.47405  0.87791  1.0000
  H   H1454     1.0  0.87847  0.65308  0.97604  1.0000
  H   H1455     1.0  0.64766  0.38141  0.97232  1.0000
  H   H1456     1.0  0.86523  0.51166  0.87535  1.0000
  C   C908      1.0  0.63965  0.36304  0.80592  1.0000
  C   C909      1.0  0.83217  0.36042  0.78899  1.0000
  H   H1457     1.0  0.85956  0.45736  0.87129  1.0000
  H   H1458     1.0  0.55841  0.35987  0.83930  1.0000
  S   S360      1.0  0.71310  0.42500  0.98322  1.0000
  S   S361      1.0  0.69797  0.35043  0.84267  1.0000
  H   H1459     1.0  0.82980  0.51928  0.87747  1.0000
  H   H1460     1.0  0.83567  0.63546  0.97447  1.0000
  H   H1461     1.0  0.80176  0.43705  0.89728  1.0000
  C   C910      1.0  0.84042  0.50447  0.87176  1.0000
  C   C911      1.0  0.76883  0.63962  0.75954  1.0000
  S   S362      1.0  0.65624  0.39397  0.81792  1.0000
  H   H1462     1.0  0.79813  0.59484  0.99605  1.0000
  C   C912      1.0  0.78745  0.46202  0.87128  1.0000
  H   H1463     1.0  0.75716  0.36603  0.76118  1.0000
  S   S363      1.0  0.89030  0.65615  0.78893  1.0000
  H   H1464     1.0  0.88971  0.67555  0.82529  1.0000
  H   H1465     1.0  0.89708  0.66049  0.85288  1.0000
  H   H1466     1.0  0.83353  0.58118  0.97747  1.0000
  C   C913      1.0  0.72692  0.58603  0.76260  1.0000
  H   H1467     1.0  0.78747  0.59363  0.75362  1.0000
  Fe  Fe181     1.0  0.90840  0.67524  0.76336  1.0000
  H   H1468     1.0  0.78004  0.63354  0.76968  1.0000
  H   H1469     1.0  0.84984  0.56921  0.99396  1.0000
  H   H1470     1.0  0.60282  0.35421  0.93725  1.0000
  H   H1471     1.0  0.64724  0.40821  0.93858  1.0000
  H   H1472     1.0  0.71314  0.56443  0.75672  1.0000
  C   C914      1.0  0.73197  0.34974  0.75924  1.0000
  H   H1473     1.0  0.70930  0.59399  0.76825  1.0000
  C   C915      1.0  0.90331  0.35063  0.80886  1.0000
  S   S364      1.0  0.95542  0.67285  0.75531  1.0000
  H   H1474     1.0  0.61231  0.37753  0.96299  1.0000
  S   S365      1.0  0.85923  0.65277  0.75453  1.0000
  C   C916      1.0  0.85417  0.64263  0.98303  1.0000
  H   H1475     1.0  0.57403  0.35548  0.82018  1.0000
  H   H1476     1.0  0.88345  0.35808  0.80727  1.0000
  N   N91       1.0  0.85016  0.61544  0.99439  1.0000
  Fe  Fe182     1.0  0.70981  0.37685  0.99113  1.0000
  N   N92       1.0  0.75142  0.61148  0.75119  1.0000
  H   H1477     1.0  0.73445  0.35470  0.91595  1.0000
  C   C917      1.0  0.66789  0.34970  0.95227  1.0000
  H   H1478     1.0  0.71842  0.36457  0.75740  1.0000
  H   H1479     1.0  0.87023  0.34901  0.83659  1.0000
  H   H1480     1.0  0.68002  0.34715  0.94098  1.0000
  H   H1481     1.0  0.78861  0.65869  0.75154  1.0000
  H   H1482     1.0  0.71117  0.68271  0.08030  1.0000
  C   C918      1.0  0.72495  0.74046  0.23895  1.0000
  H   H1483     1.0  0.62620  0.87046  0.14852  1.0000
  S   S366      1.0  0.87852  0.71089  0.01963  1.0000
  S   S367      1.0  0.62669  0.72445  0.13273  1.0000
  S   S368      1.0  0.70118  0.73007  0.15656  1.0000
  Fe  Fe183     1.0  0.66156  0.89545  0.03727  1.0000
  S   S369      1.0  0.64487  0.84274  0.04335  1.0000
  S   S370      1.0  0.68055  0.92361  0.01301  1.0000
  Fe  Fe184     1.0  0.64034  0.90572  0.07073  1.0000
  S   S371      1.0  0.62168  0.85406  0.07936  1.0000
  S   S372      1.0  0.63197  0.94009  0.08616  1.0000
  Fe  Fe185     1.0  0.66700  0.85669  0.06616  1.0000
  S   S373      1.0  0.69844  0.83690  0.07806  1.0000
  Fe  Fe186     1.0  0.60095  0.84454  0.05603  1.0000
  S   S374      1.0  0.54844  0.80978  0.05707  1.0000
  S   S375      1.0  0.68747  0.90949  0.05907  1.0000
  S   S376      1.0  0.61583  0.89605  0.04840  1.0000
  H   H1484     1.0  0.77102  0.74726  0.07227  1.0000
  C   C919      1.0  0.74140  0.74780  0.10053  1.0000
  Fe  Fe187     1.0  0.71758  0.69573  0.14567  1.0000
  C   C920      1.0  0.51031  0.84700  0.00928  1.0000
  C   C921      1.0  0.75847  0.76524  0.21423  1.0000
  C   C922      1.0  0.65186  0.95196  0.10322  1.0000
  C   C923      1.0  0.68079  0.94959  0.10547  1.0000
  C   C924      1.0  0.69592  0.95937  0.11928  1.0000
  C   C925      1.0  0.68250  0.97206  0.13075  1.0000
  C   C926      1.0  0.65385  0.97484  0.12836  1.0000
  C   C927      1.0  0.63867  0.96492  0.11462  1.0000
  H   H1485     1.0  0.69170  0.94062  0.09648  1.0000
  H   H1486     1.0  0.71829  0.95747  0.12099  1.0000
  H   H1487     1.0  0.84329  0.68998  0.13100  1.0000
  S   S377      1.0  0.66917  0.00761  0.18804  1.0000
  S   S378      1.0  0.76708  0.71522  0.13198  1.0000
  H   H1488     1.0  0.50935  0.86853  0.03775  1.0000
  C   C928      1.0  0.64715  0.75575  0.11765  1.0000
  C   C929      1.0  0.68075  0.77317  0.11641  1.0000
  C   C930      1.0  0.69630  0.79831  0.10430  1.0000
  C   C931      1.0  0.67840  0.80572  0.09326  1.0000
  C   C932      1.0  0.64482  0.78844  0.09459  1.0000
  C   C933      1.0  0.62924  0.76364  0.10682  1.0000
  H   H1489     1.0  0.69462  0.76756  0.12492  1.0000
  H   H1490     1.0  0.72222  0.81215  0.10349  1.0000
  H   H1491     1.0  0.63084  0.79390  0.08609  1.0000
  H   H1492     1.0  0.60322  0.75025  0.10776  1.0000
  C   C934      1.0  0.70136  0.71895  0.23052  1.0000
  N   N93       1.0  0.72611  0.72999  0.08730  1.0000
  H   H1493     1.0  0.52065  0.83700  0.01847  1.0000
  C   C935      1.0  0.53233  0.79369  0.03981  1.0000
  C   C936      1.0  0.55204  0.79642  0.02594  1.0000
  C   C937      1.0  0.53795  0.78339  0.01236  1.0000
  S   S379      1.0  0.95620  0.69671  0.08322  1.0000
  H   H1494     1.0  0.90202  0.70322  0.13274  1.0000
  H   H1495     1.0  0.57810  0.80835  0.02571  1.0000
  Fe  Fe188     1.0  0.65547  0.70304  0.14565  1.0000
  C   C938      1.0  0.75354  0.76379  0.23084  1.0000
  H   H1496     1.0  0.61433  0.81692  0.11646  1.0000
  H   H1497     1.0  0.74429  0.77278  0.09896  1.0000
  H   H1498     1.0  0.81759  0.72734  0.10712  1.0000
  H   H1499     1.0  0.72675  0.73666  0.11214  1.0000
  C   C939      1.0  0.90322  0.80163  0.24271  1.0000
  H   H1500     1.0  0.60252  0.84912  0.11670  1.0000
  H   H1501     1.0  0.78051  0.78324  0.20786  1.0000
  C   C940      1.0  0.73484  0.74369  0.20577  1.0000
  C   C941      1.0  0.70612  0.72055  0.21391  1.0000
  H   H1502     1.0  0.61640  0.96701  0.11289  1.0000
  H   H1503     1.0  0.73875  0.74513  0.19298  1.0000
  S   S380      1.0  0.87834  0.69120  0.06562  1.0000
  H   H1504     1.0  0.85071  0.74663  0.24147  1.0000
  H   H1505     1.0  0.87907  0.69875  0.10662  1.0000
  H   H1506     1.0  0.74862  0.77084  0.06998  1.0000
  C   C942      1.0  0.74618  0.74602  0.07219  1.0000
  H   H1507     1.0  0.66672  0.89758  0.14080  1.0000
  H   H1508     1.0  0.69464  0.75324  0.08425  1.0000
  H   H1509     1.0  0.69983  0.87136  0.01274  1.0000
  H   H1510     1.0  0.64313  0.98424  0.13720  1.0000
  C   C943      1.0  0.69465  0.90752  0.99761  1.0000
  C   C944      1.0  0.90141  0.71548  0.00133  1.0000
  C   C945      1.0  0.80090  0.70249  0.10779  1.0000
  S   S381      1.0  0.78352  0.79126  0.24114  1.0000
  H   H1511     1.0  0.90959  0.78233  0.23893  1.0000
  S   S382      1.0  0.67553  0.69305  0.20391  1.0000
  Fe  Fe189     1.0  0.67969  0.69206  0.17723  1.0000
  S   S383      1.0  0.70228  0.98447  0.14779  1.0000
  H   H1512     1.0  0.76985  0.98437  0.24301  1.0000
  H   H1513     1.0  0.59585  0.82300  0.13450  1.0000
  H   H1514     1.0  0.52105  0.90091  0.02244  1.0000
  H   H1515     1.0  0.76584  0.74853  0.10151  1.0000
  H   H1516     1.0  0.68069  0.71478  0.07728  1.0000
  H   H1517     1.0  0.67807  0.71828  0.09824  1.0000
  H   H1518     1.0  0.84232  0.77950  0.23447  1.0000
  H   H1519     1.0  0.74775  0.69708  0.08974  1.0000
  C   C946      1.0  0.98613  0.69701  0.11016  1.0000
  H   H1520     1.0  0.63329  0.89610  0.13052  1.0000
  N   N94       1.0  0.64538  0.85653  0.12803  1.0000
  C   C947      1.0  0.65830  0.83748  0.13746  1.0000
  C   C948      1.0  0.66741  0.87199  0.11339  1.0000
  C   C949      1.0  0.64275  0.88118  0.13740  1.0000
  C   C950      1.0  0.61307  0.83547  0.12376  1.0000
  H   H1521     1.0  0.66029  0.81853  0.13072  1.0000
  H   H1522     1.0  0.64235  0.82549  0.14864  1.0000
  H   H1523     1.0  0.68284  0.85254  0.14071  1.0000
  H   H1524     1.0  0.65761  0.88532  0.10568  1.0000
  H   H1525     1.0  0.69176  0.88894  0.11605  1.0000
  H   H1526     1.0  0.67079  0.85429  0.10625  1.0000
  C   C951      1.0  0.69346  0.72898  0.08675  1.0000
  H   H1527     1.0  0.67923  0.70114  0.23690  1.0000
  H   H1528     1.0  0.00427  0.73680  0.24058  1.0000
  H   H1529     1.0  0.73542  0.73320  0.06194  1.0000
  H   H1530     1.0  0.00034  0.72208  0.10647  1.0000
  H   H1531     1.0  0.82765  0.69250  0.08868  1.0000
  H   H1532     1.0  0.53088  0.86770  0.00252  1.0000
  C   C952      1.0  0.70302  0.88221  0.00071  1.0000
  H   H1533     1.0  0.90116  0.81507  0.23182  1.0000
  C   C953      1.0  0.80666  0.68278  0.09737  1.0000
  C   C954      1.0  0.92523  0.70415  0.99990  1.0000
  H   H1534     1.0  0.93085  0.69350  0.01028  1.0000
  C   C955      1.0  0.84610  0.76692  0.24523  1.0000
  H   H1535     1.0  0.55328  0.78524  0.00169  1.0000
  H   H1536     1.0  0.70962  0.68488  0.10137  1.0000
  C   C956      1.0  0.77361  0.69014  0.11905  1.0000
  C   C957      1.0  0.72349  0.69723  0.08976  1.0000
  C   C958      1.0  0.99083  0.68344  0.12454  1.0000
  H   H1537     1.0  0.51728  0.98816  0.13129  1.0000
  H   H1538     1.0  0.52288  0.00999  0.19433  1.0000
  C   C959      1.0  0.62262  0.00344  0.40331  1.0000
  C   C960      1.0  0.53879  0.91536  0.45222  1.0000
  S   S384      1.0  0.93819  0.73084  0.31838  1.0000
  Fe  Fe190     1.0  0.77289  0.78871  0.26776  1.0000
  S   S385      1.0  0.80051  0.83150  0.28027  1.0000
  C   C961      1.0  0.75407  0.94615  0.27022  1.0000
  Fe  Fe191     1.0  0.73967  0.74775  0.29872  1.0000
  S   S386      1.0  0.76528  0.78668  0.31392  1.0000
  Fe  Fe192     1.0  0.75450  0.81804  0.29604  1.0000
  S   S387      1.0  0.73016  0.84978  0.30305  1.0000
  Fe  Fe193     1.0  0.80954  0.79708  0.29696  1.0000
  S   S388      1.0  0.86169  0.81447  0.30249  1.0000
  S   S389      1.0  0.72578  0.77805  0.28198  1.0000
  S   S390      1.0  0.78489  0.75538  0.28342  1.0000
  H   H1539     1.0  0.80684  0.88397  0.45791  1.0000
  H   H1540     1.0  0.56625  0.87626  0.44526  1.0000
  S   S391      1.0  0.80248  0.99412  0.31711  1.0000
  H   H1541     1.0  0.75790  0.87417  0.48626  1.0000
  S   S392      1.0  0.83235  0.83400  0.47313  1.0000
  C   C962      1.0  0.87659  0.77109  0.26776  1.0000
  Fe  Fe194     1.0  0.71748  0.72170  0.41728  1.0000
  S   S393      1.0  0.76002  0.75518  0.40055  1.0000
  S   S394      1.0  0.71633  0.72506  0.44398  1.0000
  Fe  Fe195     1.0  0.72204  0.75759  0.38510  1.0000
  S   S395      1.0  0.71510  0.79921  0.37192  1.0000
  S   S396      1.0  0.68014  0.72591  0.40238  1.0000
  Fe  Fe196     1.0  0.55578  0.84985  0.37037  1.0000
  S   S397      1.0  0.55816  0.87592  0.39208  1.0000
  S   S398      1.0  0.60307  0.84708  0.36020  1.0000
  S   S399      1.0  0.53952  0.95337  0.38066  1.0000
  Fe  Fe197     1.0  0.54747  0.99645  0.42625  1.0000
  S   S400      1.0  0.53645  0.98863  0.45288  1.0000
  S   S401      1.0  0.58950  0.98386  0.41843  1.0000
  C   C963      1.0  0.56656  0.99550  0.37745  1.0000
  S   S402      1.0  0.70359  0.69702  0.30591  1.0000
  H   H1542     1.0  0.80671  0.75650  0.37496  1.0000
  H   H1543     1.0  0.80360  0.99133  0.28216  1.0000
  H   H1544     1.0  0.75919  0.93826  0.28195  1.0000
  H   H1545     1.0  0.61389  0.73058  0.31792  1.0000
  H   H1546     1.0  0.51678  0.85404  0.46439  1.0000
  C   C964      1.0  0.68256  0.81157  0.37061  1.0000
  C   C965      1.0  0.65111  0.79524  0.37866  1.0000
  C   C966      1.0  0.62660  0.80623  0.37635  1.0000
  C   C967      1.0  0.63307  0.83343  0.36576  1.0000
  C   C968      1.0  0.66447  0.84938  0.35787  1.0000
  C   C969      1.0  0.68875  0.83892  0.36040  1.0000
  H   H1547     1.0  0.64561  0.77409  0.38661  1.0000
  H   H1548     1.0  0.60256  0.79319  0.38246  1.0000
  H   H1549     1.0  0.67022  0.87002  0.34951  1.0000
  H   H1550     1.0  0.71262  0.85199  0.35406  1.0000
  H   H1551     1.0  0.84720  0.76227  0.36917  1.0000
  S   S403      1.0  0.52982  0.87546  0.35725  1.0000
  C   C970      1.0  0.79969  0.80325  0.46556  1.0000
  C   C971      1.0  0.79857  0.80417  0.44906  1.0000
  C   C972      1.0  0.77328  0.78048  0.44238  1.0000
  C   C973      1.0  0.74862  0.75544  0.45210  1.0000
  C   C974      1.0  0.74950  0.75469  0.46867  1.0000
  C   C975      1.0  0.77492  0.77844  0.47538  1.0000
  H   H1552     1.0  0.81751  0.82324  0.44134  1.0000
  H   H1553     1.0  0.77286  0.78178  0.42969  1.0000
  H   H1554     1.0  0.73055  0.73553  0.47633  1.0000
  H   H1555     1.0  0.77541  0.77743  0.48811  1.0000
  N   N95       1.0  0.80479  0.91074  0.47729  1.0000
  H   H1556     1.0  0.77493  0.89687  0.45816  1.0000
  S   S404      1.0  0.72644  0.71854  0.37206  1.0000
  H   H1557     1.0  0.63277  0.80447  0.33747  1.0000
  H   H1558     1.0  0.95909  0.79957  0.31239  1.0000
  H   H1559     1.0  0.81395  0.82214  0.36225  1.0000
  C   C976      1.0  0.63448  0.98527  0.39446  1.0000
  C   C977      1.0  0.66085  0.00004  0.38249  1.0000
  H   H1560     1.0  0.62280  0.95962  0.39668  1.0000
  H   H1561     1.0  0.66966  0.98588  0.37577  1.0000
  H   H1562     1.0  0.89662  0.78681  0.27426  1.0000
  H   H1563     1.0  0.85421  0.76136  0.27624  1.0000
  C   C978      1.0  0.75086  0.88921  0.30783  1.0000
  C   C979      1.0  0.78462  0.90520  0.30573  1.0000
  C   C980      1.0  0.80008  0.93715  0.30892  1.0000
  C   C981      1.0  0.78199  0.95341  0.31419  1.0000
  C   C982      1.0  0.74822  0.93724  0.31649  1.0000
  C   C983      1.0  0.73275  0.90532  0.31330  1.0000
  H   H1564     1.0  0.79881  0.89304  0.30154  1.0000
  H   H1565     1.0  0.82621  0.94940  0.30719  1.0000
  H   H1566     1.0  0.73405  0.94930  0.32076  1.0000
  H   H1567     1.0  0.70664  0.89303  0.31507  1.0000
  H   H1568     1.0  0.81612  0.92499  0.45219  1.0000
  H   H1569     1.0  0.62782  0.78387  0.30440  1.0000
  H   H1570     1.0  0.59774  0.99332  0.35798  1.0000
  H   H1571     1.0  0.60082  0.76894  0.33249  1.0000
  H   H1572     1.0  0.69909  0.73262  0.33198  1.0000
  C   C984      1.0  0.91743  0.75459  0.31395  1.0000
  C   C985      1.0  0.88391  0.73960  0.31289  1.0000
  C   C986      1.0  0.86643  0.75755  0.30939  1.0000
  C   C987      1.0  0.88234  0.79072  0.30705  1.0000
  C   C988      1.0  0.91579  0.80572  0.30821  1.0000
  C   C989      1.0  0.93332  0.78776  0.31157  1.0000
  H   H1573     1.0  0.87142  0.71393  0.31477  1.0000
  H   H1574     1.0  0.84069  0.74567  0.30853  1.0000
  H   H1575     1.0  0.92831  0.83140  0.30642  1.0000
  H   H1576     1.0  0.63452  0.72597  0.33443  1.0000
  C   C990      1.0  0.62561  0.77882  0.33628  1.0000
  H   H1577     1.0  0.72785  0.93214  0.26925  1.0000
  H   H1578     1.0  0.65513  0.73596  0.31467  1.0000
  H   H1579     1.0  0.69919  0.78370  0.32256  1.0000
  H   H1580     1.0  0.66923  0.78973  0.30058  1.0000
  H   H1581     1.0  0.76792  0.93953  0.26099  1.0000
  C   C991      1.0  0.83895  0.91990  0.47994  1.0000
  H   H1582     1.0  0.84287  0.80605  0.26644  1.0000
  H   H1583     1.0  0.67058  0.71493  0.35924  1.0000
  H   H1584     1.0  0.88198  0.75079  0.26475  1.0000
  C   C992      1.0  0.86543  0.81507  0.25822  1.0000
  H   H1585     1.0  0.83282  0.74867  0.34246  1.0000
  H   H1586     1.0  0.81523  0.76993  0.33099  1.0000
  H   H1587     1.0  0.65374  0.98180  0.32449  1.0000
  C   C993      1.0  0.65147  0.79223  0.30940  1.0000
  Fe  Fe198     1.0  0.75688  0.71033  0.38986  1.0000
  Fe  Fe199     1.0  0.53182  0.90074  0.37929  1.0000
  H   H1588     1.0  0.85994  0.82236  0.33485  1.0000
  C   C994      1.0  0.80593  0.80246  0.35451  1.0000
  H   H1589     1.0  0.83969  0.79337  0.37760  1.0000
  H   H1590     1.0  0.62437  0.76707  0.34833  1.0000
  C   C995      1.0  0.79603  0.93707  0.48065  1.0000
  C   C996      1.0  0.83074  0.77442  0.36949  1.0000
  H   H1591     1.0  0.80388  0.81263  0.34261  1.0000
  H   H1592     1.0  0.62060  0.00863  0.44866  1.0000
  C   C997      1.0  0.63759  0.74023  0.32288  1.0000
  H   H1593     1.0  0.79204  0.74277  0.34802  1.0000
  H   H1594     1.0  0.68010  0.77358  0.34265  1.0000
  H   H1595     1.0  0.78112  0.78517  0.35951  1.0000
  H   H1596     1.0  0.69028  0.81210  0.33247  1.0000
  C   C998      1.0  0.86096  0.81102  0.34662  1.0000
  C   C999      1.0  0.55154  0.88044  0.43627  1.0000
  H   H1597     1.0  0.87818  0.79995  0.34484  1.0000
  H   H1598     1.0  0.66006  0.81814  0.31050  1.0000
  N   N96       1.0  0.62952  0.94279  0.34275  1.0000
  C   C1000     1.0  0.63840  0.97586  0.33603  1.0000
  C   C1001     1.0  0.60832  0.93574  0.35775  1.0000
  C   C1002     1.0  0.65904  0.93874  0.34588  1.0000
  C   C1003     1.0  0.61214  0.92060  0.33137  1.0000
  H   H1599     1.0  0.84660  0.90084  0.47719  1.0000
  H   H1600     1.0  0.65200  0.99335  0.34424  1.0000
  H   H1601     1.0  0.61660  0.97978  0.33379  1.0000
  H   H1602     1.0  0.60189  0.91126  0.36330  1.0000
  H   H1603     1.0  0.62017  0.95233  0.36653  1.0000
  H   H1604     1.0  0.58552  0.93803  0.35590  1.0000
  H   H1605     1.0  0.65296  0.91443  0.35165  1.0000
  H   H1606     1.0  0.67350  0.95600  0.35391  1.0000
  H   H1607     1.0  0.67491  0.94223  0.33474  1.0000
  H   H1608     1.0  0.60524  0.89545  0.33608  1.0000
  H   H1609     1.0  0.62736  0.92527  0.31987  1.0000
  H   H1610     1.0  0.56806  0.90079  0.42758  1.0000
  N   N97       1.0  0.64888  0.77438  0.32488  1.0000
  C   C1004     1.0  0.68092  0.78634  0.33093  1.0000
  H   H1611     1.0  0.87139  0.83037  0.35438  1.0000
  N   N98       1.0  0.52499  0.88683  0.44369  1.0000
  H   H1612     1.0  0.58952  0.92273  0.32889  1.0000
  H   H1613     1.0  0.71739  0.97518  0.28020  1.0000
  N   N99       1.0  0.82856  0.78725  0.35347  1.0000
  H   H1614     1.0  0.85546  0.94197  0.47236  1.0000
  N   N100      1.0  0.76305  0.98070  0.26853  1.0000
  H   H1615     1.0  0.74895  0.98229  0.29302  1.0000
  C   C1005     1.0  0.66983  0.69749  0.35127  1.0000
  H   H1616     1.0  0.79912  0.94254  0.49319  1.0000
  H   H1617     1.0  0.52202  0.91272  0.42233  1.0000
  C   C1006     1.0  0.81660  0.76102  0.34328  1.0000
  H   H1618     1.0  0.88495  0.83196  0.26455  1.0000
  H   H1619     1.0  0.54034  0.00737  0.39589  1.0000
  C   C1007     1.0  0.59290  0.00863  0.36562  1.0000
  Fe  Fe200     1.0  0.99268  0.74829  0.31905  1.0000
  C   C1008     1.0  0.74386  0.98822  0.28092  1.0000
  C   C1009     1.0  0.79784  0.99821  0.27034  1.0000
  C   C1010     1.0  0.68558  0.70760  0.33579  1.0000
  S   S405      1.0  0.79873  0.69481  0.38565  1.0000
  H   H1620     1.0  0.77039  0.93111  0.47880  1.0000
  H   H1621     1.0  0.55482  0.93656  0.44396  1.0000
  H   H1622     1.0  0.51934  0.92061  0.45810  1.0000
  N   N101      1.0  0.87283  0.78865  0.25347  1.0000
  H   H1623     1.0  0.82272  0.75687  0.25298  1.0000
  H   H1624     1.0  0.97947  0.68402  0.37911  1.0000
  Fe  Fe201     1.0  0.68427  0.68719  0.38947  1.0000
  H   H1625     1.0  0.84286  0.92439  0.49251  1.0000
  H   H1626     1.0  0.79010  0.86173  0.48589  1.0000
  H   H1627     1.0  0.72092  0.73901  0.25174  1.0000
  C   C1011     1.0  0.80046  0.90392  0.46064  1.0000
  C   C1012     1.0  0.78386  0.88197  0.48800  1.0000
  H   H1628     1.0  0.81159  0.95933  0.47292  1.0000
  H   H1629     1.0  0.54204  0.85902  0.42973  1.0000
  C   C1013     1.0  0.75644  0.99036  0.25271  1.0000
  H   H1630     1.0  0.55333  0.91221  0.46158  1.0000
  H   H1631     1.0  0.81322  0.99338  0.26114  1.0000
  H   H1632     1.0  0.99158  0.82571  0.48890  1.0000
  Fe  Fe202     1.0  0.50923  0.83576  0.39965  1.0000
  S   S406      1.0  0.72346  0.00869  0.32443  1.0000
  H   H1633     1.0  0.94137  0.68737  0.34224  1.0000
  C   C1014     1.0  0.68420  0.68523  0.32536  1.0000
  H   H1634     1.0  0.73018  0.97851  0.25120  1.0000
  S   S407      1.0  0.50806  0.80863  0.37881  1.0000
  H   H1635     1.0  0.92383  0.81816  0.24860  1.0000
  H   H1636     1.0  0.86172  0.82855  0.24781  1.0000
  C   C1015     1.0  0.50635  0.89235  0.43123  1.0000
  S   S408      1.0  0.00578  0.70659  0.32080  1.0000
  Fe  Fe203     1.0  0.84071  0.88493  0.52282  1.0000
  S   S409      1.0  0.80349  0.83737  0.51753  1.0000
  Fe  Fe204     1.0  0.67988  0.69065  0.65480  1.0000
  Fe  Fe205     1.0  0.89469  0.86096  0.52169  1.0000
  S   S410      1.0  0.86129  0.81298  0.51534  1.0000
  Fe  Fe206     1.0  0.73680  0.70123  0.67325  1.0000
  Fe  Fe207     1.0  0.82609  0.81563  0.53445  1.0000
  S   S411      1.0  0.80035  0.77166  0.55214  1.0000
  S   S412      1.0  0.85991  0.86270  0.54143  1.0000
  Fe  Fe208     1.0  0.74565  0.74701  0.64396  1.0000
  S   S413      1.0  0.69546  0.74291  0.64903  1.0000
  S   S414      1.0  0.77682  0.78680  0.62503  1.0000
  H   H1637     1.0  0.97243  0.73221  0.70279  1.0000
  H   H1638     1.0  0.64052  0.83446  0.73452  1.0000
  H   H1639     1.0  0.78646  0.88629  0.50068  1.0000
  H   H1640     1.0  0.95013  0.84262  0.49986  1.0000
  Fe  Fe209     1.0  0.70613  0.74764  0.67430  1.0000
  S   S415      1.0  0.69609  0.78717  0.68386  1.0000
  H   H1641     1.0  0.69520  0.69446  0.57726  1.0000
  S   S416      1.0  0.75739  0.75442  0.66903  1.0000
  C   C1016     1.0  0.81486  0.71264  0.72856  1.0000
  C   C1017     1.0  0.73342  0.98801  0.72467  1.0000
  C   C1018     1.0  0.81550  0.97813  0.52555  1.0000
  C   C1019     1.0  0.88899  0.80762  0.55867  1.0000
  C   C1020     1.0  0.77891  0.71466  0.70904  1.0000
  C   C1021     1.0  0.90557  0.77039  0.57196  1.0000
  C   C1022     1.0  0.87536  0.01220  0.50789  1.0000
  H   H1642     1.0  0.75506  0.85093  0.67933  1.0000
  H   H1643     1.0  0.85896  0.75974  0.54142  1.0000
  H   H1644     1.0  0.81185  0.85038  0.63728  1.0000
  H   H1645     1.0  0.64927  0.71367  0.61818  1.0000
  C   C1023     1.0  0.86701  0.75314  0.55264  1.0000
  H   H1646     1.0  0.72098  0.74601  0.58756  1.0000
  C   C1024     1.0  0.78299  0.69043  0.70166  1.0000
  C   C1025     1.0  0.69969  0.79435  0.70384  1.0000
  C   C1026     1.0  0.70154  0.77213  0.71516  1.0000
  C   C1027     1.0  0.70276  0.77803  0.73117  1.0000
  C   C1028     1.0  0.70268  0.80634  0.73585  1.0000
  C   C1029     1.0  0.70181  0.82896  0.72446  1.0000
  C   C1030     1.0  0.69992  0.82279  0.70852  1.0000
  H   H1647     1.0  0.70139  0.75016  0.71161  1.0000
  H   H1648     1.0  0.88193  0.81520  0.54746  1.0000
  H   H1649     1.0  0.70218  0.85103  0.72794  1.0000
  H   H1650     1.0  0.69858  0.84009  0.69979  1.0000
  H   H1651     1.0  0.94527  0.80823  0.54696  1.0000
  C   C1031     1.0  0.69967  0.97573  0.72577  1.0000
  H   H1652     1.0  0.71710  0.69550  0.60297  1.0000
  H   H1653     1.0  0.68550  0.75308  0.58733  1.0000
  H   H1654     1.0  0.79193  0.89236  0.63909  1.0000
  H   H1655     1.0  0.91119  0.74947  0.57102  1.0000
  H   H1656     1.0  0.88583  0.76404  0.58180  1.0000
  H   H1657     1.0  0.91675  0.79602  0.53262  1.0000
  H   H1658     1.0  0.76958  0.82094  0.67802  1.0000
  H   H1659     1.0  0.87149  0.73178  0.55098  1.0000
  C   C1032     1.0  0.79464  0.77613  0.57243  1.0000
  C   C1033     1.0  0.80034  0.80578  0.57747  1.0000
  C   C1034     1.0  0.79497  0.80863  0.59366  1.0000
  C   C1035     1.0  0.78375  0.78189  0.60492  1.0000
  C   C1036     1.0  0.77859  0.75226  0.59995  1.0000
  C   C1037     1.0  0.78393  0.74938  0.58372  1.0000
  H   H1660     1.0  0.80845  0.82650  0.56888  1.0000
  H   H1661     1.0  0.79925  0.83168  0.59742  1.0000
  H   H1662     1.0  0.77085  0.73174  0.60864  1.0000
  H   H1663     1.0  0.77978  0.72640  0.57989  1.0000
  H   H1664     1.0  0.79752  0.86120  0.67978  1.0000
  H   H1665     1.0  0.94112  0.70653  0.72891  1.0000
  C   C1038     1.0  0.83451  0.96211  0.52124  1.0000
  C   C1039     1.0  0.99381  0.83526  0.50026  1.0000
  C   C1040     1.0  0.96459  0.70668  0.72600  1.0000
  C   C1041     1.0  0.92292  0.78820  0.54412  1.0000
  H   H1666     1.0  0.92745  0.79011  0.57544  1.0000
  H   H1667     1.0  0.81043  0.90280  0.65712  1.0000
  N   N102      1.0  0.89613  0.77980  0.55686  1.0000
  H   H1668     1.0  0.91048  0.82847  0.56163  1.0000
  S   S417      1.0  0.94474  0.87085  0.52923  1.0000
  H   H1669     1.0  0.76802  0.89254  0.65675  1.0000
  C   C1042     1.0  0.86454  0.97933  0.51235  1.0000
  H   H1670     1.0  0.69901  0.70536  0.61999  1.0000
  H   H1671     1.0  0.68510  0.95566  0.73435  1.0000
  H   H1672     1.0  0.79222  0.96504  0.53241  1.0000
  H   H1673     1.0  0.79134  0.74424  0.72824  1.0000
  H   H1674     1.0  0.63278  0.71252  0.59946  1.0000
  C   C1043     1.0  0.97713  0.69212  0.73685  1.0000
  C   C1044     1.0  0.64596  0.70234  0.60687  1.0000
  H   H1675     1.0  0.84628  0.74623  0.56199  1.0000
  H   H1676     1.0  0.76313  0.72452  0.70455  1.0000
  C   C1045     1.0  0.97331  0.85796  0.52091  1.0000
  S   S418      1.0  0.75318  0.97233  0.73742  1.0000
  H   H1677     1.0  0.92894  0.76781  0.54221  1.0000
  S   S419      1.0  0.83285  0.72586  0.74595  1.0000
  S   S420      1.0  0.81902  0.92047  0.52682  1.0000
  H   H1678     1.0  0.00206  0.87044  0.54058  1.0000
  Fe  Fe210     1.0  0.84166  0.83919  0.49902  1.0000
  C   C1046     1.0  0.69378  0.69330  0.60897  1.0000
  C   C1047     1.0  0.61994  0.81149  0.73307  1.0000
  S   S421      1.0  0.72958  0.69417  0.64754  1.0000
  C   C1048     1.0  0.79484  0.72573  0.72246  1.0000
  N   N103      1.0  0.78058  0.85292  0.65674  1.0000
  C   C1049     1.0  0.75082  0.83251  0.64999  1.0000
  C   C1050     1.0  0.80773  0.84611  0.65049  1.0000
  C   C1051     1.0  0.77559  0.84632  0.67423  1.0000
  C   C1052     1.0  0.78809  0.88667  0.65223  1.0000
  H   H1679     1.0  0.74453  0.80694  0.65318  1.0000
  H   H1680     1.0  0.75370  0.83651  0.63679  1.0000
  H   H1681     1.0  0.72965  0.83664  0.65456  1.0000
  H   H1682     1.0  0.83068  0.86108  0.65525  1.0000
  H   H1683     1.0  0.80277  0.82076  0.65363  1.0000
  S   S422      1.0  0.87852  0.88764  0.50370  1.0000
  H   H1684     1.0  0.86863  0.80226  0.56804  1.0000
  H   H1685     1.0  0.70353  0.76048  0.73995  1.0000
  C   C1053     1.0  0.82642  0.01104  0.52118  1.0000
  C   C1054     1.0  0.69777  0.74155  0.59456  1.0000
  H   H1686     1.0  0.63049  0.79552  0.72860  1.0000
  C   C1055     1.0  0.97029  0.84488  0.50643  1.0000
  S   S423      1.0  0.68586  0.69463  0.68075  1.0000
  H   H1687     1.0  0.55700  0.77055  0.73671  1.0000
  H   H1688     1.0  0.60631  0.81623  0.72365  1.0000
  H   H1689     1.0  0.70395  0.75404  0.60545  1.0000
  H   H1690     1.0  0.87956  0.96748  0.50901  1.0000
  N   N104      1.0  0.67735  0.70712  0.59855  1.0000
  C   C1056     1.0  0.99966  0.86062  0.52929  1.0000
  C   C1057     1.0  0.98235  0.72119  0.71122  1.0000
  C   C1058     1.0  0.68476  0.98981  0.71589  1.0000
  H   H1691     1.0  0.65864  0.98051  0.71693  1.0000
  H   H1692     1.0  0.57240  0.82561  0.74472  1.0000
  C   C1059     1.0  0.81936  0.68876  0.72103  1.0000
  H   H1693     1.0  0.65944  0.70095  0.57567  1.0000
  H   H1694     1.0  0.58116  0.74972  0.74154  1.0000
  C   C1060     1.0  0.67189  0.69121  0.58383  1.0000
  C   C1061     1.0  0.57207  0.76698  0.74572  1.0000
  Fe  Fe211     1.0  0.80992  0.91488  0.90813  1.0000
  S   S424      1.0  0.76141  0.87326  0.91301  1.0000
  S   S425      1.0  0.85740  0.91106  0.90431  1.0000
  Fe  Fe212     1.0  0.78154  0.96291  0.91232  1.0000
  S   S426      1.0  0.73109  0.92472  0.91821  1.0000
  Fe  Fe213     1.0  0.85552  0.69816  0.75932  1.0000
  Fe  Fe214     1.0  0.75369  0.89946  0.93300  1.0000
  S   S427      1.0  0.73841  0.87209  0.95736  1.0000
  Fe  Fe215     1.0  0.74392  0.90266  0.89764  1.0000
  S   S428      1.0  0.70769  0.88558  0.87968  1.0000
  S   S429      1.0  0.80324  0.93973  0.92893  1.0000
  S   S430      1.0  0.79327  0.94231  0.89099  1.0000
  Fe  Fe216     1.0  0.94469  0.74429  0.93095  1.0000
  S   S431      1.0  0.94515  0.79283  0.92859  1.0000
  H   H1695     1.0  0.97836  0.77520  0.80084  1.0000
  Fe  Fe217     1.0  0.93269  0.73406  0.89620  1.0000
  S   S432      1.0  0.93274  0.78194  0.89108  1.0000
  C   C1062     1.0  0.83596  0.72269  0.85772  1.0000
  Fe  Fe218     1.0  0.97518  0.79950  0.90539  1.0000
  Fe  Fe219     1.0  0.90276  0.77069  0.91455  1.0000
  S   S433      1.0  0.85516  0.77464  0.91646  1.0000
  S   S434      1.0  0.97767  0.75244  0.90860  1.0000
  S   S435      1.0  0.89970  0.72133  0.91890  1.0000
  H   H1696     1.0  0.83577  0.83509  0.77494  1.0000
  Fe  Fe220     1.0  0.73087  0.90313  0.78839  1.0000
  S   S436      1.0  0.68604  0.85831  0.78813  1.0000
  S   S437      1.0  0.76460  0.90976  0.80741  1.0000
  C   C1063     1.0  0.77256  0.79872  0.77333  1.0000
  Fe  Fe221     1.0  0.66487  0.89015  0.77800  1.0000
  S   S438      1.0  0.61460  0.88485  0.78557  1.0000
  C   C1064     1.0  0.98366  0.77425  0.78793  1.0000
  S   S439      1.0  0.70845  0.93552  0.78039  1.0000
  S   S440      1.0  0.75079  0.90139  0.76378  1.0000
  H   H1697     1.0  0.80027  0.74989  0.87126  1.0000
  S   S441      1.0  0.90501  0.73759  0.80839  1.0000
  H   H1698     1.0  0.78216  0.81092  0.97630  1.0000
  S   S442      1.0  0.90630  0.72197  0.76569  1.0000
  C   C1065     1.0  0.53763  0.78558  0.80375  1.0000
  C   C1066     1.0  0.56963  0.79032  0.79971  1.0000
  C   C1067     1.0  0.59357  0.82087  0.79444  1.0000
  C   C1068     1.0  0.58550  0.84670  0.79299  1.0000
  C   C1069     1.0  0.55351  0.84194  0.79714  1.0000
  H   H1699     1.0  0.87499  0.72055  0.87987  1.0000
  H   H1700     1.0  0.57590  0.77035  0.80077  1.0000
  H   H1701     1.0  0.61812  0.82433  0.79134  1.0000
  H   H1702     1.0  0.54714  0.86186  0.79603  1.0000
  H   H1703     1.0  0.85886  0.72232  0.85259  1.0000
  C   C1070     1.0  0.80924  0.73661  0.87953  1.0000
  Fe  Fe222     1.0  0.88528  0.70176  0.79073  1.0000
  H   H1704     1.0  0.80991  0.88864  0.95186  1.0000
  C   C1071     1.0  0.91072  0.72578  0.82759  1.0000
  C   C1072     1.0  0.92512  0.74922  0.83772  1.0000
  C   C1073     1.0  0.92933  0.74074  0.85329  1.0000
  H   H1705     1.0  0.72549  0.98025  0.95787  1.0000
  S   S443      1.0  0.92226  0.69738  0.87863  1.0000
  H   H1706     1.0  0.93301  0.77404  0.83353  1.0000
  H   H1707     1.0  0.94079  0.75899  0.86093  1.0000
  C   C1074     1.0  0.78787  0.99127  0.95674  1.0000
  C   C1075     1.0  0.91144  0.73225  0.97288  1.0000
  H   H1708     1.0  0.63827  0.81395  0.76277  1.0000
  H   H1709     1.0  0.90606  0.74314  0.96249  1.0000
  C   C1076     1.0  0.72335  0.89091  0.85963  1.0000
  C   C1077     1.0  0.70299  0.88852  0.84768  1.0000
  C   C1078     1.0  0.71529  0.89395  0.83158  1.0000
  C   C1079     1.0  0.74802  0.90171  0.82740  1.0000
  C   C1080     1.0  0.76826  0.90376  0.83936  1.0000
  C   C1081     1.0  0.75597  0.89831  0.85543  1.0000
  H   H1710     1.0  0.67773  0.88276  0.85087  1.0000
  H   H1711     1.0  0.69954  0.89238  0.82242  1.0000
  H   H1712     1.0  0.79358  0.90966  0.83618  1.0000
  H   H1713     1.0  0.77174  0.89976  0.86456  1.0000
  C   C1082     1.0  0.72085  0.88562  0.97261  1.0000
  C   C1083     1.0  0.71607  0.87128  0.98822  1.0000
  H   H1714     1.0  0.55146  0.75934  0.83940  1.0000
  C   C1084     1.0  0.71192  0.91053  0.96947  1.0000
  H   H1715     1.0  0.72263  0.85179  0.99070  1.0000
  H   H1716     1.0  0.53884  0.81844  0.83586  1.0000
  H   H1717     1.0  0.71478  0.92111  0.95741  1.0000
  H   H1718     1.0  0.62967  0.77582  0.75613  1.0000
  C   C1085     1.0  0.85689  0.87294  0.90637  1.0000
  C   C1086     1.0  0.88593  0.87001  0.90770  1.0000
  C   C1087     1.0  0.88587  0.83984  0.91032  1.0000
  C   C1088     1.0  0.85668  0.81253  0.91164  1.0000
  C   C1089     1.0  0.82779  0.81539  0.90984  1.0000
  C   C1090     1.0  0.82788  0.84551  0.90722  1.0000
  H   H1719     1.0  0.90850  0.89115  0.90693  1.0000
  H   H1720     1.0  0.90832  0.83780  0.91162  1.0000
  H   H1721     1.0  0.80517  0.79430  0.91073  1.0000
  H   H1722     1.0  0.80553  0.84742  0.90582  1.0000
  H   H1723     1.0  0.99018  0.82844  0.98077  1.0000
  N   N105      1.0  0.75738  0.99373  0.85999  1.0000
  C   C1091     1.0  0.53789  0.76431  0.84944  1.0000
  C   C1092     1.0  0.90086  0.69378  0.83302  1.0000
  H   H1724     1.0  0.83384  0.69372  0.88622  1.0000
  H   H1725     1.0  0.57503  0.84512  0.84334  1.0000
  H   H1726     1.0  0.71273  0.95163  0.86586  1.0000
  H   H1727     1.0  0.75327  0.96008  0.84313  1.0000
  C   C1093     1.0  0.86482  0.77065  0.86992  1.0000
  H   H1728     1.0  0.69151  0.94038  0.97952  1.0000
  C   C1094     1.0  0.91902  0.70874  0.85885  1.0000
  C   C1095     1.0  0.74317  0.00555  0.95509  1.0000
  H   H1729     1.0  0.54928  0.82632  0.87113  1.0000
  H   H1730     1.0  0.53276  0.74580  0.85955  1.0000
  C   C1096     1.0  0.52959  0.81143  0.80255  1.0000
  H   H1731     1.0  0.79023  0.71180  0.88209  1.0000
  H   H1732     1.0  0.79662  0.85994  0.93787  1.0000
  C   C1097     1.0  0.93480  0.72033  0.97144  1.0000
  C   C1098     1.0  0.81533  0.87039  0.94609  1.0000
  C   C1099     1.0  0.97163  0.71857  0.79258  1.0000
  C   C1100     1.0  0.82173  0.82158  0.94970  1.0000
  C   C1101     1.0  0.84091  0.86052  0.96841  1.0000
  H   H1733     1.0  0.53078  0.78443  0.87766  1.0000
  N   N106      1.0  0.59906  0.79737  0.74819  1.0000
  C   C1102     1.0  0.58592  0.81949  0.75376  1.0000
  C   C1103     1.0  0.76569  0.84031  0.78646  1.0000
  Fe  Fe223     1.0  0.70408  0.85896  0.76283  1.0000
  C   C1104     1.0  0.94170  0.70636  0.98498  1.0000
  H   H1734     1.0  0.82853  0.73599  0.84868  1.0000
  H   H1735     1.0  0.81197  0.74773  0.89090  1.0000
  H   H1736     1.0  0.83686  0.87898  0.97472  1.0000
  N   N107      1.0  0.81536  0.84569  0.95794  1.0000
  N   N108      1.0  0.84024  0.73731  0.87283  1.0000
  C   C1105     1.0  0.90503  0.68530  0.84864  1.0000
  H   H1737     1.0  0.97930  0.69931  0.79034  1.0000
  H   H1738     1.0  0.79220  0.99436  0.94356  1.0000
  C   C1106     1.0  0.81844  0.84034  0.78276  1.0000
  H   H1739     1.0  0.74244  0.95655  0.87927  1.0000
  H   H1740     1.0  0.84158  0.84257  0.97754  1.0000
  C   C1107     1.0  0.79446  0.85215  0.76021  1.0000
  H   H1741     1.0  0.81428  0.82618  0.79445  1.0000
  S   S444      1.0  0.70245  0.81229  0.75606  1.0000
  H   H1742     1.0  0.95995  0.69730  0.98393  1.0000
  H   H1743     1.0  0.77182  0.84708  0.75454  1.0000
  H   H1744     1.0  0.77177  0.96570  0.96034  1.0000
  H   H1745     1.0  0.82236  0.80267  0.95822  1.0000
  H   H1746     1.0  0.87644  0.73873  0.98886  1.0000
  H   H1747     1.0  0.60125  0.82405  0.86285  1.0000
  H   H1748     1.0  0.60314  0.77972  0.77160  1.0000
  H   H1749     1.0  0.72085  0.98084  0.87986  1.0000
  Fe  Fe224     1.0  0.72464  0.93022  0.75560  1.0000
  H   H1750     1.0  0.80271  0.80975  0.94181  1.0000
  H   H1751     1.0  0.60547  0.84220  0.75650  1.0000
  S   S445      1.0  0.95647  0.72319  0.95306  1.0000
  C   C1108     1.0  0.85102  0.71930  0.88420  1.0000
  N   N109      1.0  0.78777  0.83286  0.77569  1.0000
  S   S446      1.0  0.67922  0.88728  0.75250  1.0000
  H   H1752     1.0  0.98206  0.77294  0.98564  1.0000
  H   H1753     1.0  0.86524  0.87227  0.96149  1.0000
  C   C1109     1.0  0.56186  0.82038  0.84029  1.0000
  C   C1110     1.0  0.73221  0.96973  0.87173  1.0000
  H   H1754     1.0  0.74946  0.79238  0.76790  1.0000
  C   C1111     1.0  0.69879  0.92137  0.98195  1.0000
  H   H1755     1.0  0.81736  0.69760  0.85943  1.0000
  C   C1112     1.0  0.78349  0.83036  0.96751  1.0000
  H   H1756     1.0  0.97871  0.74236  0.76216  1.0000
  H   H1757     1.0  0.79087  0.99510  0.84051  1.0000
  C   C1113     1.0  0.58701  0.79984  0.85933  1.0000
  H   H1758     1.0  0.60218  0.79567  0.84973  1.0000
  N   N110      1.0  0.99581  0.74995  0.78519  1.0000
  H   H1759     1.0  0.56895  0.80899  0.76479  1.0000
  H   H1760     1.0  0.74220  0.83481  0.78159  1.0000
  H   H1761     1.0  0.57659  0.81703  0.83021  1.0000
  H   H1762     1.0  0.55585  0.75567  0.75693  1.0000
  H   H1763     1.0  0.84539  0.83247  0.94216  1.0000
  C   C1114     1.0  0.89481  0.72985  0.98781  1.0000
  H   H1764     1.0  0.83041  0.86594  0.78474  1.0000
  H   H1765     1.0  0.76690  0.78340  0.78477  1.0000
  H   H1766     1.0  0.86902  0.78225  0.88113  1.0000
  H   H1767     1.0  0.80578  0.87807  0.76154  1.0000
  H   H1768     1.0  0.85346  0.72888  0.89592  1.0000
  C   C1115     1.0  0.53644  0.80229  0.86717  1.0000
  C   C1116     1.0  0.77183  0.97781  0.84958  1.0000
  H   H1769     1.0  0.96063  0.76887  0.78257  1.0000
  H   H1770     1.0  0.51282  0.80041  0.86357  1.0000
  H   H1771     1.0  0.77822  0.84779  0.97416  1.0000
  H   H1772     1.0  0.98178  0.79487  0.95831  1.0000
  H   H1773     1.0  0.79472  0.00494  0.87568  1.0000
  N   N111      1.0  0.55579  0.79671  0.85406  1.0000
  H   H1774     1.0  0.58331  0.78243  0.86977  1.0000
  H   H1775     1.0  0.85732  0.78509  0.86156  1.0000
  H   H1776     1.0  0.83908  0.88283  0.93871  1.0000
  H   H1777     1.0  0.88848  0.77212  0.86471  1.0000
  H   H1778     1.0  0.74909  0.98047  0.98372  1.0000
  H   H1779     1.0  0.78322  0.96489  0.85653  1.0000
  H   H1780     1.0  0.78862  0.79223  0.76529  1.0000
  H   H1781     1.0  0.76029  0.82652  0.79834  1.0000
  H   H1782     1.0  0.51415  0.76099  0.84548  1.0000
  H   H1783     1.0  0.77630  0.86598  0.78836  1.0000
  H   H1784     1.0  0.81147  0.99649  0.96145  1.0000
  H   H1785     1.0  0.76353  0.82004  0.95987  1.0000
  C   C1117     1.0  0.61830  0.79142  0.76020  1.0000
  H   H1786     1.0  0.96686  0.71836  0.80564  1.0000
  H   H1787     1.0  0.72329  0.99372  0.84380  1.0000
  H   H1788     1.0  0.74803  0.01032  0.94189  1.0000
  H   H1789     1.0  0.94817  0.71221  0.78767  1.0000
  H   H1790     1.0  0.00137  0.79836  0.78271  1.0000
  H   H1791     1.0  0.81104  0.84714  0.75177  1.0000
  S   S447      1.0  0.50831  0.74722  0.81040  1.0000
  C   C1118     1.0  0.00142  0.74874  0.76793  1.0000
  C   C1119     1.0  0.76595  0.00577  0.97998  1.0000
  N   N112      1.0  0.77330  0.01209  0.96252  1.0000
  H   H1792     1.0  0.78825  0.01083  0.98593  1.0000
  C   C1120     1.0  0.74260  0.01055  0.85027  1.0000
  S   S448      1.0  0.83421  0.68157  0.78460  1.0000
