data_image0
_chemical_formula_structural       HCHFeS2FeS2FeSFeS3FeHSH5FeS3H3C2HC6H4C2H2C7H8FeNCH2NH2C4SH3C2H4NC5H4SHCH5CH5SCH5CH2C5H2CH5NH2NFeHCHCHSCH3CFeHSHCHCH2FeHSFeHS2HCHNCH4CHC2HC2SCHFeH2NS2CSHC2SH3C2H5CSHCH2CH3FeC2HC2H2FeHSCHCSHFeHSHSH3FeS2FeS2FeSHFeSFeS3C3H2CHC6H8C7H5CHFeH2SCH2C2HC2H4C2H4CHCHSHN2H5CHNSH2CHSCH2CH2CHCH2CH4CH2NH2CNCH5C2H3CHSCHCH2FeCH2FeHCHFeS2FeSFeHSCHCH4FeS2FeS2HCHSHCH3C2S2C7H5FeCHCNCH4SCNC2H4C2SH2C2SHC2H3CHC2H3SHSHCHCHCHSHCH4FeCH2CH2SHCFeSH2SHCHSNFeS2FeS2FeSFeS3C2H3C6H6C9H7C6H8CH2CHSCH3FeHC2H2NCH6NC2H8C2HNC3H7NC4H2CFeH3CH3CH2SHNCHCS2HC2H2SCHFeSCFeS2HCHSCHFeS2HFeS2C3H2C6H4CH9NS2HCH5CHCH2CHCH3CH4CFeCHNCHNHC2HSC3FeCH3FeH2CH3CFeCSHSCHNCH3SFeCSFeSCSFeSFeHFeS2HNC6H4CH5CH2CH6CH2C2HCH2C3H2SNC5H2CH7SH2C2HCH2CH3CFeH2CS2HC2HFeH5NHSFeS2NCH4CSHC3H2FeCH2CSFeCFeSFeSH2FeS2FeS2FeSFeS3HSH2C6H5CH3C6H4C2H9C6H2CH2N2SH3CHCHCH8NCHCHCH4C2HSC3H2C2H3CHCH4NC3H4CHCH2SC2H4CH4FeC2H5C2SHFeS2FeS2CSHSFeCFeSC4H3C6H4CH2CH2CNC2SHCHCHCFeH3SH5CH3CHCH7NH7CSNSC2HNH5FeHSHCHSH2CHCH2CFeS2FeS2FeSFeS3C3H2FeS2H3CH2FeS2CHSH3C6H4C6H4CHCHNHCH2C2H2FeH2FeC2HNC4H12NC2H2SH3CHC3H2CH2FeC2SCHCFeS2HCSH4SHCHCSNFeCS2HC4FeS2HCH3NCHSCSH6CSHCHCH2SH2C3HSH7CH2FeHNCFeHCSH2CHNHSHCFeCHCHCH3C3H2CH3NCHC2NHFeS2CHC2HCFeS2FeS2FeS2FeHFeS3C2H4C6H5CH3C6H4C2H3FeC2H3CHNH3NC4H12NH2CHCH4CH3CH4CH2CH3C2HSC2SHCH2SC2HSC2H3CH2SHFeHCHCSH2FeCHCHFeS2FeHSFeS2FeS2FeCFeS3HCH2CH2C2H3CFeNC9H6C6H6C3H4SH2NH2NC4H2C2H2SH13CHCH2CHCH2CHCH4C2H2C2S4CFeHSH2CHC2NH2CHC2H4S2HCHFeHSCH2CHCFeS2CNH2NH2SC2H4SHC2H2SCH3SC2HC4H4CH3C2HFeSH2CSFeH3C2FeH4SHCHCFeCFeS2H6FeHSFeS2FeS2FeSFe2S2HCH8C4HSHCFeHC6H7NHC6H5CHC2SH2NC2NC2SFeSCHCH2C2HNS4H2CH2CHCHCH3SHCH6FeH3CHCH2C2HC6H2C2HCH2CHCFeS2HFeS2FeSFeSH2S2CH3CH3SC7H4FeH2CSH4C2HSH2C2NHCHCFeH4NHCH2SHNC4H10CSNCH2CH5SHS2H2FeSFeS2FeS2FeSFeS3H2CSHS2H3C6H4C6H5C2SHC6H2NC4H4FeCH4CH4CH4CHCNSCFeH2CNCH3CHCHCHCFeH10CH7CH2C2NH2C2HC2H2SCHCNCH4C2HCHFeS2FeS2FeSFeSH2CHCHFeS2H4C6H4CH2SCH2CHCHC2NC4H14CHCHNCH2S2HC3FeC2HCHFeNCH3SHCH3SH2CH6CHC2H3NCH2SH2S2HFeSCHFeS2FeC2FeS2FeSHSFeCH2CH3C6H4CHSC3HCH2CSFeSHCH4CNCH3CH6C3NC4H14CHCNH2FeHCFeCSCH4CSHS2CHCHCFeCHFeS3FeS2FeS2FeSFeS3C2H3C6H4CH3C6H4CH2C6H4NH8CH3CH3CSHCH5CFeHNC6H10NC4H9FeH2C3NH3CHSHSHNHCSCHC2HNHFeS2HCH2CSHFeS2FeSFeHSHFeS2HCHC6H4C2NHC2HCSHSH3CHSHCHFeH5SHCHC2H6SCSHCHCH2CHCH3SCHC4H2FeC2NCHCH5SFeC2HCH6SH4CHSCFeHSFeS2FeSCFeS2FeS2FeSFeS3HCH2C7H4C6H4CN2H3NCH2CH2CNC4H12NC4H12SC4H6CHSH4C2HC2FeCH7CHCHFeHS2HCHS2H3SHFe2SFeHSC3HCSH2SCHFeCNC4HCHNCH7SH7C2H2CHCH3CHCHCHFeCHCHCFeCSH2CHFeS2FeS2FeS2FeSFeS3FeSCH4C6H5CH3CHC6H5CS2CH4C2HNCNC4H12NC4H3SH4FeCHC2H3CH6CHSCH4SC3SC
_chemical_formula_sum              "H1472 C920 Fe184 S368 N92"
_cell_length_a       58.7106
_cell_length_b       59.3893
_cell_length_c       58.846
_cell_angle_alpha    89.108
_cell_angle_beta     88.3921
_cell_angle_gamma    88.5167

_space_group_name_H-M_alt    "P 1"
_space_group_IT_number       1

loop_
  _space_group_symop_operation_xyz
  'x, y, z'

loop_
  _atom_site_type_symbol
  _atom_site_label
  _atom_site_symmetry_multiplicity
  _atom_site_fract_x
  _atom_site_fract_y
  _atom_site_fract_z
  _atom_site_occupancy
  H   H1        1.0  0.12821  0.23097  0.25232  1.0000
  C   C1        1.0  0.14117  0.23956  0.24130  1.0000
  H   H2        1.0  0.08671  0.05177  0.26029  1.0000
  Fe  Fe1       1.0  0.19352  0.15101  0.18029  1.0000
  S   S1        1.0  0.19241  0.17101  0.21256  1.0000
  S   S2        1.0  0.21213  0.11688  0.18438  1.0000
  Fe  Fe2       1.0  0.16669  0.18810  0.15456  1.0000
  S   S3        1.0  0.16450  0.21074  0.18486  1.0000
  S   S4        1.0  0.14964  0.19530  0.12062  1.0000
  Fe  Fe3       1.0  0.20119  0.20051  0.19033  1.0000
  S   S5        1.0  0.22981  0.22448  0.19763  1.0000
  Fe  Fe4       1.0  0.15577  0.17930  0.20505  1.0000
  S   S6        1.0  0.13039  0.18255  0.23510  1.0000
  S   S7        1.0  0.20420  0.18028  0.15818  1.0000
  S   S8        1.0  0.15594  0.15699  0.17455  1.0000
  Fe  Fe5       1.0  0.01737  0.12338  0.28436  1.0000
  H   H3        1.0  0.18772  0.21729  0.26733  1.0000
  S   S9        1.0  0.04325  0.12180  0.25460  1.0000
  H   H4        1.0  0.25851  0.15601  0.23253  1.0000
  H   H5        1.0  0.46705  0.06549  0.30338  1.0000
  H   H6        1.0  0.25050  0.18249  0.17563  1.0000
  H   H7        1.0  0.23526  0.22360  0.28135  1.0000
  H   H8        1.0  0.29249  0.03771  0.04376  1.0000
  Fe  Fe6       1.0  0.29353  0.02425  0.12163  1.0000
  S   S10       1.0  0.28074  0.06090  0.11906  1.0000
  S   S11       1.0  0.32437  0.01681  0.09873  1.0000
  S   S12       1.0  0.00561  0.05261  0.33077  1.0000
  H   H9        1.0  0.06777  0.07272  0.24830  1.0000
  H   H10       1.0  0.02403  0.04535  0.25494  1.0000
  H   H11       1.0  0.26535  0.12355  0.19261  1.0000
  C   C2        1.0  0.47038  0.09506  0.32414  1.0000
  C   C3        1.0  0.47874  0.07617  0.31181  1.0000
  H   H12       1.0  0.47503  0.01397  0.19131  1.0000
  C   C4        1.0  0.23044  0.10137  0.16542  1.0000
  C   C5        1.0  0.23803  0.07962  0.17199  1.0000
  C   C6        1.0  0.25317  0.06688  0.15793  1.0000
  C   C7        1.0  0.26113  0.07589  0.13719  1.0000
  C   C8        1.0  0.25362  0.09769  0.13064  1.0000
  C   C9        1.0  0.23827  0.11034  0.14459  1.0000
  H   H13       1.0  0.23211  0.07254  0.18808  1.0000
  H   H14       1.0  0.25879  0.05017  0.16323  1.0000
  H   H15       1.0  0.25969  0.10485  0.11465  1.0000
  H   H16       1.0  0.23253  0.12700  0.13923  1.0000
  C   C10       1.0  0.14980  0.22077  0.10433  1.0000
  C   C11       1.0  0.13914  0.22155  0.08317  1.0000
  H   H17       1.0  0.06104  0.24121  0.09202  1.0000
  H   H18       1.0  0.13128  0.20659  0.07710  1.0000
  C   C12       1.0  0.47399  0.02612  0.17680  1.0000
  C   C13       1.0  0.10632  0.16536  0.24030  1.0000
  C   C14       1.0  0.09241  0.16906  0.25984  1.0000
  C   C15       1.0  0.07308  0.15592  0.26453  1.0000
  C   C16       1.0  0.06742  0.13890  0.24966  1.0000
  C   C17       1.0  0.08137  0.13517  0.23016  1.0000
  C   C18       1.0  0.10070  0.14829  0.22549  1.0000
  H   H19       1.0  0.09659  0.18217  0.27145  1.0000
  H   H20       1.0  0.06257  0.15897  0.27961  1.0000
  H   H21       1.0  0.07714  0.12211  0.21850  1.0000
  H   H22       1.0  0.11118  0.14524  0.21038  1.0000
  H   H23       1.0  0.22213  0.20887  0.24464  1.0000
  H   H24       1.0  0.24292  0.17718  0.21680  1.0000
  H   H25       1.0  0.24950  0.06767  0.08054  1.0000
  H   H26       1.0  0.23154  0.02195  0.04277  1.0000
  Fe  Fe7       1.0  0.46852  0.00381  0.23493  1.0000
  N   N1        1.0  0.26865  0.15915  0.19722  1.0000
  C   C19       1.0  0.27866  0.13608  0.19598  1.0000
  H   H27       1.0  0.29491  0.17154  0.21814  1.0000
  H   H28       1.0  0.14811  0.24579  0.28563  1.0000
  N   N2        1.0  0.25742  0.04400  0.05392  1.0000
  H   H29       1.0  0.49081  0.04888  0.14064  1.0000
  H   H30       1.0  0.45224  0.09868  0.32502  1.0000
  C   C20       1.0  0.23976  0.23350  0.22417  1.0000
  C   C21       1.0  0.25367  0.06072  0.03546  1.0000
  C   C22       1.0  0.41682  0.00497  0.19731  1.0000
  C   C23       1.0  0.25112  0.16008  0.21571  1.0000
  S   S13       1.0  0.43403  0.01438  0.21970  1.0000
  H   H31       1.0  0.48265  0.04165  0.18185  1.0000
  H   H32       1.0  0.25275  0.00861  0.06021  1.0000
  H   H33       1.0  0.02759  0.07471  0.26042  1.0000
  C   C24       1.0  0.17140  0.21731  0.25819  1.0000
  C   C25       1.0  0.02933  0.05743  0.26791  1.0000
  H   H34       1.0  0.22562  0.05201  0.07152  1.0000
  H   H35       1.0  0.26341  0.05591  0.01967  1.0000
  H   H36       1.0  0.28678  0.13093  0.21217  1.0000
  H   H37       1.0  0.23533  0.06225  0.03124  1.0000
  N   N3        1.0  0.05285  0.05260  0.27519  1.0000
  C   C26       1.0  0.06875  0.05519  0.25546  1.0000
  C   C27       1.0  0.05872  0.06859  0.29298  1.0000
  C   C28       1.0  0.24423  0.05093  0.07454  1.0000
  C   C29       1.0  0.05449  0.02934  0.28443  1.0000
  C   C30       1.0  0.48214  0.03293  0.13693  1.0000
  H   H38       1.0  0.23747  0.14779  0.21296  1.0000
  H   H39       1.0  0.01694  0.05623  0.28251  1.0000
  H   H40       1.0  0.07638  0.06555  0.29885  1.0000
  H   H41       1.0  0.48985  0.02621  0.12083  1.0000
  S   S14       1.0  0.49523  0.03034  0.23566  1.0000
  H   H42       1.0  0.28536  0.02984  0.07241  1.0000
  C   C31       1.0  0.28655  0.17542  0.20174  1.0000
  H   H43       1.0  0.30000  0.17534  0.18803  1.0000
  H   H44       1.0  0.04286  0.02716  0.29957  1.0000
  H   H45       1.0  0.07205  0.02494  0.28990  1.0000
  H   H46       1.0  0.04958  0.01679  0.27171  1.0000
  H   H47       1.0  0.24423  0.15331  0.17166  1.0000
  C   C32       1.0  0.13888  0.24140  0.06966  1.0000
  H   H48       1.0  0.27065  0.16426  0.16093  1.0000
  H   H49       1.0  0.28810  0.05897  0.06521  1.0000
  H   H50       1.0  0.39159  0.03156  0.20249  1.0000
  H   H51       1.0  0.24695  0.03881  0.08891  1.0000
  H   H52       1.0  0.36699  0.02012  0.17113  1.0000
  S   S15       1.0  0.02702  0.11295  0.31966  1.0000
  C   C33       1.0  0.31962  0.00583  0.01514  1.0000
  H   H53       1.0  0.15868  0.20827  0.26911  1.0000
  H   H54       1.0  0.25928  0.07771  0.04037  1.0000
  H   H55       1.0  0.16833  0.23982  0.12813  1.0000
  H   H56       1.0  0.17413  0.20710  0.24262  1.0000
  H   H57       1.0  0.27926  0.19295  0.20279  1.0000
  C   C34       1.0  0.24996  0.02169  0.04671  1.0000
  H   H58       1.0  0.25974  0.01584  0.03131  1.0000
  H   H59       1.0  0.04705  0.06709  0.30815  1.0000
  C   C35       1.0  0.25806  0.16508  0.17539  1.0000
  C   C36       1.0  0.39652  0.01704  0.19242  1.0000
  C   C37       1.0  0.24070  0.23149  0.26548  1.0000
  C   C38       1.0  0.28193  0.04266  0.05896  1.0000
  C   C39       1.0  0.23314  0.22317  0.24473  1.0000
  H   H60       1.0  0.42371  0.18637  0.32348  1.0000
  H   H61       1.0  0.45557  0.03050  0.17477  1.0000
  C   C40       1.0  0.38251  0.01060  0.17460  1.0000
  H   H62       1.0  0.05744  0.08634  0.28665  1.0000
  H   H63       1.0  0.29178  0.13464  0.18202  1.0000
  H   H64       1.0  0.06472  0.04352  0.24161  1.0000
  H   H65       1.0  0.39736  0.15361  0.32414  1.0000
  H   H66       1.0  0.32877  0.01281  0.02898  1.0000
  N   N4        1.0  0.16336  0.24045  0.25248  1.0000
  H   H67       1.0  0.13096  0.24161  0.05328  1.0000
  H   H68       1.0  0.09035  0.24335  0.08283  1.0000
  N   N5        1.0  0.48438  0.01645  0.15585  1.0000
  Fe  Fe8       1.0  0.00155  0.13947  0.33223  1.0000
  H   H69       1.0  0.14262  0.22982  0.22531  1.0000
  C   C41       1.0  0.16005  0.24016  0.11193  1.0000
  H   H70       1.0  0.18376  0.24112  0.22145  1.0000
  C   C42       1.0  0.00838  0.00601  0.33237  1.0000
  H   H71       1.0  0.46390  0.03729  0.13382  1.0000
  S   S16       1.0  0.30643  0.00206  0.15026  1.0000
  C   C43       1.0  0.41343  0.24991  0.32152  1.0000
  H   H72       1.0  0.07812  0.24953  0.04326  1.0000
  H   H73       1.0  0.48386  0.24135  0.32441  1.0000
  H   H74       1.0  0.41856  0.24848  0.30378  1.0000
  C   C44       1.0  0.25537  0.24988  0.26591  1.0000
  Fe  Fe9       1.0  0.50066  0.02029  0.27202  1.0000
  H   H75       1.0  0.04870  0.24798  0.05220  1.0000
  S   S17       1.0  0.02058  0.23061  0.50122  1.0000
  H   H76       1.0  0.01656  0.21901  0.42149  1.0000
  C   C45       1.0  0.05831  0.24475  0.54656  1.0000
  H   H77       1.0  0.45320  0.13193  0.57706  1.0000
  C   C46       1.0  0.00527  0.20729  0.60626  1.0000
  H   H78       1.0  0.44346  0.16782  0.33778  1.0000
  H   H79       1.0  0.41723  0.13681  0.34031  1.0000
  Fe  Fe10      1.0  0.47058  0.20936  0.38093  1.0000
  H   H80       1.0  0.05263  0.22863  0.55454  1.0000
  S   S18       1.0  0.47198  0.17621  0.40002  1.0000
  Fe  Fe11      1.0  0.48613  0.21942  0.63002  1.0000
  H   H81       1.0  0.37582  0.17911  0.36468  1.0000
  S   S19       1.0  0.47386  0.18901  0.61266  1.0000
  S   S20       1.0  0.01042  0.16741  0.35717  1.0000
  H   H82       1.0  0.02909  0.20126  0.38507  1.0000
  C   C47       1.0  0.40289  0.14949  0.34170  1.0000
  H   H83       1.0  0.42267  0.17867  0.38599  1.0000
  N   N6        1.0  0.40997  0.16986  0.35347  1.0000
  C   C48       1.0  0.48208  0.19101  0.50228  1.0000
  H   H84       1.0  0.44460  0.20034  0.65357  1.0000
  H   H85       1.0  0.46397  0.19280  0.50594  1.0000
  H   H86       1.0  0.47795  0.18945  0.46583  1.0000
  H   H87       1.0  0.09931  0.24776  0.56499  1.0000
  C   C49       1.0  0.00612  0.18734  0.61966  1.0000
  H   H88       1.0  0.48209  0.10966  0.59891  1.0000
  C   C50       1.0  0.42904  0.18010  0.34049  1.0000
  C   C51       1.0  0.48150  0.10432  0.55342  1.0000
  H   H89       1.0  0.47545  0.10872  0.53609  1.0000
  C   C52       1.0  0.48997  0.18913  0.47944  1.0000
  C   C53       1.0  0.41749  0.16358  0.37654  1.0000
  S   S21       1.0  0.46451  0.24453  0.65097  1.0000
  C   C54       1.0  0.00640  0.20613  0.41427  1.0000
  H   H90       1.0  0.46762  0.09524  0.56265  1.0000
  Fe  Fe12      1.0  0.48964  0.16258  0.36821  1.0000
  H   H91       1.0  0.46176  0.14606  0.55092  1.0000
  H   H92       1.0  0.01864  0.00830  0.34710  1.0000
  N   N7        1.0  0.48777  0.12468  0.56569  1.0000
  S   S22       1.0  0.48606  0.19248  0.54887  1.0000
  S   S23       1.0  0.48671  0.13708  0.64740  1.0000
  C   C55       1.0  0.41992  0.23998  0.63681  1.0000
  S   S24       1.0  0.48661  0.19558  0.34894  1.0000
  H   H93       1.0  0.42650  0.22712  0.62540  1.0000
  C   C56       1.0  0.43910  0.18477  0.66266  1.0000
  C   C57       1.0  0.49563  0.11819  0.58860  1.0000
  S   S25       1.0  0.47348  0.13228  0.35147  1.0000
  H   H94       1.0  0.39552  0.20171  0.36429  1.0000
  H   H95       1.0  0.38489  0.23610  0.62760  1.0000
  H   H96       1.0  0.01029  0.18806  0.63740  1.0000
  C   C58       1.0  0.39066  0.18630  0.35519  1.0000
  C   C59       1.0  0.39632  0.24519  0.63802  1.0000
  H   H97       1.0  0.44862  0.17030  0.65474  1.0000
  H   H98       1.0  0.40369  0.15544  0.38677  1.0000
  H   H99       1.0  0.47174  0.15539  0.57743  1.0000
  H   H100      1.0  0.49631  0.09236  0.55141  1.0000
  H   H101      1.0  0.43576  0.19453  0.34974  1.0000
  C   C60       1.0  0.46768  0.14008  0.56786  1.0000
  S   S26       1.0  0.43752  0.23019  0.38342  1.0000
  H   H102      1.0  0.00845  0.22325  0.61402  1.0000
  C   C61       1.0  0.01347  0.19600  0.39354  1.0000
  H   H103      1.0  0.44296  0.23138  0.33366  1.0000
  H   H104      1.0  0.43241  0.15158  0.37585  1.0000
  C   C62       1.0  0.42079  0.24207  0.36139  1.0000
  H   H105      1.0  0.42068  0.18284  0.65943  1.0000
  H   H106      1.0  0.03986  0.25001  0.58846  1.0000
  H   H107      1.0  0.38483  0.19188  0.33811  1.0000
  Fe  Fe13      1.0  0.00260  0.13160  0.66445  1.0000
  C   C63       1.0  0.42729  0.24022  0.33842  1.0000
  C   C64       1.0  0.48523  0.10914  0.33545  1.0000
  H   H108      1.0  0.38849  0.14127  0.35097  1.0000
  C   C65       1.0  0.49734  0.19078  0.52035  1.0000
  C   C66       1.0  0.49844  0.11438  0.66411  1.0000
  H   H109      1.0  0.07249  0.24093  0.53413  1.0000
  H   H110      1.0  0.07971  0.23540  0.58530  1.0000
  Fe  Fe14      1.0  0.50011  0.19608  0.58482  1.0000
  H   H111      1.0  0.50037  0.13318  0.59836  1.0000
  S   S27       1.0  0.00098  0.14087  0.62633  1.0000
  C   C67       1.0  0.00175  0.16653  0.61001  1.0000
  H   H112      1.0  0.50078  0.14157  0.53555  1.0000
  C   C68       1.0  0.07174  0.05506  0.74571  1.0000
  S   S28       1.0  0.27539  0.01178  0.89310  1.0000
  H   H113      1.0  0.15428  0.18385  0.73547  1.0000
  Fe  Fe15      1.0  0.02907  0.12556  0.70897  1.0000
  H   H114      1.0  0.20315  0.02052  0.80060  1.0000
  S   S29       1.0  0.06391  0.12144  0.72555  1.0000
  H   H115      1.0  0.22026  0.16005  0.92752  1.0000
  S   S30       1.0  0.00928  0.15475  0.69332  1.0000
  H   H116      1.0  0.36321  0.01871  0.91712  1.0000
  H   H117      1.0  0.41836  0.16140  0.69625  1.0000
  H   H118      1.0  0.04154  0.02310  0.75675  1.0000
  Fe  Fe16      1.0  0.29513  0.02941  0.86513  1.0000
  S   S31       1.0  0.28526  0.06101  0.84459  1.0000
  S   S32       1.0  0.32845  0.02501  0.88284  1.0000
  Fe  Fe17      1.0  0.15674  0.18657  0.79963  1.0000
  S   S33       1.0  0.18741  0.16475  0.79031  1.0000
  S   S34       1.0  0.12329  0.19017  0.78054  1.0000
  Fe  Fe18      1.0  0.18262  0.21151  0.83642  1.0000
  S   S35       1.0  0.21530  0.19205  0.82845  1.0000
  H   H119      1.0  0.17087  0.19546  0.75706  1.0000
  Fe  Fe19      1.0  0.20687  0.19711  0.79163  1.0000
  S   S36       1.0  0.23162  0.20444  0.76195  1.0000
  Fe  Fe20      1.0  0.19332  0.16169  0.82801  1.0000
  S   S37       1.0  0.20084  0.13111  0.85109  1.0000
  S   S38       1.0  0.17612  0.21897  0.79952  1.0000
  S   S39       1.0  0.16075  0.18107  0.83735  1.0000
  C   C69       1.0  0.24213  0.23119  0.75340  1.0000
  C   C70       1.0  0.25820  0.23245  0.73526  1.0000
  C   C71       1.0  0.13261  0.23857  0.91042  1.0000
  H   H120      1.0  0.26435  0.21712  0.72721  1.0000
  H   H121      1.0  0.05525  0.07718  0.71002  1.0000
  C   C72       1.0  0.17780  0.17900  0.89363  1.0000
  H   H122      1.0  0.41141  0.20330  0.69451  1.0000
  C   C73       1.0  0.26209  0.08077  0.84738  1.0000
  C   C74       1.0  0.25964  0.09783  0.83070  1.0000
  C   C75       1.0  0.24113  0.11345  0.83163  1.0000
  C   C76       1.0  0.22474  0.11213  0.84928  1.0000
  C   C77       1.0  0.22720  0.09509  0.86601  1.0000
  C   C78       1.0  0.24581  0.07955  0.86516  1.0000
  H   H123      1.0  0.27216  0.09899  0.81691  1.0000
  H   H124      1.0  0.23952  0.12647  0.81866  1.0000
  H   H125      1.0  0.21466  0.09395  0.87978  1.0000
  H   H126      1.0  0.24758  0.06671  0.87827  1.0000
  H   H127      1.0  0.03711  0.08536  0.74807  1.0000
  H   H128      1.0  0.46563  0.09964  0.67052  1.0000
  H   H129      1.0  0.39232  0.02503  0.91017  1.0000
  H   H130      1.0  0.48053  0.06720  0.69340  1.0000
  C   C79       1.0  0.43673  0.16466  0.69851  1.0000
  C   C80       1.0  0.08009  0.14090  0.74080  1.0000
  C   C81       1.0  0.10104  0.13357  0.74984  1.0000
  C   C82       1.0  0.11445  0.14830  0.76214  1.0000
  C   C83       1.0  0.10707  0.17062  0.76550  1.0000
  C   C84       1.0  0.08622  0.17799  0.75631  1.0000
  C   C85       1.0  0.07277  0.16324  0.74409  1.0000
  H   H131      1.0  0.10692  0.11636  0.74738  1.0000
  H   H132      1.0  0.13043  0.14238  0.76905  1.0000
  H   H133      1.0  0.08031  0.19520  0.75882  1.0000
  H   H134      1.0  0.05674  0.16915  0.73728  1.0000
  H   H135      1.0  0.21962  0.17032  0.87621  1.0000
  C   C86       1.0  0.03234  0.06733  0.74944  1.0000
  H   H136      1.0  0.14127  0.24548  0.73270  1.0000
  Fe  Fe21      1.0  0.47810  0.00656  0.76412  1.0000
  H   H137      1.0  0.02416  0.02705  0.73238  1.0000
  H   H138      1.0  0.17815  0.16432  0.88205  1.0000
  S   S40       1.0  0.32141  0.01189  0.94568  1.0000
  C   C87       1.0  0.49211  0.07957  0.68645  1.0000
  H   H139      1.0  0.24161  0.03495  0.79074  1.0000
  H   H140      1.0  0.01928  0.03609  0.67404  1.0000
  C   C88       1.0  0.04909  0.05971  0.71237  1.0000
  C   C89       1.0  0.14478  0.22826  0.73964  1.0000
  H   H141      1.0  0.42288  0.00096  0.73945  1.0000
  C   C90       1.0  0.18538  0.23143  0.73295  1.0000
  C   C91       1.0  0.16898  0.19483  0.73841  1.0000
  H   H142      1.0  0.47861  0.17565  0.68269  1.0000
  H   H143      1.0  0.07214  0.05005  0.76400  1.0000
  H   H144      1.0  0.44675  0.15004  0.69138  1.0000
  H   H145      1.0  0.43267  0.20645  0.71562  1.0000
  C   C92       1.0  0.20727  0.02227  0.81882  1.0000
  C   C93       1.0  0.04168  0.02907  0.73873  1.0000
  H   H146      1.0  0.20124  0.22385  0.72512  1.0000
  H   H147      1.0  0.18841  0.23272  0.75146  1.0000
  H   H148      1.0  0.11697  0.22963  0.91352  1.0000
  H   H149      1.0  0.14705  0.20591  0.70032  1.0000
  C   C94       1.0  0.31347  0.00328  0.97403  1.0000
  H   H150      1.0  0.23013  0.03738  0.85344  1.0000
  C   C95       1.0  0.37926  0.01189  0.90900  1.0000
  H   H151      1.0  0.47195  0.19008  0.70879  1.0000
  S   S41       1.0  0.02480  0.10326  0.67861  1.0000
  H   H152      1.0  0.24025  0.05314  0.81491  1.0000
  N   N8        1.0  0.44341  0.18599  0.68721  1.0000
  N   N9        1.0  0.04873  0.05276  0.73658  1.0000
  H   H153      1.0  0.06043  0.04847  0.70187  1.0000
  H   H154      1.0  0.18476  0.18652  0.73124  1.0000
  H   H155      1.0  0.26356  0.03339  0.81142  1.0000
  H   H156      1.0  0.07734  0.07287  0.74428  1.0000
  H   H157      1.0  0.37614  0.00952  0.89060  1.0000
  C   C96       1.0  0.42999  0.20506  0.69706  1.0000
  H   H158      1.0  0.15938  0.23314  0.69611  1.0000
  N   N10       1.0  0.23192  0.01869  0.82241  1.0000
  S   S42       1.0  0.44378  0.01780  0.78079  1.0000
  H   H159      1.0  0.19706  0.00986  0.82886  1.0000
  H   H160      1.0  0.18331  0.24887  0.72601  1.0000
  C   C97       1.0  0.16664  0.24496  0.88686  1.0000
  H   H161      1.0  0.43495  0.22138  0.68895  1.0000
  S   S43       1.0  0.47799  0.00683  0.72571  1.0000
  C   C98       1.0  0.46793  0.18947  0.69046  1.0000
  H   H162      1.0  0.08457  0.04443  0.73627  1.0000
  H   H163      1.0  0.47341  0.20566  0.68248  1.0000
  C   C99       1.0  0.20399  0.15946  0.91832  1.0000
  H   H164      1.0  0.19007  0.15611  0.93105  1.0000
  H   H165      1.0  0.14122  0.22089  0.87934  1.0000
  C   C100      1.0  0.21823  0.18429  0.88866  1.0000
  H   H166      1.0  0.23495  0.18537  0.89693  1.0000
  C   C101      1.0  0.01087  0.02217  0.68249  1.0000
  H   H167      1.0  0.37021  0.02027  0.82319  1.0000
  H   H168      1.0  0.43975  0.16494  0.71709  1.0000
  C   C102      1.0  0.14638  0.23353  0.89105  1.0000
  H   H169      1.0  0.39983  0.03467  0.79607  1.0000
  H   H170      1.0  0.19499  0.21603  0.91194  1.0000
  H   H171      1.0  0.17438  0.19436  0.88313  1.0000
  H   H172      1.0  0.21544  0.20027  0.87883  1.0000
  C   C103      1.0  0.38599  0.01075  0.82045  1.0000
  H   H173      1.0  0.03177  0.05937  0.70526  1.0000
  H   H174      1.0  0.20531  0.14479  0.90667  1.0000
  N   N11       1.0  0.16531  0.21770  0.72874  1.0000
  H   H175      1.0  0.17728  0.20812  0.69537  1.0000
  H   H176      1.0  0.40342  0.00726  0.94682  1.0000
  C   C104      1.0  0.48371  0.09806  0.67342  1.0000
  N   N12       1.0  0.19950  0.18064  0.90552  1.0000
  C   C105      1.0  0.19792  0.19980  0.92130  1.0000
  H   H177      1.0  0.21384  0.20139  0.93088  1.0000
  H   H178      1.0  0.18349  0.19805  0.93384  1.0000
  H   H179      1.0  0.16308  0.17713  0.90576  1.0000
  H   H180      1.0  0.05323  0.01759  0.72871  1.0000
  H   H181      1.0  0.22834  0.00731  0.85726  1.0000
  C   C106      1.0  0.40287  0.01889  0.80505  1.0000
  C   C107      1.0  0.23647  0.02087  0.84682  1.0000
  H   H182      1.0  0.20142  0.03944  0.82417  1.0000
  H   H183      1.0  0.12940  0.21801  0.73728  1.0000
  H   H184      1.0  0.01478  0.06605  0.74291  1.0000
  C   C108      1.0  0.32497  0.01229  0.99241  1.0000
  H   H185      1.0  0.14670  0.22970  0.75834  1.0000
  S   S44       1.0  0.18547  0.23834  0.86356  1.0000
  C   C109      1.0  0.16210  0.21617  0.70401  1.0000
  H   H186      1.0  0.25504  0.01978  0.84982  1.0000
  C   C110      1.0  0.24484  0.03575  0.80923  1.0000
  H   H187      1.0  0.03160  0.06265  0.76781  1.0000
  H   H188      1.0  0.33819  0.02435  0.98904  1.0000
  Fe  Fe22      1.0  0.30921  0.00467  0.90960  1.0000
  C   C111      1.0  0.42360  0.00688  0.80117  1.0000
  H   H189      1.0  0.37420  0.00057  0.95313  1.0000
  H   H190      1.0  0.08311  0.29965  0.05510  1.0000
  Fe  Fe23      1.0  0.22751  0.47743  0.00994  1.0000
  H   H191      1.0  0.16774  0.27491  0.10451  1.0000
  C   C112      1.0  0.48904  0.29818  0.32531  1.0000
  H   H192      1.0  0.49988  0.48402  0.22993  1.0000
  Fe  Fe24      1.0  0.31264  0.33235  0.29525  1.0000
  S   S45       1.0  0.32003  0.29834  0.27949  1.0000
  S   S46       1.0  0.30783  0.36793  0.27997  1.0000
  Fe  Fe25      1.0  0.29067  0.28568  0.30120  1.0000
  S   S47       1.0  0.34704  0.49132  0.21413  1.0000
  Fe  Fe26      1.0  0.34125  0.29093  0.31049  1.0000
  H   H193      1.0  0.12188  0.40616  0.00798  1.0000
  S   S48       1.0  0.28138  0.32019  0.31462  1.0000
  C   C113      1.0  0.25470  0.25162  0.22455  1.0000
  H   H194      1.0  0.36936  0.41835  0.18452  1.0000
  C   C114      1.0  0.02440  0.31676  0.01105  1.0000
  H   H195      1.0  0.18159  0.41094  0.04279  1.0000
  H   H196      1.0  0.03333  0.27250  0.08296  1.0000
  H   H197      1.0  0.35087  0.39973  0.19992  1.0000
  H   H198      1.0  0.36018  0.39317  0.17136  1.0000
  Fe  Fe27      1.0  0.37757  0.46783  0.21549  1.0000
  S   S49       1.0  0.38032  0.43216  0.23059  1.0000
  S   S50       1.0  0.38671  0.47126  0.17815  1.0000
  Fe  Fe28      1.0  0.13353  0.29529  0.02700  1.0000
  S   S51       1.0  0.11669  0.32979  0.02633  1.0000
  S   S52       1.0  0.14906  0.28644  0.06128  1.0000
  H   H199      1.0  0.35441  0.44213  0.15279  1.0000
  C   C115      1.0  0.35459  0.40714  0.18274  1.0000
  H   H200      1.0  0.34618  0.41690  0.13902  1.0000
  S   S53       1.0  0.10432  0.27924  0.01015  1.0000
  H   H201      1.0  0.05849  0.27225  0.03657  1.0000
  C   C116      1.0  0.31551  0.40419  0.17162  1.0000
  H   H202      1.0  0.06702  0.37867  0.02279  1.0000
  H   H203      1.0  0.34210  0.44881  0.19309  1.0000
  H   H204      1.0  0.10287  0.27685  0.06075  1.0000
  C   C117      1.0  0.49736  0.49208  0.21355  1.0000
  C   C118      1.0  0.16934  0.39111  0.01537  1.0000
  S   S54       1.0  0.31231  0.27668  0.33143  1.0000
  S   S55       1.0  0.33594  0.32578  0.32434  1.0000
  C   C119      1.0  0.33320  0.46726  0.01531  1.0000
  C   C120      1.0  0.32852  0.38571  0.26697  1.0000
  C   C121      1.0  0.35087  0.37821  0.26213  1.0000
  C   C122      1.0  0.36651  0.39278  0.25126  1.0000
  C   C123      1.0  0.36010  0.41504  0.24525  1.0000
  C   C124      1.0  0.33785  0.42267  0.25044  1.0000
  C   C125      1.0  0.32212  0.40803  0.26109  1.0000
  H   H205      1.0  0.35606  0.36111  0.26654  1.0000
  H   H206      1.0  0.38369  0.38670  0.24739  1.0000
  H   H207      1.0  0.33275  0.43983  0.24623  1.0000
  H   H208      1.0  0.30489  0.41403  0.26480  1.0000
  H   H209      1.0  0.28180  0.36983  0.32143  1.0000
  Fe  Fe29      1.0  0.35680  0.49577  0.17672  1.0000
  C   C126      1.0  0.00496  0.32128  0.02505  1.0000
  H   H210      1.0  0.09254  0.29416  0.08351  1.0000
  C   C127      1.0  0.32764  0.43771  0.18991  1.0000
  N   N13       1.0  0.06841  0.27061  0.07150  1.0000
  C   C128      1.0  0.10910  0.39336  0.01310  1.0000
  H   H211      1.0  0.05149  0.29235  0.09585  1.0000
  H   H212      1.0  0.17412  0.26830  0.23124  1.0000
  H   H213      1.0  0.27377  0.27390  0.24531  1.0000
  H   H214      1.0  0.47176  0.30293  0.31917  1.0000
  S   S56       1.0  0.37625  0.27356  0.30541  1.0000
  C   C129      1.0  0.32040  0.49435  0.12393  1.0000
  N   N14       1.0  0.33456  0.41971  0.17392  1.0000
  C   C130      1.0  0.48336  0.25895  0.31761  1.0000
  C   C131      1.0  0.39289  0.26142  0.32734  1.0000
  H   H215      1.0  0.15469  0.27116  0.26991  1.0000
  H   H216      1.0  0.32004  0.39048  0.15950  1.0000
  H   H217      1.0  0.34128  0.45087  0.02038  1.0000
  H   H218      1.0  0.19675  0.25344  0.24532  1.0000
  C   C132      1.0  0.19055  0.42620  0.01038  1.0000
  C   C133      1.0  0.04810  0.28360  0.07975  1.0000
  S   S57       1.0  0.26526  0.47049  0.00535  1.0000
  H   H219      1.0  0.31356  0.44861  0.18318  1.0000
  H   H220      1.0  0.07183  0.42013  0.01635  1.0000
  C   C134      1.0  0.14917  0.26078  0.07727  1.0000
  C   C135      1.0  0.29939  0.48717  0.11596  1.0000
  S   S58       1.0  0.20370  0.44959  0.02314  1.0000
  H   H221      1.0  0.32185  0.43067  0.20664  1.0000
  C   C136      1.0  0.06319  0.25959  0.04996  1.0000
  C   C137      1.0  0.15968  0.26004  0.09849  1.0000
  H   H222      1.0  0.32568  0.43942  0.14430  1.0000
  H   H223      1.0  0.16200  0.37846  0.02657  1.0000
  H   H224      1.0  0.30003  0.41326  0.16532  1.0000
  C   C138      1.0  0.16068  0.25358  0.27356  1.0000
  H   H225      1.0  0.31081  0.39611  0.18827  1.0000
  C   C139      1.0  0.34047  0.42988  0.15150  1.0000
  C   C140      1.0  0.18054  0.40958  0.02454  1.0000
  H   H226      1.0  0.04281  0.29670  0.06701  1.0000
  H   H227      1.0  0.31462  0.46630  0.01950  1.0000
  H   H228      1.0  0.32338  0.37467  0.32670  1.0000
  S   S59       1.0  0.26347  0.26024  0.29263  1.0000
  H   H229      1.0  0.10365  0.39650  0.03105  1.0000
  S   S60       1.0  0.05205  0.32240  0.02144  1.0000
  H   H230      1.0  0.11822  0.37674  0.01276  1.0000
  C   C141      1.0  0.26250  0.25977  0.24527  1.0000
  H   H231      1.0  0.49536  0.25949  0.30263  1.0000
  C   C142      1.0  0.47510  0.49414  0.20505  1.0000
  H   H232      1.0  0.33992  0.48053  0.02631  1.0000
  C   C143      1.0  0.08750  0.28604  0.06756  1.0000
  H   H233      1.0  0.27708  0.48509  0.08735  1.0000
  S   S61       1.0  0.40110  0.49528  0.22501  1.0000
  H   H234      1.0  0.00710  0.32769  0.04194  1.0000
  C   C144      1.0  0.07336  0.37635  0.00496  1.0000
  H   H235      1.0  0.08150  0.35925  0.00413  1.0000
  H   H236      1.0  0.26007  0.25964  0.20872  1.0000
  H   H237      1.0  0.29836  0.40693  0.31633  1.0000
  H   H238      1.0  0.17715  0.25448  0.28245  1.0000
  Fe  Fe30      1.0  0.08836  0.31395  0.00741  1.0000
  C   C145      1.0  0.18019  0.25130  0.23696  1.0000
  H   H239      1.0  0.13435  0.25667  0.23690  1.0000
  H   H240      1.0  0.46079  0.48762  0.21484  1.0000
  C   C146      1.0  0.29327  0.49078  0.09308  1.0000
  H   H241      1.0  0.46585  0.26258  0.31145  1.0000
  H   H242      1.0  0.28771  0.47874  0.12760  1.0000
  S   S62       1.0  0.32703  0.48915  0.15308  1.0000
  H   H243      1.0  0.07917  0.26101  0.10504  1.0000
  C   C147      1.0  0.07494  0.25329  0.08861  1.0000
  Fe  Fe31      1.0  0.02794  0.26756  0.49509  1.0000
  S   S63       1.0  0.06607  0.27585  0.49322  1.0000
  H   H244      1.0  0.35822  0.27088  0.60076  1.0000
  H   H245      1.0  0.30765  0.30758  0.61355  1.0000
  S   S64       1.0  0.30055  0.32376  0.37994  1.0000
  H   H246      1.0  0.15051  0.33723  0.46789  1.0000
  C   C148      1.0  0.38743  0.26203  0.65259  1.0000
  H   H247      1.0  0.34466  0.31999  0.56283  1.0000
  S   S65       1.0  0.29995  0.35471  0.62440  1.0000
  N   N15       1.0  0.48959  0.27511  0.33511  1.0000
  Fe  Fe32      1.0  0.16204  0.37285  0.50075  1.0000
  S   S66       1.0  0.18963  0.34650  0.49592  1.0000
  S   S67       1.0  0.12366  0.36599  0.49949  1.0000
  Fe  Fe33      1.0  0.19721  0.41144  0.50391  1.0000
  S   S68       1.0  0.22697  0.38675  0.49852  1.0000
  S   S69       1.0  0.20757  0.44750  0.51294  1.0000
  Fe  Fe34      1.0  0.20599  0.37126  0.47146  1.0000
  S   S70       1.0  0.21206  0.36157  0.43416  1.0000
  Fe  Fe35      1.0  0.20814  0.36414  0.52341  1.0000
  S   S71       1.0  0.21988  0.34364  0.55447  1.0000
  S   S72       1.0  0.17753  0.39735  0.47531  1.0000
  S   S73       1.0  0.17930  0.38917  0.52984  1.0000
  C   C149      1.0  0.19818  0.47600  0.50770  1.0000
  C   C150      1.0  0.17804  0.48153  0.49647  1.0000
  H   H248      1.0  0.17152  0.33931  0.40841  1.0000
  H   H249      1.0  0.16759  0.46823  0.49047  1.0000
  H   H250      1.0  0.32363  0.28285  0.62216  1.0000
  C   C151      1.0  0.27797  0.35054  0.60491  1.0000
  C   C152      1.0  0.25923  0.33723  0.61029  1.0000
  C   C153      1.0  0.24177  0.33513  0.59452  1.0000
  C   C154      1.0  0.24290  0.34615  0.57319  1.0000
  C   C155      1.0  0.26208  0.35878  0.56751  1.0000
  C   C156      1.0  0.27934  0.36121  0.58341  1.0000
  H   H251      1.0  0.25796  0.32887  0.62673  1.0000
  H   H252      1.0  0.22714  0.32509  0.59899  1.0000
  H   H253      1.0  0.26370  0.36648  0.55080  1.0000
  H   H254      1.0  0.29393  0.37131  0.57897  1.0000
  H   H255      1.0  0.37058  0.27194  0.35501  1.0000
  H   H256      1.0  0.32138  0.36242  0.35482  1.0000
  C   C157      1.0  0.08434  0.25146  0.57652  1.0000
  C   C158      1.0  0.04546  0.26567  0.57951  1.0000
  C   C159      1.0  0.33013  0.31388  0.57357  1.0000
  C   C160      1.0  0.27550  0.33335  0.39493  1.0000
  C   C161      1.0  0.25433  0.33533  0.38464  1.0000
  C   C162      1.0  0.23517  0.34399  0.39694  1.0000
  C   C163      1.0  0.23682  0.35053  0.41972  1.0000
  C   C164      1.0  0.25794  0.34843  0.43006  1.0000
  C   C165      1.0  0.27717  0.33997  0.41768  1.0000
  H   H257      1.0  0.25270  0.33010  0.36724  1.0000
  H   H258      1.0  0.21892  0.34548  0.38877  1.0000
  H   H259      1.0  0.25950  0.35339  0.44755  1.0000
  H   H260      1.0  0.29345  0.33850  0.42582  1.0000
  H   H261      1.0  0.34234  0.33026  0.61350  1.0000
  H   H262      1.0  0.30701  0.28249  0.59706  1.0000
  H   H263      1.0  0.47312  0.25661  0.36236  1.0000
  C   C166      1.0  0.08152  0.30121  0.49560  1.0000
  C   C167      1.0  0.07087  0.32256  0.49587  1.0000
  C   C168      1.0  0.08401  0.34209  0.49741  1.0000
  C   C169      1.0  0.10791  0.34060  0.49906  1.0000
  C   C170      1.0  0.11848  0.31919  0.49935  1.0000
  C   C171      1.0  0.10540  0.29971  0.49737  1.0000
  H   H264      1.0  0.05255  0.32409  0.49457  1.0000
  H   H265      1.0  0.07557  0.35850  0.49721  1.0000
  H   H266      1.0  0.13675  0.31758  0.50107  1.0000
  H   H267      1.0  0.11386  0.28330  0.49733  1.0000
  H   H268      1.0  0.31971  0.32893  0.57898  1.0000
  H   H269      1.0  0.49360  0.31082  0.33809  1.0000
  H   H270      1.0  0.08986  0.26331  0.58963  1.0000
  H   H271      1.0  0.36744  0.32118  0.59775  1.0000
  C   C172      1.0  0.15321  0.33484  0.41041  1.0000
  H   H272      1.0  0.36719  0.28609  0.57560  1.0000
  H   H273      1.0  0.31927  0.30364  0.56271  1.0000
  C   C173      1.0  0.43486  0.25142  0.65041  1.0000
  H   H274      1.0  0.22703  0.48973  0.52410  1.0000
  S   S74       1.0  0.00477  0.27955  0.52359  1.0000
  C   C174      1.0  0.29196  0.39294  0.37248  1.0000
  H   H275      1.0  0.29325  0.37702  0.38274  1.0000
  H   H276      1.0  0.15229  0.31626  0.40864  1.0000
  H   H277      1.0  0.08647  0.27930  0.54011  1.0000
  Fe  Fe36      1.0  0.30503  0.31225  0.34304  1.0000
  H   H278      1.0  0.25274  0.40505  0.59699  1.0000
  C   C175      1.0  0.40026  0.25353  0.36720  1.0000
  C   C176      1.0  0.21140  0.49370  0.51543  1.0000
  H   H279      1.0  0.28091  0.35634  0.34884  1.0000
  H   H280      1.0  0.22956  0.45261  0.56157  1.0000
  N   N16       1.0  0.29645  0.38861  0.34806  1.0000
  C   C177      1.0  0.23499  0.44244  0.57670  1.0000
  H   H281      1.0  0.35844  0.30582  0.62272  1.0000
  H   H282      1.0  0.34188  0.26961  0.57544  1.0000
  H   H283      1.0  0.04389  0.25160  0.53661  1.0000
  H   H284      1.0  0.14397  0.34296  0.39608  1.0000
  H   H285      1.0  0.22704  0.41385  0.61207  1.0000
  H   H286      1.0  0.25394  0.44247  0.57686  1.0000
  N   N17       1.0  0.22651  0.41926  0.57582  1.0000
  C   C178      1.0  0.23589  0.40829  0.55513  1.0000
  C   C179      1.0  0.20135  0.42007  0.57522  1.0000
  H   H287      1.0  0.22884  0.39125  0.55321  1.0000
  H   H288      1.0  0.25478  0.40655  0.55538  1.0000
  H   H289      1.0  0.23164  0.41809  0.53956  1.0000
  H   H290      1.0  0.22834  0.45129  0.59213  1.0000
  H   H291      1.0  0.22774  0.38855  0.59567  1.0000
  H   H292      1.0  0.19365  0.42879  0.59027  1.0000
  H   H293      1.0  0.19438  0.40281  0.57505  1.0000
  H   H294      1.0  0.19531  0.42922  0.55972  1.0000
  C   C180      1.0  0.38633  0.26312  0.35029  1.0000
  C   C181      1.0  0.23382  0.40618  0.59606  1.0000
  H   H295      1.0  0.15450  0.31243  0.45106  1.0000
  N   N18       1.0  0.14357  0.34222  0.43263  1.0000
  C   C182      1.0  0.14542  0.36690  0.43440  1.0000
  C   C183      1.0  0.11933  0.33614  0.43486  1.0000
  C   C184      1.0  0.15644  0.33101  0.45099  1.0000
  H   H296      1.0  0.13841  0.37301  0.45107  1.0000
  H   H297      1.0  0.13592  0.37598  0.42082  1.0000
  H   H298      1.0  0.16351  0.37206  0.43295  1.0000
  H   H299      1.0  0.11727  0.31757  0.43428  1.0000
  H   H300      1.0  0.11163  0.34191  0.45136  1.0000
  H   H301      1.0  0.10909  0.34402  0.42110  1.0000
  H   H302      1.0  0.17498  0.33434  0.44924  1.0000
  N   N19       1.0  0.33814  0.30076  0.59349  1.0000
  C   C185      1.0  0.31823  0.29308  0.60715  1.0000
  C   C186      1.0  0.35196  0.28096  0.58591  1.0000
  C   C187      1.0  0.35221  0.31514  0.60745  1.0000
  C   C188      1.0  0.27944  0.37293  0.33996  1.0000
  H   H303      1.0  0.30441  0.40475  0.37924  1.0000
  H   H304      1.0  0.47745  0.28566  0.36826  1.0000
  C   C189      1.0  0.47321  0.27383  0.35461  1.0000
  Fe  Fe37      1.0  0.30729  0.33561  0.65764  1.0000
  H   H305      1.0  0.27451  0.40020  0.37562  1.0000
  H   H306      1.0  0.03043  0.27252  0.57025  1.0000
  H   H307      1.0  0.04970  0.27809  0.59258  1.0000
  C   C190      1.0  0.31955  0.37849  0.34491  1.0000
  H   H308      1.0  0.33290  0.38991  0.35061  1.0000
  H   H309      1.0  0.05764  0.28970  0.54209  1.0000
  H   H310      1.0  0.07684  0.29507  0.56453  1.0000
  C   C191      1.0  0.07180  0.28223  0.55220  1.0000
  H   H311      1.0  0.45546  0.27801  0.34943  1.0000
  H   H312      1.0  0.30749  0.42220  0.34041  1.0000
  S   S75       1.0  0.35752  0.26755  0.65376  1.0000
  H   H313      1.0  0.27759  0.41792  0.33657  1.0000
  N   N20       1.0  0.06499  0.26104  0.56372  1.0000
  C   C192      1.0  0.42595  0.26827  0.66494  1.0000
  H   H314      1.0  0.39504  0.25506  0.38491  1.0000
  C   C193      1.0  0.29487  0.40992  0.33482  1.0000
  S   S76       1.0  0.34493  0.33252  0.66418  1.0000
  S   S77       1.0  0.30077  0.29899  0.66463  1.0000
  H   H315      1.0  0.26172  0.37950  0.34291  1.0000
  C   C194      1.0  0.40240  0.27366  0.66595  1.0000
  C   C195      1.0  0.31720  0.47810  0.90970  1.0000
  H   H316      1.0  0.16389  0.27958  0.93307  1.0000
  H   H317      1.0  0.34431  0.34494  0.77277  1.0000
  S   S78       1.0  0.15215  0.36718  0.97913  1.0000
  C   C196      1.0  0.18905  0.42407  0.98681  1.0000
  H   H318      1.0  0.29363  0.49438  0.86039  1.0000
  Fe  Fe38      1.0  0.12292  0.28762  0.97702  1.0000
  S   S79       1.0  0.10523  0.32166  0.97340  1.0000
  C   C197      1.0  0.32314  0.46687  0.83779  1.0000
  Fe  Fe39      1.0  0.36582  0.47762  0.79125  1.0000
  S   S80       1.0  0.38304  0.47403  0.82506  1.0000
  S   S81       1.0  0.34047  0.45320  0.77652  1.0000
  H   H319      1.0  0.17632  0.40455  0.95940  1.0000
  C   C198      1.0  0.33152  0.48665  0.89208  1.0000
  H   H320      1.0  0.30928  0.45301  0.98028  1.0000
  S   S82       1.0  0.39607  0.49346  0.77396  1.0000
  C   C199      1.0  0.28665  0.47837  0.85420  1.0000
  H   H321      1.0  0.31428  0.32434  0.81127  1.0000
  Fe  Fe40      1.0  0.33574  0.33968  0.70084  1.0000
  S   S83       1.0  0.29875  0.34582  0.69373  1.0000
  S   S84       1.0  0.35758  0.36006  0.72431  1.0000
  H   H322      1.0  0.31713  0.46015  0.91308  1.0000
  Fe  Fe41      1.0  0.29547  0.30852  0.70137  1.0000
  S   S85       1.0  0.26772  0.30027  0.72800  1.0000
  S   S86       1.0  0.33235  0.30271  0.70956  1.0000
  C   C200      1.0  0.29643  0.48851  0.81532  1.0000
  C   C201      1.0  0.25842  0.27335  0.73748  1.0000
  C   C202      1.0  0.24235  0.27210  0.75563  1.0000
  H   H323      1.0  0.26815  0.48140  0.85147  1.0000
  H   H324      1.0  0.23602  0.28743  0.76356  1.0000
  C   C203      1.0  0.34591  0.42783  0.76120  1.0000
  C   C204      1.0  0.36730  0.41688  0.76069  1.0000
  C   C205      1.0  0.37052  0.39629  0.74919  1.0000
  C   C206      1.0  0.35258  0.38652  0.73774  1.0000
  C   C207      1.0  0.33123  0.39758  0.73806  1.0000
  C   C208      1.0  0.32790  0.41798  0.74990  1.0000
  H   H325      1.0  0.38132  0.42412  0.76933  1.0000
  H   H326      1.0  0.38711  0.38791  0.74909  1.0000
  H   H327      1.0  0.31729  0.39042  0.72923  1.0000
  H   H328      1.0  0.31129  0.42630  0.75010  1.0000
  C   C209      1.0  0.47790  0.49090  0.81282  1.0000
  H   H329      1.0  0.33270  0.46049  0.82255  1.0000
  H   H330      1.0  0.30765  0.33449  0.73990  1.0000
  H   H331      1.0  0.34432  0.32097  0.75489  1.0000
  H   H332      1.0  0.49567  0.46401  0.79495  1.0000
  H   H333      1.0  0.28752  0.33413  0.80016  1.0000
  H   H334      1.0  0.33133  0.48265  0.84275  1.0000
  H   H335      1.0  0.11138  0.40143  0.96869  1.0000
  H   H336      1.0  0.34741  0.31704  0.78496  1.0000
  H   H337      1.0  0.03585  0.30493  0.97819  1.0000
  N   N21       1.0  0.33740  0.47246  0.99091  1.0000
  S   S87       1.0  0.28501  0.48051  0.94462  1.0000
  S   S88       1.0  0.12080  0.26054  0.95000  1.0000
  H   H338      1.0  0.19654  0.43666  0.97563  1.0000
  C   C210      1.0  0.17280  0.26159  0.90216  1.0000
  H   H339      1.0  0.32559  0.45421  0.85168  1.0000
  H   H340      1.0  0.31430  0.29135  0.78572  1.0000
  H   H341      1.0  0.31151  0.35240  0.79955  1.0000
  H   H342      1.0  0.18843  0.27054  0.89912  1.0000
  H   H343      1.0  0.22195  0.25049  0.77761  1.0000
  C   C211      1.0  0.02121  0.30850  0.98926  1.0000
  H   H344      1.0  0.33612  0.43783  0.98075  1.0000
  C   C212      1.0  0.36217  0.47387  0.98616  1.0000
  H   H345      1.0  0.37122  0.45771  0.99040  1.0000
  H   H346      1.0  0.29794  0.44384  0.80939  1.0000
  C   C213      1.0  0.30628  0.30258  0.77276  1.0000
  H   H347      1.0  0.30578  0.48355  0.79933  1.0000
  C   C214      1.0  0.30240  0.34026  0.75713  1.0000
  H   H348      1.0  0.34269  0.47537  0.88248  1.0000
  H   H349      1.0  0.27829  0.49178  0.81112  1.0000
  H   H350      1.0  0.30722  0.35821  0.75818  1.0000
  C   C215      1.0  0.33843  0.32728  0.77184  1.0000
  H   H351      1.0  0.28347  0.33942  0.75835  1.0000
  H   H352      1.0  0.28743  0.30117  0.77477  1.0000
  H   H353      1.0  0.28837  0.46567  0.86822  1.0000
  H   H354      1.0  0.36974  0.48734  0.99629  1.0000
  C   C216      1.0  0.30636  0.33464  0.79749  1.0000
  Fe  Fe42      1.0  0.26334  0.49407  0.97494  1.0000
  C   C217      1.0  0.17751  0.40580  0.97764  1.0000
  H   H355      1.0  0.33037  0.45823  0.95852  1.0000
  N   N22       1.0  0.31338  0.32617  0.77482  1.0000
  C   C218      1.0  0.30308  0.49254  0.92303  1.0000
  H   H356      1.0  0.31102  0.29573  0.75572  1.0000
  N   N23       1.0  0.29877  0.47087  0.83316  1.0000
  H   H357      1.0  0.36584  0.47778  0.96786  1.0000
  C   C219      1.0  0.15892  0.26676  0.92145  1.0000
  C   C220      1.0  0.13874  0.25523  0.92572  1.0000
  H   H358      1.0  0.30746  0.49343  0.98780  1.0000
  S   S89       1.0  0.45042  0.48060  0.80633  1.0000
  C   C221      1.0  0.32797  0.45455  0.97704  1.0000
  C   C222      1.0  0.32619  0.49426  0.98509  1.0000
  C   C223      1.0  0.09778  0.38960  0.97419  1.0000
  Fe  Fe43      1.0  0.33832  0.29623  0.67224  1.0000
  C   C224      1.0  0.28900  0.44977  0.82528  1.0000
  H   H359      1.0  0.10536  0.37232  0.97256  1.0000
  H   H360      1.0  0.08376  0.39109  0.96190  1.0000
  H   H361      1.0  0.39584  0.28665  0.67723  1.0000
  Fe  Fe44      1.0  0.41265  0.49256  0.80814  1.0000
  H   H362      1.0  0.27061  0.45210  0.82157  1.0000
  H   H363      1.0  0.29065  0.43606  0.83828  1.0000
  C   C225      1.0  0.49755  0.47916  0.80463  1.0000
  H   H364      1.0  0.08999  0.42983  0.99332  1.0000
  H   H365      1.0  0.27875  0.25406  0.71341  1.0000
  H   H366      1.0  0.06323  0.41736  0.98745  1.0000
  C   C226      1.0  0.16760  0.38915  0.99180  1.0000
  Fe  Fe45      1.0  0.13499  0.33486  0.99267  1.0000
  C   C227      1.0  0.23429  0.25116  0.76362  1.0000
  S   S90       1.0  0.15356  0.30109  0.99416  1.0000
  H   H367      1.0  0.43734  0.27723  0.67553  1.0000
  S   S91       1.0  0.22499  0.49973  0.97848  1.0000
  C   C228      1.0  0.26641  0.25338  0.72740  1.0000
  H   H368      1.0  0.32922  0.49898  0.96688  1.0000
  N   N24       1.0  0.08957  0.39390  0.99775  1.0000
  C   C229      1.0  0.07810  0.41631  0.99876  1.0000
  H   H369      1.0  0.05835  0.37619  0.99384  1.0000
  H   H370      1.0  0.34079  0.51738  0.07413  1.0000
  H   H371      1.0  0.41100  0.54211  0.21458  1.0000
  S   S92       1.0  0.13185  0.62946  0.00182  1.0000
  Fe  Fe46      1.0  0.13406  0.71575  0.01927  1.0000
  C   C230      1.0  0.06812  0.64660  0.04454  1.0000
  S   S93       1.0  0.11103  0.68802  0.03122  1.0000
  Fe  Fe47      1.0  0.34460  0.69996  0.31799  1.0000
  S   S94       1.0  0.32489  0.69905  0.28553  1.0000
  C   C231      1.0  0.27180  0.66154  0.22027  1.0000
  S   S95       1.0  0.28567  0.67175  0.31547  1.0000
  Fe  Fe48      1.0  0.31780  0.66295  0.29524  1.0000
  S   S96       1.0  0.31501  0.63852  0.26582  1.0000
  Fe  Fe49      1.0  0.29404  0.70780  0.30742  1.0000
  H   H372      1.0  0.07864  0.63937  0.00038  1.0000
  Fe  Fe50      1.0  0.37114  0.51942  0.22044  1.0000
  S   S97       1.0  0.37047  0.54592  0.24835  1.0000
  S   S98       1.0  0.37869  0.52576  0.18315  1.0000
  H   H373      1.0  0.01809  0.63615  0.01933  1.0000
  N   N25       1.0  0.25625  0.56360  0.06872  1.0000
  C   C232      1.0  0.33079  0.61292  0.26114  1.0000
  C   C233      1.0  0.32671  0.60038  0.24161  1.0000
  C   C234      1.0  0.33868  0.57987  0.23731  1.0000
  C   C235      1.0  0.35484  0.57166  0.25259  1.0000
  C   C236      1.0  0.35900  0.58428  0.27204  1.0000
  C   C237      1.0  0.34708  0.60478  0.27631  1.0000
  H   H374      1.0  0.31415  0.60648  0.22976  1.0000
  H   H375      1.0  0.33528  0.57037  0.22230  1.0000
  H   H376      1.0  0.37141  0.57806  0.28401  1.0000
  H   H377      1.0  0.35040  0.61420  0.29140  1.0000
  C   C238      1.0  0.26851  0.56164  0.04654  1.0000
  H   H378      1.0  0.05152  0.60484  0.04602  1.0000
  H   H379      1.0  0.23877  0.69357  0.21970  1.0000
  H   H380      1.0  0.35146  0.51088  0.11436  1.0000
  H   H381      1.0  0.02346  0.63658  0.04929  1.0000
  H   H382      1.0  0.13203  0.71938  0.07975  1.0000
  C   C239      1.0  0.15444  0.74590  0.06920  1.0000
  H   H383      1.0  0.26512  0.57655  0.03531  1.0000
  H   H384      1.0  0.02698  0.66149  0.03216  1.0000
  C   C240      1.0  0.26494  0.68156  0.25526  1.0000
  H   H385      1.0  0.25510  0.58568  0.09734  1.0000
  H   H386      1.0  0.25445  0.65442  0.22136  1.0000
  H   H387      1.0  0.42506  0.55971  0.19398  1.0000
  H   H388      1.0  0.27713  0.66262  0.20200  1.0000
  H   H389      1.0  0.22724  0.58080  0.05421  1.0000
  H   H390      1.0  0.12968  0.73107  0.12021  1.0000
  C   C241      1.0  0.19674  0.58320  0.00448  1.0000
  H   H391      1.0  0.28726  0.55962  0.04856  1.0000
  H   H392      1.0  0.24717  0.67562  0.25713  1.0000
  C   C242      1.0  0.26395  0.58372  0.08048  1.0000
  C   C243      1.0  0.29564  0.69236  0.22956  1.0000
  H   H393      1.0  0.26188  0.70259  0.20130  1.0000
  C   C244      1.0  0.23147  0.56577  0.06502  1.0000
  H   H394      1.0  0.29664  0.70910  0.23762  1.0000
  H   H395      1.0  0.28361  0.64922  0.22871  1.0000
  C   C245      1.0  0.47138  0.50491  0.18409  1.0000
  C   C246      1.0  0.05648  0.61151  0.02886  1.0000
  C   C247      1.0  0.02950  0.64284  0.03230  1.0000
  H   H396      1.0  0.29315  0.74226  0.26202  1.0000
  H   H397      1.0  0.06617  0.66532  0.04413  1.0000
  S   S99       1.0  0.15482  0.73990  0.03966  1.0000
  N   N26       1.0  0.43677  0.56235  0.22820  1.0000
  C   C248      1.0  0.42729  0.56032  0.25167  1.0000
  C   C249      1.0  0.41852  0.55892  0.21193  1.0000
  C   C250      1.0  0.45499  0.54504  0.22462  1.0000
  C   C251      1.0  0.44618  0.58499  0.22452  1.0000
  C   C252      1.0  0.19801  0.60645  0.00863  1.0000
  H   H398      1.0  0.42017  0.54332  0.25497  1.0000
  H   H399      1.0  0.41304  0.57275  0.25479  1.0000
  C   C253      1.0  0.00245  0.70838  0.02261  1.0000
  H   H400      1.0  0.40432  0.57159  0.21406  1.0000
  H   H401      1.0  0.44825  0.52778  0.22698  1.0000
  H   H402      1.0  0.46910  0.54681  0.23663  1.0000
  H   H403      1.0  0.46247  0.54602  0.20703  1.0000
  H   H404      1.0  0.45333  0.58700  0.20689  1.0000
  H   H405      1.0  0.46012  0.58807  0.23644  1.0000
  H   H406      1.0  0.43279  0.59840  0.22714  1.0000
  S   S100      1.0  0.38152  0.71076  0.32065  1.0000
  H   H407      1.0  0.26051  0.59935  0.07031  1.0000
  H   H408      1.0  0.30788  0.68073  0.23832  1.0000
  C   C254      1.0  0.06058  0.64432  0.00461  1.0000
  C   C255      1.0  0.14128  0.73379  0.08510  1.0000
  H   H409      1.0  0.42819  0.72110  0.32756  1.0000
  C   C256      1.0  0.02200  0.70229  0.00943  1.0000
  H   H410      1.0  0.26563  0.69792  0.26411  1.0000
  H   H411      1.0  0.07456  0.60613  0.02529  1.0000
  C   C257      1.0  0.49036  0.51306  0.17160  1.0000
  H   H412      1.0  0.25610  0.52766  0.07410  1.0000
  H   H413      1.0  0.26296  0.54668  0.03732  1.0000
  H   H414      1.0  0.44048  0.56300  0.26449  1.0000
  C   C258      1.0  0.15714  0.61208  0.00339  1.0000
  Fe  Fe51      1.0  0.23262  0.52854  0.00194  1.0000
  H   H415      1.0  0.06357  0.64080  0.06212  1.0000
  H   H416      1.0  0.27615  0.66933  0.26449  1.0000
  C   C259      1.0  0.25651  0.69974  0.21938  1.0000
  S   S101      1.0  0.33956  0.66313  0.32613  1.0000
  S   S102      1.0  0.04952  0.70855  0.01969  1.0000
  H   H417      1.0  0.22512  0.55092  0.05602  1.0000
  C   C260      1.0  0.27598  0.74783  0.25819  1.0000
  C   C261      1.0  0.26115  0.54325  0.08274  1.0000
  H   H418      1.0  0.27970  0.54127  0.08600  1.0000
  Fe  Fe52      1.0  0.08617  0.70247  0.00585  1.0000
  H   H419      1.0  0.08651  0.64230  0.04125  1.0000
  H   H420      1.0  0.25583  0.71648  0.22764  1.0000
  H   H421      1.0  0.28262  0.58262  0.08341  1.0000
  H   H422      1.0  0.22157  0.56729  0.08134  1.0000
  H   H423      1.0  0.30173  0.69430  0.21159  1.0000
  N   N27       1.0  0.27221  0.68382  0.23110  1.0000
  H   H424      1.0  0.25193  0.54385  0.09950  1.0000
  S   S103      1.0  0.26303  0.73042  0.30049  1.0000
  Fe  Fe53      1.0  0.12655  0.66792  0.00209  1.0000
  S   S104      1.0  0.23298  0.50662  0.03356  1.0000
  S   S105      1.0  0.44342  0.50988  0.17339  1.0000
  N   N28       1.0  0.05364  0.63630  0.02759  1.0000
  C   C262      1.0  0.17839  0.62076  0.00821  1.0000
  H   H425      1.0  0.48778  0.52141  0.15537  1.0000
  H   H426      1.0  0.07638  0.73435  0.05189  1.0000
  H   H427      1.0  0.17975  0.63851  0.01166  1.0000
  H   H428      1.0  0.00435  0.71736  0.03828  1.0000
  C   C263      1.0  0.09052  0.74387  0.05910  1.0000
  S   S106      1.0  0.22231  0.56618  0.00518  1.0000
  H   H429      1.0  0.21431  0.61346  0.01225  1.0000
  C   C264      1.0  0.14007  0.74038  0.10805  1.0000
  C   C265      1.0  0.33526  0.50523  0.10859  1.0000
  C   C266      1.0  0.25831  0.74460  0.27423  1.0000
  H   H430      1.0  0.10633  0.73936  0.04916  1.0000
  H   H431      1.0  0.05909  0.66299  0.00325  1.0000
  Fe  Fe54      1.0  0.27050  0.50106  0.02647  1.0000
  C   C267      1.0  0.30813  0.50168  0.07777  1.0000
  H   H432      1.0  0.09286  0.73771  0.07685  1.0000
  H   H433      1.0  0.04578  0.60324  0.01625  1.0000
  C   C268      1.0  0.32913  0.50887  0.08572  1.0000
  S   S107      1.0  0.30126  0.50731  0.04877  1.0000
  Fe  Fe55      1.0  0.40800  0.50061  0.18780  1.0000
  C   C269      1.0  0.17546  0.57447  0.99990  1.0000
  Fe  Fe56      1.0  0.01967  0.73158  0.49427  1.0000
  S   S108      1.0  0.04878  0.71003  0.47782  1.0000
  Fe  Fe57      1.0  0.30795  0.67497  0.34557  1.0000
  S   S109      1.0  0.30200  0.66658  0.38320  1.0000
  H   H434      1.0  0.10085  0.68697  0.53947  1.0000
  H   H435      1.0  0.06669  0.70692  0.52415  1.0000
  Fe  Fe58      1.0  0.21474  0.62548  0.51889  1.0000
  S   S110      1.0  0.18111  0.61095  0.53022  1.0000
  S   S111      1.0  0.24284  0.64053  0.53981  1.0000
  Fe  Fe59      1.0  0.20284  0.62437  0.46844  1.0000
  S   S112      1.0  0.16787  0.61116  0.47687  1.0000
  S   S113      1.0  0.21199  0.62700  0.43049  1.0000
  Fe  Fe60      1.0  0.16555  0.63598  0.50526  1.0000
  S   S114      1.0  0.13666  0.65920  0.51943  1.0000
  Fe  Fe61      1.0  0.18615  0.58703  0.50073  1.0000
  S   S115      1.0  0.17485  0.55051  0.49599  1.0000
  S   S116      1.0  0.19911  0.65113  0.49492  1.0000
  S   S117      1.0  0.22110  0.59967  0.49128  1.0000
  H   H436      1.0  0.23592  0.69558  0.34339  1.0000
  S   S118      1.0  0.26292  0.65296  0.64523  1.0000
  H   H437      1.0  0.22487  0.74714  0.37739  1.0000
  H   H438      1.0  0.27450  0.60399  0.65035  1.0000
  C   C270      1.0  0.24819  0.64332  0.56928  1.0000
  C   C271      1.0  0.23500  0.63285  0.58636  1.0000
  C   C272      1.0  0.23971  0.63609  0.60947  1.0000
  C   C273      1.0  0.25772  0.64968  0.61581  1.0000
  C   C274      1.0  0.27095  0.66008  0.59875  1.0000
  C   C275      1.0  0.26618  0.65690  0.57565  1.0000
  H   H439      1.0  0.22136  0.62203  0.58181  1.0000
  H   H440      1.0  0.22943  0.62788  0.62252  1.0000
  H   H441      1.0  0.28489  0.67052  0.60331  1.0000
  H   H442      1.0  0.27657  0.66502  0.56261  1.0000
  H   H443      1.0  0.19461  0.57776  0.45524  1.0000
  C   C276      1.0  0.18433  0.52202  0.50111  1.0000
  H   H444      1.0  0.20645  0.55137  0.39936  1.0000
  H   H445      1.0  0.02290  0.72630  0.43766  1.0000
  H   H446      1.0  0.21498  0.52982  0.51820  1.0000
  C   C277      1.0  0.27713  0.65489  0.39607  1.0000
  C   C278      1.0  0.26045  0.64496  0.38328  1.0000
  C   C279      1.0  0.24066  0.63651  0.39412  1.0000
  C   C280      1.0  0.23739  0.63766  0.41785  1.0000
  C   C281      1.0  0.25419  0.64733  0.43068  1.0000
  C   C282      1.0  0.27394  0.65589  0.41982  1.0000
  H   H447      1.0  0.26283  0.64366  0.36504  1.0000
  H   H448      1.0  0.22782  0.62897  0.38405  1.0000
  H   H449      1.0  0.25193  0.64828  0.44896  1.0000
  H   H450      1.0  0.28678  0.66339  0.42992  1.0000
  C   C283      1.0  0.20462  0.51652  0.51209  1.0000
  C   C284      1.0  0.23094  0.73555  0.36369  1.0000
  H   H451      1.0  0.17607  0.65159  0.58436  1.0000
  H   H452      1.0  0.35451  0.69634  0.36299  1.0000
  H   H453      1.0  0.19681  0.52862  0.41738  1.0000
  H   H454      1.0  0.15462  0.68864  0.58803  1.0000
  H   H455      1.0  0.49554  0.73250  0.63458  1.0000
  H   H456      1.0  0.46722  0.74127  0.64334  1.0000
  H   H457      1.0  0.17819  0.55615  0.44361  1.0000
  H   H458      1.0  0.25890  0.68500  0.36046  1.0000
  H   H459      1.0  0.24282  0.74501  0.35213  1.0000
  C   C285      1.0  0.07301  0.69590  0.48986  1.0000
  C   C286      1.0  0.08791  0.68310  0.47562  1.0000
  C   C287      1.0  0.10736  0.67171  0.48428  1.0000
  C   C288      1.0  0.11225  0.67298  0.50737  1.0000
  C   C289      1.0  0.09739  0.68585  0.52158  1.0000
  C   C290      1.0  0.07792  0.69720  0.51294  1.0000
  H   H460      1.0  0.08433  0.68187  0.45777  1.0000
  H   H461      1.0  0.11852  0.66190  0.47309  1.0000
  C   C291      1.0  0.40342  0.73030  0.63161  1.0000
  H   H462      1.0  0.34806  0.70207  0.39233  1.0000
  H   H463      1.0  0.27076  0.70605  0.39373  1.0000
  N   N29       1.0  0.37752  0.68041  0.38625  1.0000
  N   N30       1.0  0.24215  0.71499  0.37309  1.0000
  S   S119      1.0  0.30328  0.70780  0.65776  1.0000
  H   H464      1.0  0.40493  0.69182  0.36426  1.0000
  H   H465      1.0  0.19565  0.68387  0.59878  1.0000
  H   H466      1.0  0.40053  0.67193  0.41304  1.0000
  C   C292      1.0  0.36225  0.69940  0.37963  1.0000
  H   H467      1.0  0.33849  0.74368  0.63963  1.0000
  C   C293      1.0  0.25017  0.70056  0.35417  1.0000
  H   H468      1.0  0.21721  0.68047  0.57685  1.0000
  C   C294      1.0  0.20035  0.68870  0.58094  1.0000
  H   H469      1.0  0.35492  0.65552  0.37429  1.0000
  H   H470      1.0  0.23529  0.58134  0.44489  1.0000
  H   H471      1.0  0.20270  0.70722  0.58025  1.0000
  H   H472      1.0  0.30112  0.61716  0.65382  1.0000
  H   H473      1.0  0.37493  0.64516  0.39475  1.0000
  H   H474      1.0  0.39940  0.70126  0.40511  1.0000
  H   H475      1.0  0.26265  0.70944  0.34296  1.0000
  H   H476      1.0  0.40248  0.72221  0.61532  1.0000
  N   N31       1.0  0.21404  0.55454  0.43464  1.0000
  C   C295      1.0  0.19275  0.56743  0.43991  1.0000
  H   H477      1.0  0.20681  0.67958  0.53663  1.0000
  C   C296      1.0  0.23273  0.57035  0.43005  1.0000
  H   H478      1.0  0.18806  0.57922  0.42580  1.0000
  C   C297      1.0  0.38873  0.72363  0.64965  1.0000
  H   H479      1.0  0.14745  0.68832  0.55859  1.0000
  H   H480      1.0  0.22154  0.54965  0.46999  1.0000
  H   H481      1.0  0.22894  0.58182  0.41540  1.0000
  H   H482      1.0  0.24917  0.56131  0.42619  1.0000
  C   C298      1.0  0.48045  0.72769  0.64527  1.0000
  C   C299      1.0  0.36399  0.65994  0.38991  1.0000
  H   H483      1.0  0.20599  0.52749  0.45798  1.0000
  S   S120      1.0  0.36839  0.70272  0.64490  1.0000
  C   C300      1.0  0.21970  0.53975  0.45424  1.0000
  C   C301      1.0  0.21086  0.54067  0.41440  1.0000
  C   C302      1.0  0.41785  0.73385  0.33618  1.0000
  H   H484      1.0  0.47366  0.71211  0.63804  1.0000
  H   H485      1.0  0.17748  0.68307  0.52900  1.0000
  C   C303      1.0  0.06070  0.73860  0.41472  1.0000
  C   C304      1.0  0.26185  0.72126  0.38655  1.0000
  H   H486      1.0  0.23387  0.68705  0.39528  1.0000
  H   H487      1.0  0.22660  0.53068  0.40993  1.0000
  H   H488      1.0  0.23587  0.52998  0.45118  1.0000
  C   C305      1.0  0.18031  0.65717  0.56666  1.0000
  H   H489      1.0  0.16642  0.65155  0.55576  1.0000
  C   C306      1.0  0.19026  0.68806  0.54150  1.0000
  H   H490      1.0  0.19242  0.70653  0.53951  1.0000
  H   H491      1.0  0.35065  0.66236  0.40356  1.0000
  H   H492      1.0  0.16209  0.71184  0.56943  1.0000
  H   H493      1.0  0.19620  0.64805  0.56103  1.0000
  N   N32       1.0  0.18293  0.68181  0.56495  1.0000
  C   C307      1.0  0.16084  0.69320  0.57057  1.0000
  C   C308      1.0  0.39488  0.67645  0.36794  1.0000
  C   C309      1.0  0.38894  0.68595  0.40745  1.0000
  H   H494      1.0  0.21916  0.71301  0.40216  1.0000
  H   H495      1.0  0.05877  0.72819  0.39937  1.0000
  H   H496      1.0  0.40704  0.66253  0.37243  1.0000
  H   H497      1.0  0.21599  0.73138  0.35345  1.0000
  C   C310      1.0  0.22578  0.70255  0.38778  1.0000
  H   H498      1.0  0.38687  0.67197  0.35172  1.0000
  C   C311      1.0  0.02026  0.73824  0.42311  1.0000
  H   H499      1.0  0.37631  0.68930  0.42154  1.0000
  H   H500      1.0  0.37167  0.71537  0.37781  1.0000
  S   S121      1.0  0.31424  0.71173  0.33904  1.0000
  C   C312      1.0  0.41904  0.74765  0.63431  1.0000
  C   C313      1.0  0.17119  0.50434  0.49327  1.0000
  H   H501      1.0  0.27462  0.73050  0.37590  1.0000
  H   H502      1.0  0.25649  0.73219  0.40102  1.0000
  H   H503      1.0  0.01703  0.72808  0.40788  1.0000
  H   H504      1.0  0.15547  0.50831  0.48473  1.0000
  C   C314      1.0  0.29174  0.60143  0.65759  1.0000
  H   H505      1.0  0.30066  0.58755  0.64816  1.0000
  H   H506      1.0  0.06415  0.72682  0.42928  1.0000
  H   H507      1.0  0.21091  0.69715  0.37808  1.0000
  H   H508      1.0  0.36242  0.74961  0.34597  1.0000
  Fe  Fe62      1.0  0.29031  0.67271  0.66278  1.0000
  C   C315      1.0  0.39394  0.73314  0.33537  1.0000
  C   C316      1.0  0.38081  0.74982  0.34653  1.0000
  H   H509      1.0  0.00445  0.74843  0.42701  1.0000
  H   H510      1.0  0.07602  0.74904  0.41196  1.0000
  H   H511      1.0  0.49975  0.69079  0.66401  1.0000
  H   H512      1.0  0.42793  0.54877  0.78220  1.0000
  H   H513      1.0  0.27718  0.61265  0.71272  1.0000
  C   C317      1.0  0.14752  0.74007  0.89459  1.0000
  C   C318      1.0  0.33152  0.50980  0.88714  1.0000
  S   S122      1.0  0.32511  0.65761  0.66933  1.0000
  H   H514      1.0  0.16954  0.64678  0.89860  1.0000
  Fe  Fe63      1.0  0.12441  0.70857  0.96911  1.0000
  S   S123      1.0  0.13425  0.71411  0.93162  1.0000
  S   S124      1.0  0.10007  0.68066  0.97760  1.0000
  Fe  Fe64      1.0  0.38103  0.52710  0.78446  1.0000
  S   S125      1.0  0.39874  0.52683  0.81798  1.0000
  S   S126      1.0  0.38587  0.55538  0.75790  1.0000
  C   C319      1.0  0.48076  0.51046  0.82534  1.0000
  S   S127      1.0  0.33263  0.69939  0.70483  1.0000
  H   H515      1.0  0.49908  0.74409  0.69650  1.0000
  S   S128      1.0  0.28194  0.67853  0.69988  1.0000
  Fe  Fe65      1.0  0.29757  0.71236  0.69551  1.0000
  C   C320      1.0  0.27847  0.61556  0.69399  1.0000
  Fe  Fe66      1.0  0.31743  0.66471  0.70616  1.0000
  S   S129      1.0  0.31760  0.63775  0.73438  1.0000
  C   C321      1.0  0.23555  0.73889  0.75672  1.0000
  C   C322      1.0  0.25277  0.73438  0.74011  1.0000
  C   C323      1.0  0.44607  0.54309  0.78351  1.0000
  C   C324      1.0  0.14567  0.65522  0.93724  1.0000
  H   H516      1.0  0.22843  0.72507  0.76655  1.0000
  H   H517      1.0  0.25875  0.71723  0.73725  1.0000
  H   H518      1.0  0.17306  0.68454  0.91560  1.0000
  C   C325      1.0  0.36657  0.57809  0.75152  1.0000
  C   C326      1.0  0.34617  0.58165  0.76394  1.0000
  C   C327      1.0  0.33157  0.60010  0.75854  1.0000
  C   C328      1.0  0.33708  0.61518  0.74065  1.0000
  C   C329      1.0  0.35736  0.61149  0.72804  1.0000
  C   C330      1.0  0.37202  0.59308  0.73351  1.0000
  H   H519      1.0  0.34175  0.57034  0.77787  1.0000
  H   H520      1.0  0.31592  0.60276  0.76840  1.0000
  H   H521      1.0  0.36185  0.62290  0.71422  1.0000
  H   H522      1.0  0.38775  0.59050  0.72377  1.0000
  C   C331      1.0  0.27737  0.57580  0.68652  1.0000
  H   H523      1.0  0.37930  0.72889  0.68475  1.0000
  H   H524      1.0  0.32348  0.60906  0.68889  1.0000
  C   C332      1.0  0.46618  0.71714  0.68263  1.0000
  H   H525      1.0  0.17594  0.68698  0.94557  1.0000
  H   H526      1.0  0.32316  0.57956  0.68257  1.0000
  C   C333      1.0  0.30361  0.51573  0.91861  1.0000
  N   N33       1.0  0.17072  0.65322  0.93436  1.0000
  C   C334      1.0  0.18034  0.64259  0.95497  1.0000
  C   C335      1.0  0.14028  0.74017  0.91761  1.0000
  S   S130      1.0  0.34815  0.52159  0.86422  1.0000
  H   H527      1.0  0.28585  0.56109  0.67800  1.0000
  C   C336      1.0  0.44457  0.52007  0.75020  1.0000
  H   H528      1.0  0.46321  0.57352  0.75408  1.0000
  C   C337      1.0  0.31767  0.52425  0.90073  1.0000
  H   H529      1.0  0.28788  0.63136  0.69124  1.0000
  C   C338      1.0  0.18020  0.67589  0.93087  1.0000
  Fe  Fe67      1.0  0.36790  0.50861  0.83241  1.0000
  H   H530      1.0  0.45955  0.70115  0.67610  1.0000
  H   H531      1.0  0.13788  0.63851  0.94028  1.0000
  H   H532      1.0  0.31292  0.58950  0.70977  1.0000
  S   S131      1.0  0.28438  0.74725  0.70660  1.0000
  H   H533      1.0  0.13772  0.66333  0.92209  1.0000
  H   H534      1.0  0.43622  0.56439  0.74446  1.0000
  H   H535      1.0  0.45212  0.51600  0.73317  1.0000
  H   H536      1.0  0.46202  0.55641  0.72916  1.0000
  H   H537      1.0  0.19908  0.67513  0.92866  1.0000
  C   C339      1.0  0.01911  0.69060  0.98927  1.0000
  H   H538      1.0  0.45208  0.73005  0.68172  1.0000
  H   H539      1.0  0.14076  0.66587  0.95202  1.0000
  H   H540      1.0  0.29292  0.52710  0.92867  1.0000
  C   C340      1.0  0.48084  0.53212  0.76326  1.0000
  H   H541      1.0  0.19925  0.64087  0.95362  1.0000
  C   C341      1.0  0.17660  0.63919  0.91442  1.0000
  H   H542      1.0  0.03381  0.68597  0.97873  1.0000
  H   H543      1.0  0.14935  0.72424  0.88582  1.0000
  H   H544      1.0  0.17596  0.65267  0.97035  1.0000
  H   H545      1.0  0.25977  0.57762  0.68002  1.0000
  H   H546      1.0  0.26101  0.61874  0.68752  1.0000
  H   H547      1.0  0.13956  0.58180  0.99566  1.0000
  H   H548      1.0  0.16965  0.62198  0.91654  1.0000
  N   N34       1.0  0.29027  0.59655  0.68231  1.0000
  H   H549      1.0  0.46596  0.51964  0.83200  1.0000
  H   H550      1.0  0.17355  0.62544  0.95811  1.0000
  H   H551      1.0  0.44637  0.52769  0.79448  1.0000
  H   H552      1.0  0.45515  0.55636  0.79251  1.0000
  H   H553      1.0  0.42621  0.52452  0.74794  1.0000
  H   H554      1.0  0.31766  0.54220  0.89727  1.0000
  H   H555      1.0  0.19540  0.63728  0.91180  1.0000
  C   C342      1.0  0.39016  0.73418  0.67062  1.0000
  S   S132      1.0  0.34948  0.51152  0.79934  1.0000
  N   N35       1.0  0.45653  0.53861  0.76085  1.0000
  S   S133      1.0  0.10850  0.73150  0.99551  1.0000
  C   C343      1.0  0.31347  0.59347  0.69120  1.0000
  C   C344      1.0  0.45448  0.55916  0.74647  1.0000
  H   H556      1.0  0.47005  0.71446  0.70088  1.0000
  N   N36       1.0  0.48648  0.72443  0.66932  1.0000
  H   H557      1.0  0.27592  0.57173  0.70504  1.0000
  H   H558      1.0  0.48943  0.52912  0.74646  1.0000
  H   H559      1.0  0.49029  0.54530  0.77204  1.0000
  H   H560      1.0  0.48278  0.51628  0.77347  1.0000
  H   H561      1.0  0.33217  0.50813  0.99577  1.0000
  Fe  Fe68      1.0  0.33762  0.69334  0.66733  1.0000
  H   H562      1.0  0.30349  0.50473  0.82084  1.0000
  S   S134      1.0  0.15152  0.69455  0.99204  1.0000
  H   H563      1.0  0.04973  0.63736  0.99133  1.0000
  C   C345      1.0  0.49433  0.74587  0.67839  1.0000
  H   H564      1.0  0.33305  0.74554  0.68055  1.0000
  S   S135      1.0  0.27062  0.52416  0.99573  1.0000
  H   H565      1.0  0.17410  0.55667  0.99669  1.0000
  H   H566      1.0  0.44547  0.50437  0.76083  1.0000
  C   C346      1.0  0.15585  0.58882  0.99934  1.0000
  H   H567      1.0  0.19105  0.89793  0.22013  1.0000
  C   C347      1.0  0.40901  0.97993  0.16614  1.0000
  H   H568      1.0  0.49879  0.88407  0.27823  1.0000
  H   H569      1.0  0.45466  0.86122  0.33116  1.0000
  C   C348      1.0  0.27149  0.75866  0.23725  1.0000
  Fe  Fe69      1.0  0.17021  0.79226  0.16357  1.0000
  S   S136      1.0  0.20647  0.80211  0.15628  1.0000
  S   S137      1.0  0.14916  0.76709  0.14433  1.0000
  Fe  Fe70      1.0  0.16626  0.82126  0.20660  1.0000
  S   S138      1.0  0.20264  0.83239  0.20260  1.0000
  S   S139      1.0  0.14697  0.83611  0.23743  1.0000
  Fe  Fe71      1.0  0.19499  0.83743  0.16576  1.0000
  S   S140      1.0  0.20143  0.86988  0.14524  1.0000
  Fe  Fe72      1.0  0.21139  0.79638  0.19397  1.0000
  S   S141      1.0  0.24442  0.77869  0.20502  1.0000
  S   S142      1.0  0.15808  0.82796  0.17007  1.0000
  S   S143      1.0  0.17573  0.78467  0.20089  1.0000
  C   C349      1.0  0.47258  0.99562  0.15032  1.0000
  C   C350      1.0  0.00426  0.98391  0.32507  1.0000
  C   C351      1.0  0.06482  0.77366  0.07182  1.0000
  H   H570      1.0  0.15047  0.92723  0.18174  1.0000
  H   H571      1.0  0.17695  0.91355  0.17317  1.0000
  Fe  Fe73      1.0  0.02070  0.87564  0.28213  1.0000
  S   S144      1.0  0.04172  0.86459  0.25060  1.0000
  S   S145      1.0  0.02634  0.89810  0.31194  1.0000
  H   H572      1.0  0.19182  0.88092  0.19516  1.0000
  H   H573      1.0  0.14262  0.86704  0.19747  1.0000
  H   H574      1.0  0.15424  0.91623  0.23300  1.0000
  C   C352      1.0  0.14720  0.88258  0.18772  1.0000
  H   H575      1.0  0.13107  0.89050  0.18165  1.0000
  H   H576      1.0  0.15760  0.87738  0.17246  1.0000
  Fe  Fe74      1.0  0.28775  0.97392  0.13383  1.0000
  S   S146      1.0  0.27297  0.94780  0.15884  1.0000
  S   S147      1.0  0.31722  0.96382  0.11073  1.0000
  C   C353      1.0  0.23623  0.75259  0.26928  1.0000
  H   H577      1.0  0.17718  0.77365  0.06455  1.0000
  S   S148      1.0  0.37166  0.98283  0.13863  1.0000
  H   H578      1.0  0.12916  0.91321  0.21650  1.0000
  H   H579      1.0  0.06875  0.76649  0.02647  1.0000
  H   H580      1.0  0.02671  0.82238  0.23191  1.0000
  C   C354      1.0  0.22232  0.89066  0.14889  1.0000
  C   C355      1.0  0.23541  0.89135  0.16838  1.0000
  C   C356      1.0  0.25086  0.90889  0.17105  1.0000
  C   C357      1.0  0.25377  0.92570  0.15413  1.0000
  C   C358      1.0  0.24092  0.92483  0.13453  1.0000
  C   C359      1.0  0.22516  0.90753  0.13205  1.0000
  H   H581      1.0  0.23357  0.87845  0.18143  1.0000
  H   H582      1.0  0.26067  0.90937  0.18630  1.0000
  H   H583      1.0  0.24288  0.93764  0.12140  1.0000
  H   H584      1.0  0.21513  0.90719  0.11692  1.0000
  C   C360      1.0  0.11754  0.84348  0.24079  1.0000
  C   C361      1.0  0.10247  0.84236  0.22288  1.0000
  C   C362      1.0  0.07936  0.84893  0.22623  1.0000
  C   C363      1.0  0.07102  0.85657  0.24750  1.0000
  C   C364      1.0  0.08610  0.85767  0.26540  1.0000
  C   C365      1.0  0.10924  0.85125  0.26200  1.0000
  H   H585      1.0  0.10859  0.83641  0.20647  1.0000
  H   H586      1.0  0.06787  0.84807  0.21224  1.0000
  H   H587      1.0  0.07996  0.86354  0.28184  1.0000
  H   H588      1.0  0.12076  0.85221  0.27597  1.0000
  C   C366      1.0  0.24934  0.76640  0.23215  1.0000
  H   H589      1.0  0.14048  0.88959  0.23228  1.0000
  C   C367      1.0  0.18081  0.88664  0.20979  1.0000
  H   H590      1.0  0.06671  0.76840  0.08994  1.0000
  N   N37       1.0  0.08581  0.76842  0.05826  1.0000
  H   H591      1.0  0.21461  0.76931  0.24461  1.0000
  C   C368      1.0  0.16588  0.77062  0.09967  1.0000
  H   H592      1.0  0.17683  0.87155  0.22052  1.0000
  H   H593      1.0  0.27799  0.96904  0.00485  1.0000
  C   C369      1.0  0.49971  0.91569  0.29565  1.0000
  C   C370      1.0  0.10516  0.78033  0.06770  1.0000
  H   H594      1.0  0.42113  0.88672  0.32915  1.0000
  H   H595      1.0  0.12111  0.77732  0.05739  1.0000
  Fe  Fe75      1.0  0.30340  0.98906  0.08519  1.0000
  H   H596      1.0  0.28525  0.76110  0.22490  1.0000
  H   H597      1.0  0.17548  0.93032  0.19832  1.0000
  Fe  Fe76      1.0  0.00504  0.87310  0.33271  1.0000
  C   C371      1.0  0.42286  0.98621  0.18415  1.0000
  C   C372      1.0  0.08273  0.77573  0.03439  1.0000
  H   H598      1.0  0.43813  0.97646  0.18794  1.0000
  N   N38       1.0  0.33542  0.94300  0.19019  1.0000
  C   C373      1.0  0.35159  0.96099  0.19460  1.0000
  C   C374      1.0  0.33321  0.94067  0.16540  1.0000
  C   C375      1.0  0.31290  0.94894  0.20062  1.0000
  C   C376      1.0  0.34396  0.92145  0.20000  1.0000
  H   H599      1.0  0.35354  0.96359  0.21311  1.0000
  H   H600      1.0  0.34584  0.97736  0.18689  1.0000
  H   H601      1.0  0.36879  0.95693  0.18707  1.0000
  H   H602      1.0  0.32097  0.92739  0.16126  1.0000
  H   H603      1.0  0.32672  0.95662  0.15762  1.0000
  H   H604      1.0  0.34989  0.93658  0.15676  1.0000
  H   H605      1.0  0.31389  0.95123  0.21927  1.0000
  H   H606      1.0  0.30030  0.93564  0.19769  1.0000
  H   H607      1.0  0.30573  0.96486  0.19311  1.0000
  H   H608      1.0  0.34587  0.92260  0.21871  1.0000
  H   H609      1.0  0.36089  0.91650  0.19237  1.0000
  H   H610      1.0  0.33208  0.90757  0.19685  1.0000
  N   N39       1.0  0.15978  0.89808  0.20189  1.0000
  C   C377      1.0  0.14529  0.90466  0.22178  1.0000
  C   C378      1.0  0.16589  0.91824  0.18821  1.0000
  H   H611      1.0  0.41391  0.96540  0.15608  1.0000
  H   H612      1.0  0.17539  0.78484  0.10512  1.0000
  S   S149      1.0  0.29487  0.98126  0.04815  1.0000
  H   H613      1.0  0.10193  0.79886  0.06803  1.0000
  H   H614      1.0  0.01914  0.82113  0.26149  1.0000
  H   H615      1.0  0.04994  0.76478  0.06519  1.0000
  C   C379      1.0  0.15231  0.75885  0.11548  1.0000
  H   H616      1.0  0.07857  0.79408  0.03309  1.0000
  C   C380      1.0  0.29111  0.98121  0.00148  1.0000
  C   C381      1.0  0.01507  0.81417  0.24463  1.0000
  C   C382      1.0  0.23172  0.76341  0.24832  1.0000
  H   H617      1.0  0.49842  0.86034  0.31347  1.0000
  H   H618      1.0  0.06062  0.79204  0.07150  1.0000
  C   C383      1.0  0.16687  0.76420  0.07667  1.0000
  H   H619      1.0  0.10868  0.77459  0.08542  1.0000
  H   H620      1.0  0.09855  0.77250  0.02391  1.0000
  Fe  Fe77      1.0  0.33560  0.99248  0.12649  1.0000
  C   C384      1.0  0.30267  0.99013  0.01985  1.0000
  C   C385      1.0  0.38873  0.99206  0.16121  1.0000
  S   S150      1.0  0.27232  0.99704  0.10744  1.0000
  C   C386      1.0  0.49917  0.89199  0.29465  1.0000
  H   H621      1.0  0.01947  0.79586  0.24506  1.0000
  C   C387      1.0  0.49904  0.87845  0.31464  1.0000
  Fe  Fe78      1.0  0.49871  0.96964  0.26037  1.0000
  S   S151      1.0  0.49393  0.97735  0.22273  1.0000
  S   S152      1.0  0.47208  0.99529  0.27240  1.0000
  H   H622      1.0  0.22245  0.75032  0.28163  1.0000
  C   C388      1.0  0.50007  0.92566  0.31702  1.0000
  S   S153      1.0  0.00202  0.84983  0.30326  1.0000
  H   H623      1.0  0.47387  0.98289  0.16437  1.0000
  H   H624      1.0  0.47998  0.98778  0.13463  1.0000
  H   H625      1.0  0.45410  0.99905  0.14756  1.0000
  H   H626      1.0  0.50051  0.94381  0.31815  1.0000
  S   S154      1.0  0.50026  0.93177  0.26970  1.0000
  H   H627      1.0  0.40323  0.86262  0.33134  1.0000
  C   C389      1.0  0.02090  0.92541  0.62780  1.0000
  H   H628      1.0  0.02920  0.91164  0.61765  1.0000
  C   C390      1.0  0.30669  0.77408  0.65532  1.0000
  S   S155      1.0  0.02305  0.76926  0.49614  1.0000
  N   N40       1.0  0.04010  0.75279  0.41939  1.0000
  Fe  Fe79      1.0  0.46819  0.79314  0.63603  1.0000
  C   C391      1.0  0.00708  0.84059  0.38842  1.0000
  S   S156      1.0  0.46893  0.82602  0.61631  1.0000
  S   S157      1.0  0.47624  0.81379  0.55239  1.0000
  H   H629      1.0  0.44698  0.75130  0.34834  1.0000
  C   C392      1.0  0.48751  0.80896  0.52426  1.0000
  C   C393      1.0  0.49975  0.87261  0.53767  1.0000
  C   C394      1.0  0.48235  0.81220  0.48294  1.0000
  C   C395      1.0  0.42858  0.75098  0.34797  1.0000
  Fe  Fe80      1.0  0.46623  0.79511  0.37846  1.0000
  S   S158      1.0  0.42812  0.78985  0.37395  1.0000
  S   S159      1.0  0.47414  0.82466  0.40046  1.0000
  H   H630      1.0  0.01128  0.96950  0.33419  1.0000
  C   C396      1.0  0.41548  0.76769  0.35907  1.0000
  H   H631      1.0  0.45221  0.87365  0.38211  1.0000
  H   H632      1.0  0.47174  0.81691  0.46882  1.0000
  H   H633      1.0  0.01312  0.91741  0.64320  1.0000
  N   N41       1.0  0.42827  0.86421  0.35714  1.0000
  C   C397      1.0  0.41575  0.84927  0.37319  1.0000
  H   H634      1.0  0.45020  0.89265  0.35836  1.0000
  S   S160      1.0  0.01800  0.85982  0.36728  1.0000
  C   C398      1.0  0.33933  0.79785  0.65741  1.0000
  S   S161      1.0  0.49983  0.87239  0.36192  1.0000
  H   H635      1.0  0.38125  0.77983  0.36681  1.0000
  H   H636      1.0  0.48815  0.88207  0.58142  1.0000
  H   H637      1.0  0.02141  0.81860  0.44066  1.0000
  H   H638      1.0  0.33520  0.80643  0.64103  1.0000
  H   H639      1.0  0.02285  0.93565  0.58325  1.0000
  H   H640      1.0  0.04729  0.75482  0.45486  1.0000
  C   C399      1.0  0.44531  0.85070  0.34397  1.0000
  S   S162      1.0  0.48488  0.77351  0.60763  1.0000
  H   H641      1.0  0.05007  0.78021  0.39718  1.0000
  C   C400      1.0  0.42014  0.75852  0.65515  1.0000
  H   H642      1.0  0.35815  0.79857  0.65930  1.0000
  C   C401      1.0  0.47408  0.81510  0.50555  1.0000
  H   H643      1.0  0.30158  0.78190  0.63887  1.0000
  H   H644      1.0  0.40279  0.85880  0.38359  1.0000
  S   S163      1.0  0.01117  0.77987  0.56341  1.0000
  H   H645      1.0  0.02429  0.78931  0.60872  1.0000
  H   H646      1.0  0.48920  0.85748  0.53561  1.0000
  C   C402      1.0  0.44002  0.88150  0.36994  1.0000
  C   C403      1.0  0.39155  0.76697  0.35831  1.0000
  C   C404      1.0  0.01487  0.80403  0.60271  1.0000
  H   H647      1.0  0.40686  0.83586  0.36411  1.0000
  S   S164      1.0  0.49338  0.77251  0.39392  1.0000
  H   H648      1.0  0.03532  0.84502  0.41042  1.0000
  H   H649      1.0  0.45822  0.84309  0.35534  1.0000
  H   H650      1.0  0.03437  0.93660  0.63377  1.0000
  H   H651      1.0  0.48881  0.85227  0.57716  1.0000
  H   H652      1.0  0.42750  0.84043  0.38512  1.0000
  H   H653      1.0  0.39893  0.88552  0.35078  1.0000
  H   H654      1.0  0.42998  0.75280  0.62017  1.0000
  C   C405      1.0  0.03594  0.76824  0.39992  1.0000
  H   H655      1.0  0.01899  0.82253  0.63370  1.0000
  H   H656      1.0  0.45707  0.82203  0.50854  1.0000
  Fe  Fe81      1.0  0.49829  0.83488  0.37186  1.0000
  H   H657      1.0  0.02794  0.77630  0.44459  1.0000
  N   N42       1.0  0.00354  0.93807  0.61472  1.0000
  C   C406      1.0  0.01171  0.82131  0.42548  1.0000
  Fe  Fe82      1.0  0.48832  0.80657  0.58877  1.0000
  H   H658      1.0  0.00556  0.96774  0.63506  1.0000
  C   C407      1.0  0.01184  0.82286  0.61696  1.0000
  S   S165      1.0  0.48884  0.80667  0.34936  1.0000
  H   H659      1.0  0.30036  0.75659  0.65590  1.0000
  H   H660      1.0  0.42776  0.89231  0.37987  1.0000
  C   C408      1.0  0.01956  0.83636  0.40826  1.0000
  H   H661      1.0  0.05780  0.77779  0.43770  1.0000
  N   N43       1.0  0.33165  0.77433  0.65799  1.0000
  H   H662      1.0  0.02003  0.77856  0.40275  1.0000
  S   S166      1.0  0.43922  0.78067  0.65954  1.0000
  H   H663      1.0  0.33864  0.76884  0.62233  1.0000
  C   C409      1.0  0.00613  0.80409  0.58064  1.0000
  Fe  Fe83      1.0  0.00106  0.76689  0.52838  1.0000
  C   C410      1.0  0.34316  0.76175  0.63926  1.0000
  H   H664      1.0  0.00195  0.95831  0.58417  1.0000
  C   C411      1.0  0.41214  0.87527  0.34141  1.0000
  H   H665      1.0  0.48782  0.88740  0.53917  1.0000
  C   C412      1.0  0.04346  0.76602  0.44002  1.0000
  H   H666      1.0  0.02792  0.96042  0.59937  1.0000
  H   H667      1.0  0.03394  0.75889  0.38391  1.0000
  H   H668      1.0  0.36204  0.76222  0.64038  1.0000
  C   C413      1.0  0.50010  0.91212  0.33700  1.0000
  C   C414      1.0  0.01455  0.94859  0.59446  1.0000
  C   C415      1.0  0.49967  0.88845  0.33599  1.0000
  H   H669      1.0  0.50057  0.92011  0.35338  1.0000
  H   H670      1.0  0.43735  0.83666  0.33498  1.0000
  C   C416      1.0  0.49970  0.86721  0.57843  1.0000
  H   H671      1.0  0.13233  0.76118  0.94635  1.0000
  H   H672      1.0  0.26144  0.80778  0.83763  1.0000
  H   H673      1.0  0.26189  0.76350  0.79411  1.0000
  N   N44       1.0  0.14422  0.79366  0.73632  1.0000
  C   C417      1.0  0.13790  0.76081  0.92868  1.0000
  H   H674      1.0  0.36578  0.97016  0.89962  1.0000
  C   C418      1.0  0.15828  0.77498  0.74587  1.0000
  C   C419      1.0  0.15220  0.76035  0.88271  1.0000
  N   N45       1.0  0.38667  0.99052  0.92003  1.0000
  H   H675      1.0  0.41188  0.96647  0.70368  1.0000
  Fe  Fe84      1.0  0.01989  0.87155  0.71235  1.0000
  S   S167      1.0  0.04181  0.84929  0.73579  1.0000
  S   S168      1.0  0.03057  0.88974  0.68002  1.0000
  C   C420      1.0  0.49283  0.92132  0.69238  1.0000
  H   H676      1.0  0.33110  0.80780  0.67142  1.0000
  C   C421      1.0  0.22761  0.76103  0.76082  1.0000
  C   C422      1.0  0.40567  0.75162  0.67328  1.0000
  H   H677      1.0  0.39462  0.95030  0.76318  1.0000
  C   C423      1.0  0.47856  0.90327  0.68781  1.0000
  Fe  Fe85      1.0  0.28307  0.98027  0.87266  1.0000
  S   S169      1.0  0.25174  0.96050  0.86317  1.0000
  S   S170      1.0  0.31541  0.97187  0.89126  1.0000
  Fe  Fe86      1.0  0.16849  0.81344  0.84335  1.0000
  S   S171      1.0  0.20518  0.80536  0.83492  1.0000
  S   S172      1.0  0.15465  0.80716  0.87950  1.0000
  Fe  Fe87      1.0  0.16238  0.83944  0.79825  1.0000
  S   S173      1.0  0.19921  0.83333  0.78710  1.0000
  S   S174      1.0  0.14170  0.86153  0.77384  1.0000
  Fe  Fe88      1.0  0.19391  0.79801  0.79968  1.0000
  H   H678      1.0  0.46187  0.90267  0.69600  1.0000
  Fe  Fe89      1.0  0.20766  0.84147  0.82316  1.0000
  S   S175      1.0  0.24007  0.85793  0.83466  1.0000
  S   S176      1.0  0.15651  0.80339  0.80887  1.0000
  S   S177      1.0  0.17149  0.85021  0.83340  1.0000
  C   C424      1.0  0.25576  0.80865  0.79291  1.0000
  C   C425      1.0  0.23688  0.77869  0.74786  1.0000
  H   H679      1.0  0.23058  0.79576  0.75042  1.0000
  H   H680      1.0  0.29110  0.76342  0.80232  1.0000
  H   H681      1.0  0.22946  0.98260  0.82429  1.0000
  H   H682      1.0  0.29194  0.82501  0.81318  1.0000
  C   C426      1.0  0.24932  0.93208  0.85451  1.0000
  C   C427      1.0  0.22830  0.92505  0.84655  1.0000
  C   C428      1.0  0.22533  0.90261  0.83989  1.0000
  C   C429      1.0  0.24330  0.88677  0.84149  1.0000
  C   C430      1.0  0.26435  0.89380  0.84937  1.0000
  C   C431      1.0  0.26741  0.91633  0.85575  1.0000
  H   H683      1.0  0.21419  0.93707  0.84549  1.0000
  H   H684      1.0  0.20910  0.89758  0.83364  1.0000
  H   H685      1.0  0.27839  0.88175  0.85068  1.0000
  H   H686      1.0  0.28366  0.92145  0.86188  1.0000
  H   H687      1.0  0.14024  0.79694  0.92543  1.0000
  C   C432      1.0  0.40062  0.94879  0.74511  1.0000
  H   H688      1.0  0.24995  0.78134  0.82968  1.0000
  H   H689      1.0  0.44314  0.97719  0.81050  1.0000
  H   H690      1.0  0.44013  0.97435  0.71087  1.0000
  C   C433      1.0  0.06925  0.85373  0.74677  1.0000
  C   C434      1.0  0.07736  0.83919  0.76405  1.0000
  C   C435      1.0  0.09926  0.84160  0.77287  1.0000
  C   C436      1.0  0.11350  0.85839  0.76422  1.0000
  C   C437      1.0  0.10540  0.87295  0.74699  1.0000
  C   C438      1.0  0.08339  0.87072  0.73835  1.0000
  H   H691      1.0  0.06649  0.82610  0.77080  1.0000
  H   H692      1.0  0.10505  0.83055  0.78642  1.0000
  H   H693      1.0  0.11621  0.88609  0.74024  1.0000
  H   H694      1.0  0.07743  0.88201  0.72507  1.0000
  C   C439      1.0  0.14243  0.78109  0.91676  1.0000
  C   C440      1.0  0.14954  0.78100  0.89370  1.0000
  H   H695      1.0  0.28295  0.77596  0.77563  1.0000
  H   H696      1.0  0.37384  0.95727  0.92606  1.0000
  H   H697      1.0  0.26097  0.81185  0.77486  1.0000
  Fe  Fe90      1.0  0.00612  0.91762  0.69180  1.0000
  C   C441      1.0  0.36892  0.97357  0.91779  1.0000
  C   C442      1.0  0.14196  0.79060  0.71162  1.0000
  H   H698      1.0  0.15996  0.77658  0.76458  1.0000
  H   H699      1.0  0.11022  0.80769  0.74053  1.0000
  H   H700      1.0  0.15734  0.81803  0.75875  1.0000
  C   C443      1.0  0.26560  0.79159  0.82889  1.0000
  H   H701      1.0  0.41417  0.96606  0.91661  1.0000
  N   N46       1.0  0.27345  0.79555  0.80510  1.0000
  H   H702      1.0  0.41337  0.96261  0.83742  1.0000
  H   H703      1.0  0.13351  0.77453  0.70799  1.0000
  H   H704      1.0  0.15891  0.79028  0.70264  1.0000
  N   N47       1.0  0.19498  0.85843  0.90194  1.0000
  C   C444      1.0  0.20352  0.86061  0.92516  1.0000
  C   C445      1.0  0.20408  0.83723  0.89197  1.0000
  C   C446      1.0  0.20254  0.87769  0.88768  1.0000
  C   C447      1.0  0.16978  0.85812  0.90286  1.0000
  H   H705      1.0  0.19697  0.87645  0.93320  1.0000
  H   H706      1.0  0.22248  0.86091  0.92505  1.0000
  H   H707      1.0  0.19812  0.84628  0.93633  1.0000
  H   H708      1.0  0.19780  0.83507  0.87453  1.0000
  H   H709      1.0  0.22304  0.83692  0.89072  1.0000
  H   H710      1.0  0.19856  0.82225  0.90214  1.0000
  H   H711      1.0  0.19606  0.89405  0.89458  1.0000
  H   H712      1.0  0.19640  0.87646  0.87003  1.0000
  H   H713      1.0  0.22148  0.87835  0.88643  1.0000
  H   H714      1.0  0.16276  0.85645  0.88559  1.0000
  H   H715      1.0  0.16224  0.87379  0.91036  1.0000
  H   H716      1.0  0.16348  0.84353  0.91317  1.0000
  N   N48       1.0  0.41859  0.96508  0.73948  1.0000
  H   H717      1.0  0.43317  0.96136  0.77251  1.0000
  H   H718      1.0  0.17245  0.81593  0.73197  1.0000
  C   C448      1.0  0.43821  0.96057  0.75419  1.0000
  H   H719      1.0  0.17590  0.77462  0.73830  1.0000
  C   C449      1.0  0.38957  0.99037  0.83223  1.0000
  H   H720      1.0  0.30846  0.79908  0.81394  1.0000
  H   H721      1.0  0.38559  0.95158  0.73422  1.0000
  H   H722      1.0  0.27879  0.78235  0.83885  1.0000
  H   H723      1.0  0.30104  0.81171  0.78710  1.0000
  C   C450      1.0  0.40809  0.98226  0.90886  1.0000
  H   H724      1.0  0.40704  0.93116  0.74266  1.0000
  H   H725      1.0  0.39585  0.97865  0.95334  1.0000
  H   H726      1.0  0.40398  0.99065  0.76134  1.0000
  C   C451      1.0  0.29643  0.98770  0.97876  1.0000
  H   H727      1.0  0.28742  0.98055  0.96492  1.0000
  H   H728      1.0  0.32797  0.77183  0.69445  1.0000
  H   H729      1.0  0.23943  0.79957  0.79305  1.0000
  H   H730      1.0  0.35595  0.76471  0.68325  1.0000
  C   C452      1.0  0.27759  0.77368  0.79382  1.0000
  H   H731      1.0  0.15758  0.75999  0.86498  1.0000
  H   H732      1.0  0.26132  0.78795  0.72142  1.0000
  C   C453      1.0  0.23913  0.99589  0.81490  1.0000
  H   H733      1.0  0.12237  0.79661  0.76614  1.0000
  H   H734      1.0  0.14487  0.82987  0.73378  1.0000
  H   H735      1.0  0.45151  0.97326  0.75112  1.0000
  C   C454      1.0  0.25422  0.77420  0.73133  1.0000
  C   C455      1.0  0.26226  0.75202  0.72735  1.0000
  H   H736      1.0  0.11254  0.77776  0.74515  1.0000
  S   S178      1.0  0.36887  0.97912  0.85185  1.0000
  C   C456      1.0  0.42605  0.96274  0.71540  1.0000
  C   C457      1.0  0.41032  0.97836  0.82839  1.0000
  S   S179      1.0  0.48245  0.94307  0.71110  1.0000
  H   H737      1.0  0.43275  0.94538  0.71188  1.0000
  C   C458      1.0  0.00743  0.98126  0.68850  1.0000
  H   H738      1.0  0.44637  0.94374  0.75091  1.0000
  H   H739      1.0  0.13152  0.80455  0.70395  1.0000
  S   S180      1.0  0.01777  0.95341  0.68216  1.0000
  C   C459      1.0  0.48567  0.88591  0.67278  1.0000
  C   C460      1.0  0.12135  0.79389  0.74751  1.0000
  H   H740      1.0  0.40655  0.75978  0.68954  1.0000
  S   S181      1.0  0.20637  0.76562  0.78248  1.0000
  C   C461      1.0  0.15524  0.81528  0.74030  1.0000
  C   C462      1.0  0.29469  0.80838  0.80481  1.0000
  H   H741      1.0  0.25224  0.82532  0.80085  1.0000
  H   H742      1.0  0.35243  0.97936  0.92579  1.0000
  H   H743      1.0  0.40568  0.97931  0.89039  1.0000
  C   C463      1.0  0.42724  0.98654  0.81303  1.0000
  H   H744      1.0  0.23654  0.99371  0.79643  1.0000
  H   H745      1.0  0.42189  0.99464  0.91014  1.0000
  S   S182      1.0  0.30163  0.99833  0.84413  1.0000
  H   H746      1.0  0.48084  0.75936  0.67737  1.0000
  Fe  Fe91      1.0  0.33353  0.99266  0.86399  1.0000
  H   H747      1.0  0.39481  0.99238  0.73247  1.0000
  C   C464      1.0  0.40961  0.98825  0.74329  1.0000
  H   H748      1.0  0.29746  0.78324  0.66930  1.0000
  C   C465      1.0  0.33746  0.76367  0.68001  1.0000
  S   S183      1.0  0.49680  0.97307  0.76674  1.0000
  H   H749      1.0  0.25750  0.99240  0.81816  1.0000
  H   H750      1.0  0.15074  0.75832  0.74289  1.0000
  Fe  Fe92      1.0  0.49776  0.97372  0.72831  1.0000
  C   C466      1.0  0.39027  0.99441  0.94441  1.0000
  H   H751      1.0  0.47445  0.87224  0.66954  1.0000
  C   C467      1.0  0.01829  0.99978  0.67803  1.0000
  H   H752      1.0  0.03253  0.99679  0.66632  1.0000
  Fe  Fe93      1.0  0.70703  0.03245  0.12719  1.0000
  S   S184      1.0  0.71529  0.06992  0.12714  1.0000
  S   S185      1.0  0.67737  0.02307  0.10568  1.0000
  Fe  Fe94      1.0  0.96638  0.12617  0.29796  1.0000
  H   H753      1.0  0.97871  0.03607  0.29296  1.0000
  S   S186      1.0  0.92901  0.13551  0.29153  1.0000
  Fe  Fe95      1.0  0.79522  0.15942  0.18857  1.0000
  S   S187      1.0  0.78007  0.19217  0.17524  1.0000
  S   S188      1.0  0.77829  0.12520  0.19261  1.0000
  Fe  Fe96      1.0  0.84175  0.17996  0.19727  1.0000
  S   S189      1.0  0.82992  0.21407  0.18445  1.0000
  S   S190      1.0  0.88000  0.17545  0.20327  1.0000
  Fe  Fe97      1.0  0.79719  0.20834  0.20446  1.0000
  C   C468      1.0  0.70232  0.00105  0.02361  1.0000
  Fe  Fe98      1.0  0.81375  0.19606  0.15633  1.0000
  S   S191      1.0  0.81506  0.20722  0.11907  1.0000
  S   S192      1.0  0.81032  0.17538  0.21949  1.0000
  S   S193      1.0  0.82754  0.16215  0.16746  1.0000
  H   H754      1.0  0.53986  0.04148  0.25005  1.0000
  C   C469      1.0  0.57131  0.04596  0.28143  1.0000
  H   H755      1.0  0.89885  0.20012  0.16141  1.0000
  H   H756      1.0  0.60242  0.03150  0.25017  1.0000
  C   C470      1.0  0.74189  0.23302  0.23956  1.0000
  H   H757      1.0  0.77779  0.23998  0.13298  1.0000
  H   H758      1.0  0.57545  0.01911  0.24496  1.0000
  C   C471      1.0  0.87139  0.17840  0.11693  1.0000
  C   C472      1.0  0.99925  0.02509  0.32095  1.0000
  H   H759      1.0  0.74398  0.21610  0.23313  1.0000
  H   H760      1.0  0.58751  0.07984  0.23707  1.0000
  H   H761      1.0  0.58837  0.04272  0.28873  1.0000
  C   C473      1.0  0.83195  0.22847  0.10615  1.0000
  Fe  Fe99      1.0  0.52116  0.00316  0.22630  1.0000
  N   N49       1.0  0.89016  0.17987  0.13304  1.0000
  C   C474      1.0  0.98602  0.02171  0.30192  1.0000
  C   C475      1.0  0.88550  0.19897  0.14843  1.0000
  C   C476      1.0  0.54997  0.05699  0.24846  1.0000
  C   C477      1.0  0.91584  0.14614  0.26654  1.0000
  C   C478      1.0  0.92843  0.15251  0.24705  1.0000
  C   C479      1.0  0.91718  0.16143  0.22788  1.0000
  C   C480      1.0  0.89326  0.16401  0.22789  1.0000
  C   C481      1.0  0.88070  0.15768  0.24740  1.0000
  C   C482      1.0  0.89195  0.14889  0.26661  1.0000
  H   H762      1.0  0.94681  0.15054  0.24673  1.0000
  H   H763      1.0  0.92710  0.16628  0.21291  1.0000
  H   H764      1.0  0.86231  0.15951  0.24769  1.0000
  H   H765      1.0  0.88203  0.14400  0.28156  1.0000
  H   H766      1.0  0.70184  0.07025  0.07434  1.0000
  H   H767      1.0  0.79562  0.23723  0.15701  1.0000
  C   C483      1.0  0.73370  0.08462  0.14506  1.0000
  C   C484      1.0  0.73886  0.10715  0.13966  1.0000
  C   C485      1.0  0.75287  0.11968  0.15367  1.0000
  C   C486      1.0  0.76167  0.10989  0.17348  1.0000
  C   C487      1.0  0.75659  0.08732  0.17878  1.0000
  C   C488      1.0  0.74286  0.07470  0.16461  1.0000
  H   H768      1.0  0.73179  0.11509  0.12468  1.0000
  H   H769      1.0  0.75648  0.13703  0.14941  1.0000
  H   H770      1.0  0.76325  0.07959  0.19407  1.0000
  H   H771      1.0  0.73905  0.05744  0.16906  1.0000
  H   H772      1.0  0.54034  0.07030  0.25813  1.0000
  H   H773      1.0  0.90573  0.15942  0.15920  1.0000
  C   C489      1.0  0.71719  0.00082  0.00438  1.0000
  C   C490      1.0  0.58595  0.07406  0.25514  1.0000
  C   C491      1.0  0.58496  0.03512  0.24397  1.0000
  H   H774      1.0  0.70815  0.22760  0.25386  1.0000
  H   H775      1.0  0.58654  0.03989  0.22562  1.0000
  H   H776      1.0  0.55049  0.06197  0.23014  1.0000
  H   H777      1.0  0.89549  0.14389  0.13563  1.0000
  S   S194      1.0  0.69839  0.00711  0.15477  1.0000
  H   H778      1.0  0.60350  0.07171  0.26162  1.0000
  H   H779      1.0  0.88461  0.21529  0.13893  1.0000
  N   N50       1.0  0.57308  0.05303  0.25725  1.0000
  H   H780      1.0  0.56140  0.03028  0.28362  1.0000
  H   H781      1.0  0.57733  0.08789  0.26494  1.0000
  N   N51       1.0  0.73437  0.06402  0.05743  1.0000
  C   C492      1.0  0.74723  0.07233  0.07672  1.0000
  C   C493      1.0  0.73125  0.08232  0.04042  1.0000
  C   C494      1.0  0.71182  0.05646  0.06577  1.0000
  C   C495      1.0  0.74708  0.04490  0.04686  1.0000
  H   H782      1.0  0.76442  0.07808  0.07121  1.0000
  H   H783      1.0  0.74957  0.05897  0.09003  1.0000
  C   C496      1.0  0.60884  0.01403  0.16519  1.0000
  C   C497      1.0  0.72157  0.23961  0.25131  1.0000
  H   H784      1.0  0.74792  0.08849  0.03375  1.0000
  H   H785      1.0  0.70158  0.04994  0.05175  1.0000
  S   S195      1.0  0.51379  0.04661  0.29657  1.0000
  H   H786      1.0  0.71369  0.04255  0.07843  1.0000
  H   H787      1.0  0.73772  0.03808  0.03237  1.0000
  H   H788      1.0  0.74951  0.03071  0.05925  1.0000
  H   H789      1.0  0.51823  0.02647  0.16367  1.0000
  H   H790      1.0  0.87596  0.15557  0.15657  1.0000
  H   H791      1.0  0.81882  0.22307  0.07286  1.0000
  H   H792      1.0  0.56223  0.05903  0.29190  1.0000
  H   H793      1.0  0.86941  0.19416  0.10657  1.0000
  H   H794      1.0  0.53505  0.08107  0.32171  1.0000
  H   H795      1.0  0.76538  0.24035  0.16134  1.0000
  H   H796      1.0  0.86902  0.19697  0.15792  1.0000
  H   H797      1.0  0.91099  0.19930  0.10984  1.0000
  H   H798      1.0  0.91592  0.16934  0.10852  1.0000
  C   C498      1.0  0.58867  0.02170  0.17664  1.0000
  H   H799      1.0  0.73807  0.08671  0.08520  1.0000
  C   C499      1.0  0.84686  0.24109  0.11862  1.0000
  H   H800      1.0  0.97998  0.19093  0.32331  1.0000
  H   H801      1.0  0.94046  0.20888  0.29469  1.0000
  C   C500      1.0  0.93948  0.19190  0.30280  1.0000
  H   H802      1.0  0.85475  0.17577  0.12599  1.0000
  C   C501      1.0  0.91182  0.18348  0.12027  1.0000
  H   H803      1.0  0.87423  0.16418  0.10503  1.0000
  H   H804      1.0  0.72157  0.07652  0.02566  1.0000
  C   C502      1.0  0.83025  0.23281  0.08269  1.0000
  H   H805      1.0  0.95225  0.18071  0.29392  1.0000
  C   C503      1.0  0.50877  0.01113  0.15945  1.0000
  H   H806      1.0  0.58430  0.03950  0.17639  1.0000
  H   H807      1.0  0.84827  0.23799  0.13668  1.0000
  H   H808      1.0  0.92630  0.18479  0.13198  1.0000
  H   H809      1.0  0.92245  0.18505  0.29928  1.0000
  C   C504      1.0  0.89197  0.15874  0.14658  1.0000
  C   C505      1.0  0.57409  0.00658  0.18815  1.0000
  H   H810      1.0  0.61972  0.02588  0.15629  1.0000
  H   H811      1.0  0.76421  0.04988  0.04035  1.0000
  C   C506      1.0  0.67896  0.00442  0.02031  1.0000
  C   C507      1.0  0.78011  0.24602  0.15058  1.0000
  S   S196      1.0  0.73205  0.00886  0.10977  1.0000
  S   S197      1.0  0.54850  0.01738  0.20164  1.0000
  S   S198      1.0  0.99408  0.15166  0.29654  1.0000
  S   S199      1.0  0.78552  0.24104  0.22189  1.0000
  C   C508      1.0  0.51696  0.08499  0.32212  1.0000
  Fe  Fe100     1.0  0.99777  0.08896  0.31831  1.0000
  H   H812      1.0  0.72160  0.09694  0.04789  1.0000
  S   S200      1.0  0.98874  0.09872  0.28258  1.0000
  H   H813      1.0  0.95525  0.15827  0.32914  1.0000
  H   H814      1.0  0.58845  0.23274  0.31693  1.0000
  C   C509      1.0  0.50212  0.07086  0.31087  1.0000
  H   H815      1.0  0.74151  0.24310  0.29725  1.0000
  C   C510      1.0  0.75942  0.24831  0.23628  1.0000
  C   C511      1.0  0.84323  0.24967  0.07175  1.0000
  N   N52       1.0  0.94344  0.19256  0.32750  1.0000
  H   H816      1.0  0.76281  0.23081  0.31518  1.0000
  H   H817      1.0  0.96791  0.21894  0.32432  1.0000
  C   C512      1.0  0.58572  0.24378  0.33127  1.0000
  H   H818      1.0  0.66725  0.00463  0.03483  1.0000
  C   C513      1.0  0.75681  0.24689  0.30717  1.0000
  C   C514      1.0  0.96624  0.20158  0.33139  1.0000
  H   H819      1.0  0.92616  0.22460  0.33160  1.0000
  H   H820      1.0  0.51726  0.00364  0.14410  1.0000
  H   H821      1.0  0.60854  0.23964  0.42082  1.0000
  H   H822      1.0  0.61268  0.19446  0.39691  1.0000
  S   S201      1.0  0.96651  0.24534  0.50628  1.0000
  S   S202      1.0  0.51236  0.19949  0.64981  1.0000
  H   H823      1.0  0.57387  0.20413  0.38405  1.0000
  C   C515      1.0  0.99712  0.16601  0.58666  1.0000
  H   H824      1.0  0.92832  0.20784  0.35727  1.0000
  Fe  Fe101     1.0  0.52004  0.20415  0.36416  1.0000
  H   H825      1.0  0.73764  0.24094  0.34905  1.0000
  S   S203      1.0  0.52437  0.17014  0.38116  1.0000
  C   C516      1.0  0.60588  0.19504  0.41478  1.0000
  H   H826      1.0  0.93772  0.24200  0.46658  1.0000
  H   H827      1.0  0.90844  0.20058  0.33602  1.0000
  C   C517      1.0  0.50624  0.13615  0.55283  1.0000
  H   H828      1.0  0.59132  0.21727  0.45265  1.0000
  C   C518      1.0  0.94223  0.16956  0.33727  1.0000
  Fe  Fe102     1.0  0.53594  0.20627  0.61983  1.0000
  S   S204      1.0  0.57361  0.21440  0.62304  1.0000
  S   S205      1.0  0.52681  0.17424  0.60189  1.0000
  C   C519      1.0  0.92682  0.19917  0.66421  1.0000
  N   N53       1.0  0.58664  0.21145  0.41706  1.0000
  H   H829      1.0  0.55338  0.21691  0.40339  1.0000
  H   H830      1.0  0.94428  0.14610  0.65006  1.0000
  N   N54       1.0  0.94218  0.18206  0.65350  1.0000
  H   H831      1.0  0.97072  0.15921  0.38805  1.0000
  H   H832      1.0  0.53340  0.12423  0.66103  1.0000
  S   S206      1.0  0.54852  0.21800  0.34139  1.0000
  C   C520      1.0  0.52859  0.18630  0.49239  1.0000
  C   C521      1.0  0.52071  0.18840  0.51523  1.0000
  H   H833      1.0  0.61927  0.22901  0.62862  1.0000
  H   H834      1.0  0.54668  0.18437  0.48873  1.0000
  H   H835      1.0  0.53271  0.18813  0.52885  1.0000
  H   H836      1.0  0.93277  0.23494  0.42639  1.0000
  S   S207      1.0  0.51058  0.22831  0.60114  1.0000
  H   H837      1.0  0.92644  0.18509  0.62095  1.0000
  C   C522      1.0  0.60801  0.24106  0.63718  1.0000
  C   C523      1.0  0.92579  0.20710  0.33862  1.0000
  H   H838      1.0  0.51085  0.10665  0.58776  1.0000
  H   H839      1.0  0.95473  0.17291  0.62015  1.0000
  S   S208      1.0  0.50375  0.22095  0.39461  1.0000
  C   C524      1.0  0.58430  0.23805  0.63705  1.0000
  H   H840      1.0  0.96996  0.20192  0.34985  1.0000
  H   H841      1.0  0.99382  0.15006  0.57891  1.0000
  H   H842      1.0  0.56291  0.22328  0.44306  1.0000
  S   S209      1.0  0.97319  0.11463  0.33410  1.0000
  C   C525      1.0  0.94350  0.18589  0.62860  1.0000
  C   C526      1.0  0.56812  0.20482  0.40225  1.0000
  H   H843      1.0  0.95073  0.20259  0.62412  1.0000
  C   C527      1.0  0.51332  0.18671  0.47430  1.0000
  C   C528      1.0  0.97333  0.18281  0.41559  1.0000
  C   C529      1.0  0.56720  0.24028  0.34646  1.0000
  C   C530      1.0  0.00050  0.20677  0.58292  1.0000
  H   H844      1.0  0.56167  0.18794  0.40728  1.0000
  H   H845      1.0  0.92539  0.16197  0.33449  1.0000
  H   H846      1.0  0.60065  0.23455  0.39214  1.0000
  H   H847      1.0  0.95778  0.17746  0.42412  1.0000
  C   C531      1.0  0.98623  0.19962  0.42548  1.0000
  H   H848      1.0  0.94537  0.16922  0.35583  1.0000
  H   H849      1.0  0.60053  0.17771  0.41964  1.0000
  H   H850      1.0  0.52030  0.11457  0.34283  1.0000
  C   C532      1.0  0.59438  0.23412  0.41021  1.0000
  C   C533      1.0  0.57808  0.21174  0.44094  1.0000
  H   H851      1.0  0.57256  0.19474  0.44677  1.0000
  Fe  Fe103     1.0  0.99126  0.23585  0.47740  1.0000
  S   S210      1.0  0.52431  0.18374  0.44578  1.0000
  H   H852      1.0  0.52173  0.12511  0.55080  1.0000
  H   H853      1.0  0.62016  0.19943  0.42580  1.0000
  C   C534      1.0  0.98058  0.17244  0.39503  1.0000
  S   S211      1.0  0.97576  0.21250  0.45120  1.0000
  Fe  Fe104     1.0  0.50641  0.18665  0.41148  1.0000
  H   H854      1.0  0.97677  0.17013  0.65624  1.0000
  H   H855      1.0  0.99291  0.18515  0.55529  1.0000
  H   H856      1.0  0.58030  0.24696  0.41187  1.0000
  C   C535      1.0  0.50864  0.10406  0.33417  1.0000
  C   C536      1.0  0.99658  0.18594  0.57317  1.0000
  Fe  Fe105     1.0  0.99668  0.24280  0.52928  1.0000
  H   H857      1.0  0.90352  0.24438  0.42949  1.0000
  H   H858      1.0  0.91578  0.15765  0.65227  1.0000
  H   H859      1.0  0.97292  0.20013  0.65837  1.0000
  H   H860      1.0  0.93312  0.21647  0.66103  1.0000
  S   S212      1.0  0.99926  0.23272  0.56715  1.0000
  H   H861      1.0  0.51133  0.15166  0.56150  1.0000
  C   C537      1.0  0.93337  0.15936  0.65845  1.0000
  H   H862      1.0  0.90929  0.19849  0.65759  1.0000
  C   C538      1.0  0.96515  0.18371  0.66283  1.0000
  Fe  Fe106     1.0  0.50130  0.16923  0.63087  1.0000
  C   C539      1.0  0.00073  0.17901  0.38378  1.0000
  Fe  Fe107     1.0  0.71852  0.02734  0.87505  1.0000
  S   S213      1.0  0.68371  0.03764  0.88890  1.0000
  S   S214      1.0  0.74976  0.04941  0.86932  1.0000
  H   H863      1.0  0.82114  0.06992  0.80303  1.0000
  H   H864      1.0  0.81930  0.12449  0.77062  1.0000
  H   H865      1.0  0.76853  0.10635  0.80385  1.0000
  H   H866      1.0  0.79679  0.10838  0.75920  1.0000
  H   H867      1.0  0.80102  0.12754  0.81856  1.0000
  H   H868      1.0  0.81340  0.10163  0.82924  1.0000
  Fe  Fe108     1.0  0.97801  0.13937  0.71016  1.0000
  H   H869      1.0  0.89569  0.19235  0.80366  1.0000
  S   S215      1.0  0.95041  0.16422  0.72335  1.0000
  Fe  Fe109     1.0  0.79147  0.17221  0.82852  1.0000
  S   S216      1.0  0.79283  0.20940  0.83657  1.0000
  S   S217      1.0  0.75961  0.15126  0.83452  1.0000
  Fe  Fe110     1.0  0.83827  0.17191  0.80373  1.0000
  S   S218      1.0  0.84276  0.20869  0.80947  1.0000
  S   S219      1.0  0.86404  0.14618  0.78901  1.0000
  Fe  Fe111     1.0  0.82960  0.20221  0.84528  1.0000
  S   S220      1.0  0.85375  0.21359  0.87262  1.0000
  Fe  Fe112     1.0  0.80578  0.21331  0.80030  1.0000
  Fe  Fe113     1.0  0.68759  0.00873  0.91404  1.0000
  S   S221      1.0  0.82704  0.16478  0.83999  1.0000
  S   S222      1.0  0.80242  0.17682  0.79173  1.0000
  H   H870      1.0  0.64478  0.23113  0.68354  1.0000
  C   C540      1.0  0.93024  0.17741  0.84704  1.0000
  H   H871      1.0  0.77411  0.08283  0.78559  1.0000
  H   H872      1.0  0.92907  0.17801  0.86595  1.0000
  H   H873      1.0  0.96473  0.18205  0.68166  1.0000
  H   H874      1.0  0.87352  0.18015  0.83757  1.0000
  H   H875      1.0  0.92003  0.22106  0.83800  1.0000
  H   H876      1.0  0.75325  0.22027  0.77884  1.0000
  H   H877      1.0  0.79008  0.13097  0.77834  1.0000
  H   H878      1.0  0.83713  0.08821  0.78425  1.0000
  C   C541      1.0  0.78096  0.09236  0.79989  1.0000
  C   C542      1.0  0.81239  0.11292  0.81402  1.0000
  C   C543      1.0  0.81970  0.08210  0.78851  1.0000
  C   C544      1.0  0.84977  0.23185  0.89625  1.0000
  H   H879      1.0  0.57027  0.05565  0.77081  1.0000
  S   S223      1.0  0.98308  0.05428  0.70519  1.0000
  H   H880      1.0  0.81384  0.07269  0.77364  1.0000
  C   C545      1.0  0.80246  0.11687  0.77469  1.0000
  Fe  Fe114     1.0  0.67027  0.01237  0.86432  1.0000
  H   H881      1.0  0.88526  0.22946  0.90478  1.0000
  C   C546      1.0  0.92620  0.15858  0.74115  1.0000
  C   C547      1.0  0.91042  0.17623  0.74599  1.0000
  C   C548      1.0  0.89108  0.17265  0.76022  1.0000
  C   C549      1.0  0.88744  0.15138  0.77000  1.0000
  C   C550      1.0  0.90314  0.13371  0.76507  1.0000
  C   C551      1.0  0.92241  0.13725  0.75070  1.0000
  H   H882      1.0  0.91316  0.19279  0.73866  1.0000
  H   H883      1.0  0.87905  0.18636  0.76367  1.0000
  H   H884      1.0  0.90050  0.11717  0.77251  1.0000
  H   H885      1.0  0.93438  0.12351  0.74713  1.0000
  H   H886      1.0  0.59864  0.01676  0.71589  1.0000
  H   H887      1.0  0.61029  0.04477  0.77069  1.0000
  H   H888      1.0  0.78116  0.08093  0.81511  1.0000
  N   N55       1.0  0.63237  0.23942  0.71723  1.0000
  H   H889      1.0  0.62329  0.02955  0.74727  1.0000
  C   C552      1.0  0.75125  0.07839  0.86145  1.0000
  C   C553      1.0  0.73319  0.09013  0.85122  1.0000
  C   C554      1.0  0.73586  0.11261  0.84365  1.0000
  C   C555      1.0  0.75651  0.12368  0.84634  1.0000
  C   C556      1.0  0.77429  0.11219  0.85727  1.0000
  C   C557      1.0  0.77176  0.08961  0.86449  1.0000
  H   H890      1.0  0.71731  0.08175  0.84878  1.0000
  H   H891      1.0  0.72190  0.12138  0.83540  1.0000
  H   H892      1.0  0.78999  0.12068  0.86014  1.0000
  H   H893      1.0  0.78574  0.08076  0.87262  1.0000
  H   H894      1.0  0.82971  0.11951  0.81051  1.0000
  C   C558      1.0  0.57960  0.01504  0.81039  1.0000
  H   H895      1.0  0.54831  0.09159  0.68361  1.0000
  C   C559      1.0  0.91141  0.18562  0.81179  1.0000
  C   C560      1.0  0.86872  0.23674  0.90932  1.0000
  S   S224      1.0  0.79707  0.24286  0.77646  1.0000
  H   H896      1.0  0.92597  0.19556  0.80500  1.0000
  H   H897      1.0  0.60562  0.22629  0.69726  1.0000
  N   N56       1.0  0.58790  0.03871  0.74312  1.0000
  C   C561      1.0  0.56733  0.04291  0.75762  1.0000
  C   C562      1.0  0.90557  0.21041  0.84367  1.0000
  N   N57       1.0  0.90923  0.18671  0.83683  1.0000
  C   C563      1.0  0.59328  0.05949  0.73014  1.0000
  C   C564      1.0  0.58355  0.02042  0.72719  1.0000
  S   S225      1.0  0.97079  0.11721  0.68079  1.0000
  Fe  Fe115     1.0  0.99355  0.09081  0.69726  1.0000
  S   S226      1.0  0.63818  0.02401  0.84497  1.0000
  C   C565      1.0  0.68549  0.00678  0.97883  1.0000
  H   H898      1.0  0.89145  0.15544  0.83960  1.0000
  C   C566      1.0  0.59682  0.02398  0.82368  1.0000
  H   H899      1.0  0.56890  0.02487  0.71618  1.0000
  H   H900      1.0  0.93342  0.15952  0.84222  1.0000
  C   C567      1.0  0.52178  0.11193  0.66804  1.0000
  C   C568      1.0  0.61665  0.01124  0.82891  1.0000
  H   H901      1.0  0.56192  0.02723  0.76653  1.0000
  N   N58       1.0  0.80386  0.10103  0.79425  1.0000
  S   S227      1.0  0.67366  0.00875  0.95116  1.0000
  S   S228      1.0  0.70523  0.00348  0.84912  1.0000
  S   S229      1.0  0.51050  0.02643  0.76500  1.0000
  S   S230      1.0  0.52734  0.05366  0.70597  1.0000
  H   H902      1.0  0.65736  0.21733  0.73251  1.0000
  H   H903      1.0  0.66535  0.24379  0.70112  1.0000
  C   C569      1.0  0.75228  0.23373  0.76626  1.0000
  H   H904      1.0  0.90349  0.21183  0.86248  1.0000
  H   H905      1.0  0.94542  0.18707  0.84134  1.0000
  C   C570      1.0  0.88960  0.17335  0.84480  1.0000
  H   H906      1.0  0.57937  0.00450  0.73653  1.0000
  C   C571      1.0  0.60725  0.03200  0.75752  1.0000
  H   H907      1.0  0.62860  0.21349  0.74288  1.0000
  C   C572      1.0  0.51548  0.07700  0.69021  1.0000
  H   H908      1.0  0.57886  0.06486  0.71915  1.0000
  H   H909      1.0  0.59675  0.23503  0.72538  1.0000
  H   H910      1.0  0.88723  0.17383  0.86364  1.0000
  S   S231      1.0  0.99834  0.11222  0.72807  1.0000
  H   H911      1.0  0.81374  0.23767  0.89266  1.0000
  C   C573      1.0  0.73191  0.23804  0.75464  1.0000
  H   H912      1.0  0.63735  0.20352  0.71520  1.0000
  H   H913      1.0  0.92553  0.19646  0.68302  1.0000
  H   H914      1.0  0.88975  0.21789  0.83630  1.0000
  H   H915      1.0  0.91412  0.16796  0.80601  1.0000
  H   H916      1.0  0.60402  0.01580  0.76669  1.0000
  H   H917      1.0  0.65250  0.00935  0.99576  1.0000
  Fe  Fe116     1.0  0.51153  0.02433  0.72670  1.0000
  H   H918      1.0  0.59469  0.04087  0.83020  1.0000
  H   H919      1.0  0.59652  0.07364  0.74171  1.0000
  H   H920      1.0  0.55272  0.04910  0.74739  1.0000
  C   C574      1.0  0.63919  0.21745  0.72742  1.0000
  H   H921      1.0  0.96749  0.01086  0.71992  1.0000
  C   C575      1.0  0.53021  0.09334  0.68090  1.0000
  H   H922      1.0  0.56435  0.02499  0.80708  1.0000
  H   H923      1.0  0.71728  0.22778  0.75843  1.0000
  C   C576      1.0  0.67065  0.00711  0.99808  1.0000
  C   C577      1.0  0.77128  0.24698  0.76175  1.0000
  H   H924      1.0  0.60865  0.05699  0.71888  1.0000
  C   C578      1.0  0.60826  0.23901  0.71060  1.0000
  C   C579      1.0  0.70891  0.00385  0.98219  1.0000
  C   C580      1.0  0.98168  0.00788  0.70812  1.0000
  C   C581      1.0  0.99255  0.02641  0.69771  1.0000
  C   C582      1.0  0.82849  0.24134  0.90245  1.0000
  C   C583      1.0  0.64696  0.24390  0.69691  1.0000
  H   H925      1.0  0.72067  0.00388  0.96771  1.0000
  H   H926      1.0  0.93295  0.15556  0.67708  1.0000
  C   C584      1.0  0.64361  0.44933  0.14165  1.0000
  C   C585      1.0  0.93432  0.36606  0.00537  1.0000
  H   H927      1.0  0.69480  0.43283  0.11812  1.0000
  C   C586      1.0  0.67734  0.44060  0.11875  1.0000
  H   H928      1.0  0.59427  0.40117  0.25224  1.0000
  H   H929      1.0  0.65337  0.40553  0.13546  1.0000
  C   C587      1.0  0.68062  0.44910  0.15854  1.0000
  H   H930      1.0  0.68281  0.46726  0.15448  1.0000
  C   C588      1.0  0.71857  0.26148  0.25997  1.0000
  Fe  Fe117     1.0  0.62407  0.47185  0.20254  1.0000
  S   S232      1.0  0.63503  0.43485  0.20649  1.0000
  S   S233      1.0  0.59747  0.47762  0.17616  1.0000
  H   H931      1.0  0.74130  0.29933  0.32506  1.0000
  Fe  Fe118     1.0  0.87725  0.29520  0.03410  1.0000
  S   S234      1.0  0.87449  0.28416  0.07151  1.0000
  S   S235      1.0  0.90010  0.32483  0.02764  1.0000
  Fe  Fe119     1.0  0.66915  0.34674  0.30834  1.0000
  S   S236      1.0  0.66338  0.38381  0.29816  1.0000
  Fe  Fe120     1.0  0.68394  0.29785  0.29917  1.0000
  S   S237      1.0  0.69307  0.26838  0.27564  1.0000
  H   H932      1.0  0.63472  0.44743  0.15848  1.0000
  H   H933      1.0  0.75735  0.29117  0.30003  1.0000
  S   S238      1.0  0.64957  0.31620  0.29882  1.0000
  S   S239      1.0  0.70365  0.32898  0.30596  1.0000
  C   C589      1.0  0.73601  0.27687  0.25640  1.0000
  H   H934      1.0  0.76974  0.28228  0.24214  1.0000
  H   H935      1.0  0.87116  0.26783  0.11749  1.0000
  H   H936      1.0  0.55427  0.46217  0.24651  1.0000
  C   C590      1.0  0.79989  0.41977  0.00227  1.0000
  H   H937      1.0  0.73375  0.29390  0.26247  1.0000
  H   H938      1.0  0.81859  0.26985  0.14481  1.0000
  H   H939      1.0  0.96806  0.32089  0.02856  1.0000
  S   S240      1.0  0.89324  0.27471  0.00549  1.0000
  C   C591      1.0  0.85803  0.26242  0.08422  1.0000
  C   C592      1.0  0.64371  0.42090  0.23186  1.0000
  C   C593      1.0  0.64928  0.43279  0.25115  1.0000
  C   C594      1.0  0.65530  0.42109  0.27120  1.0000
  C   C595      1.0  0.65609  0.39739  0.27217  1.0000
  C   C596      1.0  0.65075  0.38547  0.25278  1.0000
  C   C597      1.0  0.64464  0.39719  0.23272  1.0000
  H   H940      1.0  0.64898  0.45102  0.25070  1.0000
  H   H941      1.0  0.65953  0.43044  0.28608  1.0000
  H   H942      1.0  0.65131  0.36724  0.25330  1.0000
  H   H943      1.0  0.64046  0.38779  0.21787  1.0000
  Fe  Fe121     1.0  0.76216  0.47275  0.00187  1.0000
  H   H944      1.0  0.59379  0.41690  0.22603  1.0000
  H   H945      1.0  0.61510  0.26388  0.32265  1.0000
  C   C598      1.0  0.85977  0.25802  0.10771  1.0000
  S   S241      1.0  0.54389  0.49787  0.21331  1.0000
  H   H946      1.0  0.67891  0.45862  0.11352  1.0000
  H   H947      1.0  0.64464  0.46766  0.13781  1.0000
  H   H948      1.0  0.67272  0.44789  0.17595  1.0000
  H   H949      1.0  0.78679  0.29625  0.17613  1.0000
  C   C599      1.0  0.84085  0.39285  0.00126  1.0000
  C   C600      1.0  0.79977  0.39667  0.00816  1.0000
  H   H950      1.0  0.80458  0.29580  0.13668  1.0000
  S   S242      1.0  0.84906  0.31042  0.01305  1.0000
  H   H951      1.0  0.74617  0.27694  0.15152  1.0000
  H   H952      1.0  0.72810  0.28340  0.30381  1.0000
  C   C601      1.0  0.66421  0.41419  0.14766  1.0000
  C   C602      1.0  0.78483  0.27774  0.17492  1.0000
  N   N59       1.0  0.66646  0.43830  0.14162  1.0000
  H   H953      1.0  0.80000  0.26938  0.18273  1.0000
  C   C603      1.0  0.74429  0.28547  0.31277  1.0000
  H   H954      1.0  0.68111  0.40526  0.14774  1.0000
  C   C604      1.0  0.98272  0.31747  0.01749  1.0000
  Fe  Fe122     1.0  0.87298  0.33838  0.00434  1.0000
  H   H955      1.0  0.81967  0.36575  0.01278  1.0000
  H   H956      1.0  0.94405  0.37411  0.01885  1.0000
  H   H957      1.0  0.65619  0.41200  0.16496  1.0000
  H   H958      1.0  0.66723  0.43244  0.10559  1.0000
  N   N60       1.0  0.75145  0.26432  0.32433  1.0000
  H   H959      1.0  0.69791  0.44102  0.15919  1.0000
  C   C605      1.0  0.75634  0.27026  0.24472  1.0000
  H   H960      1.0  0.63258  0.44205  0.12871  1.0000
  H   H961      1.0  0.76285  0.30040  0.14192  1.0000
  S   S243      1.0  0.77250  0.49772  0.02787  1.0000
  H   H962      1.0  0.57186  0.45264  0.22309  1.0000
  N   N61       1.0  0.57440  0.43215  0.25350  1.0000
  C   C606      1.0  0.59369  0.44477  0.26200  1.0000
  C   C607      1.0  0.55962  0.42505  0.27291  1.0000
  C   C608      1.0  0.58324  0.41206  0.24125  1.0000
  C   C609      1.0  0.56116  0.44678  0.23786  1.0000
  H   H963      1.0  0.60521  0.45016  0.24775  1.0000
  H   H964      1.0  0.60413  0.43431  0.27390  1.0000
  H   H965      1.0  0.58777  0.46025  0.27108  1.0000
  H   H966      1.0  0.55283  0.43985  0.28258  1.0000
  H   H967      1.0  0.54477  0.41560  0.26711  1.0000
  H   H968      1.0  0.56916  0.41393  0.28497  1.0000
  H   H969      1.0  0.56917  0.40166  0.23525  1.0000
  H   H970      1.0  0.54645  0.43794  0.23093  1.0000
  H   H971      1.0  0.77024  0.25241  0.29469  1.0000
  H   H972      1.0  0.78379  0.38906  0.01306  1.0000
  C   C610      1.0  0.76182  0.28172  0.14163  1.0000
  S   S244      1.0  0.72419  0.47884  0.00834  1.0000
  N   N62       1.0  0.78238  0.27071  0.15114  1.0000
  C   C611      1.0  0.82008  0.38335  0.00786  1.0000
  H   H973      1.0  0.80205  0.27109  0.11967  1.0000
  H   H974      1.0  0.76978  0.27302  0.18578  1.0000
  C   C612      1.0  0.80275  0.27720  0.13746  1.0000
  H   H975      1.0  0.75957  0.27675  0.12367  1.0000
  H   H976      1.0  0.52562  0.26957  0.32859  1.0000
  H   H977      1.0  0.91585  0.36820  0.00999  1.0000
  H   H978      1.0  0.93869  0.34771  0.00595  1.0000
  H   H979      1.0  0.84175  0.25283  0.05368  1.0000
  S   S245      1.0  0.60670  0.49523  0.22751  1.0000
  H   H980      1.0  0.50132  0.29975  0.31062  1.0000
  S   S246      1.0  0.77334  0.43515  0.00134  1.0000
  S   S247      1.0  0.64677  0.49854  0.18780  1.0000
  H   H981      1.0  0.78613  0.27450  0.32666  1.0000
  H   H982      1.0  0.71722  0.25313  0.32997  1.0000
  Fe  Fe123     1.0  0.97650  0.28094  0.49835  1.0000
  S   S248      1.0  0.95276  0.31172  0.49186  1.0000
  Fe  Fe124     1.0  0.80759  0.41933  0.49309  1.0000
  S   S249      1.0  0.77086  0.41197  0.50045  1.0000
  S   S250      1.0  0.81868  0.45479  0.48137  1.0000
  Fe  Fe125     1.0  0.82198  0.36846  0.49799  1.0000
  S   S251      1.0  0.78528  0.35855  0.50439  1.0000
  S   S252      1.0  0.84620  0.33770  0.50357  1.0000
  Fe  Fe126     1.0  0.77633  0.38302  0.47623  1.0000
  S   S253      1.0  0.74824  0.38232  0.45004  1.0000
  Fe  Fe127     1.0  0.78301  0.38800  0.52778  1.0000
  S   S254      1.0  0.77008  0.38772  0.56481  1.0000
  S   S255      1.0  0.81295  0.39093  0.46790  1.0000
  S   S256      1.0  0.81977  0.39745  0.52231  1.0000
  H   H983      1.0  0.88569  0.36287  0.48553  1.0000
  H   H984      1.0  0.92681  0.35206  0.48153  1.0000
  C   C613      1.0  0.64472  0.31413  0.61901  1.0000
  S   S257      1.0  0.72825  0.31756  0.36719  1.0000
  H   H985      1.0  0.66028  0.29951  0.56507  1.0000
  S   S258      1.0  0.68043  0.28808  0.33619  1.0000
  S   S259      1.0  0.70783  0.31728  0.61922  1.0000
  H   H986      1.0  0.76676  0.45842  0.47449  1.0000
  H   H987      1.0  0.82092  0.33965  0.60717  1.0000
  H   H988      1.0  0.93262  0.26967  0.47783  1.0000
  C   C614      1.0  0.74320  0.36396  0.42714  1.0000
  C   C615      1.0  0.75772  0.34564  0.42177  1.0000
  C   C616      1.0  0.75290  0.33165  0.40339  1.0000
  C   C617      1.0  0.73356  0.33577  0.39015  1.0000
  C   C618      1.0  0.71909  0.35413  0.39550  1.0000
  C   C619      1.0  0.72391  0.36811  0.41387  1.0000
  H   H989      1.0  0.77262  0.34221  0.43179  1.0000
  H   H990      1.0  0.76422  0.31751  0.39944  1.0000
  H   H991      1.0  0.70415  0.35754  0.38553  1.0000
  H   H992      1.0  0.71250  0.38217  0.41785  1.0000
  C   C620      1.0  0.75209  0.36828  0.57932  1.0000
  C   C621      1.0  0.74316  0.34977  0.56852  1.0000
  C   C622      1.0  0.72969  0.33434  0.58101  1.0000
  C   C623      1.0  0.72486  0.33728  0.60436  1.0000
  C   C624      1.0  0.73370  0.35583  0.61513  1.0000
  C   C625      1.0  0.74727  0.37120  0.60267  1.0000
  H   H993      1.0  0.74656  0.34738  0.55054  1.0000
  H   H994      1.0  0.72293  0.32005  0.57249  1.0000
  H   H995      1.0  0.73012  0.35834  0.63306  1.0000
  H   H996      1.0  0.75407  0.38547  0.61119  1.0000
  H   H997      1.0  0.91257  0.29491  0.42334  1.0000
  C   C626      1.0  0.81013  0.48254  0.49020  1.0000
  C   C627      1.0  0.79510  0.48641  0.50870  1.0000
  S   S260      1.0  0.61600  0.29837  0.35771  1.0000
  H   H998      1.0  0.78844  0.47227  0.51834  1.0000
  C   C628      1.0  0.92316  0.31876  0.49612  1.0000
  C   C629      1.0  0.90756  0.30359  0.50562  1.0000
  C   C630      1.0  0.88418  0.30973  0.50769  1.0000
  C   C631      1.0  0.87600  0.33115  0.50052  1.0000
  C   C632      1.0  0.89161  0.34635  0.49116  1.0000
  C   C633      1.0  0.91497  0.34014  0.48892  1.0000
  H   H999      1.0  0.91349  0.28718  0.51147  1.0000
  H   H1000     1.0  0.87232  0.29780  0.51496  1.0000
  N   N63       1.0  0.75758  0.45128  0.44025  1.0000
  C   C634      1.0  0.73643  0.43978  0.44732  1.0000
  C   C635      1.0  0.75400  0.46362  0.41860  1.0000
  C   C636      1.0  0.77629  0.43439  0.43710  1.0000
  C   C637      1.0  0.76365  0.46727  0.45798  1.0000
  H   H1001     1.0  0.54961  0.25235  0.37664  1.0000
  H   H1002     1.0  0.77927  0.42473  0.45307  1.0000
  H   H1003     1.0  0.95704  0.28704  0.44844  1.0000
  H   H1004     1.0  0.74003  0.47655  0.42035  1.0000
  Fe  Fe128     1.0  0.64759  0.30823  0.33639  1.0000
  C   C638      1.0  0.92673  0.25751  0.46521  1.0000
  H   H1005     1.0  0.95305  0.28137  0.41900  1.0000
  H   H1006     1.0  0.74993  0.48023  0.46103  1.0000
  H   H1007     1.0  0.77956  0.47621  0.45320  1.0000
  H   H1008     1.0  0.83865  0.35705  0.54839  1.0000
  C   C639      1.0  0.56990  0.25375  0.64813  1.0000
  H   H1009     1.0  0.73153  0.42734  0.43445  1.0000
  H   H1010     1.0  0.65526  0.30119  0.62798  1.0000
  H   H1011     1.0  0.57602  0.28382  0.38203  1.0000
  H   H1012     1.0  0.61200  0.28715  0.60567  1.0000
  C   C640      1.0  0.61723  0.25949  0.64828  1.0000
  H   H1013     1.0  0.62851  0.31649  0.62911  1.0000
  H   H1014     1.0  0.67219  0.32067  0.58246  1.0000
  H   H1015     1.0  0.79266  0.44240  0.43213  1.0000
  H   H1016     1.0  0.77229  0.42186  0.42397  1.0000
  C   C641      1.0  0.95143  0.27407  0.43645  1.0000
  H   H1017     1.0  0.96366  0.25944  0.43753  1.0000
  C   C642      1.0  0.62850  0.28582  0.59585  1.0000
  N   N64       1.0  0.81995  0.33508  0.57102  1.0000
  S   S261      1.0  0.66500  0.34000  0.34613  1.0000
  C   C643      1.0  0.80293  0.33012  0.55390  1.0000
  Fe  Fe129     1.0  0.69575  0.31805  0.65643  1.0000
  H   H1018     1.0  0.84681  0.31641  0.55366  1.0000
  H   H1019     1.0  0.63500  0.34151  0.58380  1.0000
  C   C644      1.0  0.62640  0.32499  0.58423  1.0000
  N   N65       1.0  0.64054  0.30739  0.59547  1.0000
  C   C645      1.0  0.83798  0.31724  0.57070  1.0000
  H   H1020     1.0  0.73860  0.43018  0.46357  1.0000
  H   H1021     1.0  0.60966  0.32745  0.59337  1.0000
  H   H1022     1.0  0.55163  0.25170  0.64814  1.0000
  C   C646      1.0  0.83023  0.35704  0.56559  1.0000
  H   H1023     1.0  0.84332  0.36127  0.57801  1.0000
  C   C647      1.0  0.80862  0.33600  0.59376  1.0000
  H   H1024     1.0  0.51360  0.25227  0.35076  1.0000
  C   C648      1.0  0.91233  0.28718  0.44068  1.0000
  H   H1025     1.0  0.89443  0.28283  0.44525  1.0000
  C   C649      1.0  0.66261  0.30469  0.58292  1.0000
  Fe  Fe130     1.0  0.69808  0.32037  0.34320  1.0000
  H   H1026     1.0  0.72190  0.45193  0.44985  1.0000
  H   H1027     1.0  0.67386  0.29178  0.59122  1.0000
  H   H1028     1.0  0.79506  0.34951  0.59437  1.0000
  H   H1029     1.0  0.79411  0.31413  0.55790  1.0000
  H   H1030     1.0  0.81711  0.37093  0.56581  1.0000
  H   H1031     1.0  0.74938  0.45196  0.40490  1.0000
  H   H1032     1.0  0.65411  0.33018  0.61933  1.0000
  H   H1033     1.0  0.63887  0.27211  0.60396  1.0000
  H   H1034     1.0  0.78965  0.34376  0.55298  1.0000
  H   H1035     1.0  0.76970  0.47240  0.41276  1.0000
  C   C650      1.0  0.57880  0.27257  0.36787  1.0000
  H   H1036     1.0  0.62468  0.28034  0.57839  1.0000
  H   H1037     1.0  0.63547  0.26156  0.64813  1.0000
  H   H1038     1.0  0.62294  0.32053  0.56637  1.0000
  H   H1039     1.0  0.83082  0.30039  0.57448  1.0000
  H   H1040     1.0  0.51836  0.28148  0.35582  1.0000
  H   H1041     1.0  0.85117  0.32040  0.58340  1.0000
  H   H1042     1.0  0.80031  0.31985  0.59833  1.0000
  C   C651      1.0  0.59746  0.27596  0.35276  1.0000
  H   H1043     1.0  0.81097  0.32856  0.53662  1.0000
  H   H1044     1.0  0.82989  0.49861  0.46341  1.0000
  C   C652      1.0  0.77181  0.26843  0.33772  1.0000
  C   C653      1.0  0.57913  0.27213  0.65929  1.0000
  N   N66       1.0  0.92787  0.26724  0.44197  1.0000
  H   H1045     1.0  0.76806  0.28153  0.35082  1.0000
  H   H1046     1.0  0.91733  0.30043  0.45267  1.0000
  C   C654      1.0  0.60280  0.27508  0.65951  1.0000
  C   C655      1.0  0.56382  0.25475  0.36485  1.0000
  H   H1047     1.0  0.90908  0.25289  0.47036  1.0000
  C   C656      1.0  0.51278  0.26943  0.34291  1.0000
  C   C657      1.0  0.73275  0.25664  0.33966  1.0000
  H   H1048     1.0  0.77776  0.25286  0.34674  1.0000
  H   H1049     1.0  0.92181  0.25681  0.40791  1.0000
  S   S262      1.0  0.00053  0.27165  0.46906  1.0000
  C   C658      1.0  0.60085  0.26144  0.33443  1.0000
  H   H1050     1.0  0.72787  0.26969  0.35246  1.0000
  C   C659      1.0  0.92113  0.25011  0.42567  1.0000
  N   N67       1.0  0.80611  0.33808  0.95558  1.0000
  C   C660      1.0  0.73033  0.25552  0.73831  1.0000
  H   H1051     1.0  0.80790  0.30917  0.97799  1.0000
  H   H1052     1.0  0.62975  0.27418  0.72678  1.0000
  H   H1053     1.0  0.92978  0.37144  0.94808  1.0000
  H   H1054     1.0  0.60246  0.25564  0.70353  1.0000
  C   C661      1.0  0.92634  0.36446  0.96544  1.0000
  C   C662      1.0  0.79866  0.32572  0.97638  1.0000
  H   H1055     1.0  0.78438  0.27465  0.74166  1.0000
  C   C663      1.0  0.69061  0.48551  0.92368  1.0000
  H   H1056     1.0  0.84082  0.32599  0.95714  1.0000
  Fe  Fe131     1.0  0.86632  0.29158  0.98383  1.0000
  S   S263      1.0  0.84107  0.27786  0.95878  1.0000
  S   S264      1.0  0.88857  0.32050  0.97407  1.0000
  Fe  Fe132     1.0  0.69498  0.29060  0.70161  1.0000
  S   S265      1.0  0.66428  0.31014  0.71478  1.0000
  S   S266      1.0  0.76345  0.49850  0.97325  1.0000
  Fe  Fe133     1.0  0.68200  0.34080  0.70142  1.0000
  S   S267      1.0  0.68807  0.37018  0.72498  1.0000
  Fe  Fe134     1.0  0.65050  0.30686  0.67975  1.0000
  S   S268      1.0  0.71377  0.32132  0.68961  1.0000
  H   H1057     1.0  0.79674  0.37063  0.96894  1.0000
  H   H1058     1.0  0.67833  0.49479  0.70128  1.0000
  C   C664      1.0  0.86647  0.25086  0.92839  1.0000
  H   H1059     1.0  0.63854  0.46419  0.69144  1.0000
  C   C665      1.0  0.51968  0.48674  0.80883  1.0000
  H   H1060     1.0  0.83496  0.35185  0.97172  1.0000
  Fe  Fe135     1.0  0.61747  0.47014  0.79076  1.0000
  S   S269      1.0  0.61439  0.43998  0.76738  1.0000
  S   S270      1.0  0.60281  0.47210  0.82649  1.0000
  H   H1061     1.0  0.68071  0.45976  0.90061  1.0000
  H   H1062     1.0  0.93685  0.40815  0.96574  1.0000
  H   H1063     1.0  0.59990  0.48018  0.92842  1.0000
  H   H1064     1.0  0.82121  0.44710  0.99163  1.0000
  C   C666      1.0  0.66723  0.38910  0.73697  1.0000
  C   C667      1.0  0.67409  0.40546  0.75225  1.0000
  C   C668      1.0  0.65815  0.42089  0.76210  1.0000
  C   C669      1.0  0.63514  0.42021  0.75663  1.0000
  C   C670      1.0  0.62830  0.40382  0.74139  1.0000
  C   C671      1.0  0.64420  0.38831  0.73165  1.0000
  H   H1065     1.0  0.69185  0.40620  0.75653  1.0000
  H   H1066     1.0  0.66368  0.43322  0.77397  1.0000
  H   H1067     1.0  0.61054  0.40313  0.73704  1.0000
  H   H1068     1.0  0.63863  0.37584  0.71996  1.0000
  C   C672      1.0  0.83080  0.34213  0.95643  1.0000
  H   H1069     1.0  0.74864  0.28179  0.72073  1.0000
  H   H1070     1.0  0.62477  0.25444  0.74969  1.0000
  S   S271      1.0  0.70389  0.26097  0.72507  1.0000
  C   C673      1.0  0.93327  0.40013  0.98264  1.0000
  H   H1071     1.0  0.77475  0.35755  0.95372  1.0000
  H   H1072     1.0  0.83703  0.35176  0.94125  1.0000
  C   C674      1.0  0.96418  0.37269  0.97730  1.0000
  H   H1073     1.0  0.78309  0.32107  0.93423  1.0000
  C   C675      1.0  0.99896  0.30498  0.98159  1.0000
  H   H1074     1.0  0.81081  0.30793  0.93603  1.0000
  C   C676      1.0  0.76970  0.26444  0.74538  1.0000
  C   C677      1.0  0.74941  0.26859  0.73357  1.0000
  N   N68       1.0  0.71683  0.31977  0.77203  1.0000
  C   C678      1.0  0.72273  0.29770  0.78261  1.0000
  C   C679      1.0  0.72515  0.32009  0.74812  1.0000
  C   C680      1.0  0.72762  0.33795  0.78441  1.0000
  C   C681      1.0  0.69181  0.32338  0.77280  1.0000
  H   H1075     1.0  0.71725  0.29696  0.80085  1.0000
  H   H1076     1.0  0.74145  0.29401  0.78160  1.0000
  H   H1077     1.0  0.71439  0.28371  0.77391  1.0000
  H   H1078     1.0  0.74393  0.31707  0.74676  1.0000
  H   H1079     1.0  0.71703  0.30682  0.73824  1.0000
  H   H1080     1.0  0.72125  0.33658  0.73963  1.0000
  H   H1081     1.0  0.72348  0.35478  0.77667  1.0000
  H   H1082     1.0  0.74653  0.33574  0.78407  1.0000
  H   H1083     1.0  0.72169  0.33832  0.80253  1.0000
  H   H1084     1.0  0.68678  0.33981  0.76470  1.0000
  H   H1085     1.0  0.68487  0.32342  0.79059  1.0000
  H   H1086     1.0  0.68317  0.30995  0.76356  1.0000
  H   H1087     1.0  0.63836  0.44921  0.71815  1.0000
  H   H1088     1.0  0.53451  0.47737  0.80245  1.0000
  C   C682      1.0  0.84514  0.26018  0.93472  1.0000
  H   H1089     1.0  0.80197  0.33537  0.99195  1.0000
  C   C683      1.0  0.63518  0.25744  0.73389  1.0000
  H   H1090     1.0  0.80717  0.33322  0.91940  1.0000
  N   N69       1.0  0.93956  0.37587  0.98267  1.0000
  C   C684      1.0  0.82077  0.42940  0.99623  1.0000
  H   H1091     1.0  0.99682  0.29870  0.96464  1.0000
  H   H1092     1.0  0.69994  0.47388  0.93453  1.0000
  S   S272      1.0  0.65298  0.48082  0.86643  1.0000
  S   S273      1.0  0.61347  0.29802  0.67469  1.0000
  H   H1093     1.0  0.58400  0.45784  0.89742  1.0000
  C   C685      1.0  0.79348  0.35990  0.95411  1.0000
  C   C686      1.0  0.67964  0.47754  0.90437  1.0000
  C   C687      1.0  0.80155  0.32454  0.93540  1.0000
  Fe  Fe136     1.0  0.91453  0.30542  0.99792  1.0000
  C   C688      1.0  0.64760  0.46207  0.70772  1.0000
  C   C689      1.0  0.84105  0.41600  0.99562  1.0000
  H   H1094     1.0  0.79863  0.36966  0.93858  1.0000
  C   C690      1.0  0.66101  0.47996  0.74116  1.0000
  H   H1095     1.0  0.78013  0.32229  0.97635  1.0000
  Fe  Fe137     1.0  0.63354  0.49249  0.83456  1.0000
  N   N70       1.0  0.64859  0.48361  0.71989  1.0000
  C   C691      1.0  0.97953  0.30931  0.99562  1.0000
  H   H1096     1.0  0.96917  0.35442  0.97709  1.0000
  H   H1097     1.0  0.61528  0.49508  0.70968  1.0000
  H   H1098     1.0  0.64272  0.26069  0.68938  1.0000
  S   S274      1.0  0.64919  0.48799  0.79940  1.0000
  H   H1099     1.0  0.67843  0.47271  0.73790  1.0000
  C   C692      1.0  0.66735  0.49227  0.88992  1.0000
  H   H1100     1.0  0.96881  0.37990  0.96028  1.0000
  H   H1101     1.0  0.94278  0.40929  0.99556  1.0000
  H   H1102     1.0  0.66496  0.45492  0.70380  1.0000
  S   S275      1.0  0.95188  0.30540  0.98439  1.0000
  H   H1103     1.0  0.61565  0.47961  0.73612  1.0000
  H   H1104     1.0  0.65188  0.46817  0.75284  1.0000
  C   C693      1.0  0.56508  0.49894  0.90537  1.0000
  H   H1105     1.0  0.90767  0.36635  0.96911  1.0000
  H   H1106     1.0  0.66279  0.49600  0.75040  1.0000
  H   H1107     1.0  0.62221  0.48875  0.90902  1.0000
  H   H1108     1.0  0.80959  0.26231  0.92638  1.0000
  H   H1109     1.0  0.85697  0.42365  0.99062  1.0000
  H   H1110     1.0  0.93068  0.34609  0.96500  1.0000
  C   C694      1.0  0.62517  0.49198  0.72531  1.0000
  H   H1111     1.0  0.57671  0.47146  0.87102  1.0000
  C   C695      1.0  0.58879  0.47158  0.88529  1.0000
  C   C696      1.0  0.60456  0.49307  0.91529  1.0000
  H   H1112     1.0  0.97473  0.38074  0.99015  1.0000
  H   H1113     1.0  0.65333  0.25865  0.73873  1.0000
  H   H1114     1.0  0.60611  0.46723  0.87816  1.0000
  N   N71       1.0  0.58838  0.49372  0.89646  1.0000
  C   C697      1.0  0.82621  0.25536  0.92160  1.0000
  H   H1115     1.0  0.91470  0.40281  0.98669  1.0000
  H   H1116     1.0  0.55925  0.48586  0.91782  1.0000
  S   S276      1.0  0.86682  0.37649  0.99918  1.0000
  H   H1117     1.0  0.88118  0.25433  0.93831  1.0000
  H   H1118     1.0  0.56778  0.28408  0.66790  1.0000
  S   S277      1.0  0.67986  0.28530  0.66749  1.0000
  S   S278      1.0  0.66537  0.33962  0.66737  1.0000
  H   H1119     1.0  0.55263  0.49983  0.89137  1.0000
  Fe  Fe138     1.0  0.87252  0.71724  0.01848  1.0000
  S   S279      1.0  0.89094  0.68508  0.02894  1.0000
  C   C698      1.0  0.67401  0.50610  0.12171  1.0000
  H   H1120     1.0  0.87041  0.72890  0.12133  1.0000
  Fe  Fe139     1.0  0.62728  0.52285  0.21087  1.0000
  S   S280      1.0  0.65109  0.54608  0.22921  1.0000
  S   S281      1.0  0.60049  0.53189  0.18528  1.0000
  Fe  Fe140     1.0  0.61917  0.50606  0.16322  1.0000
  C   C699      1.0  0.68838  0.56628  0.14262  1.0000
  C   C700      1.0  0.86287  0.74047  0.10912  1.0000
  Fe  Fe141     1.0  0.70216  0.69675  0.29332  1.0000
  S   S282      1.0  0.70108  0.65885  0.29742  1.0000
  S   S283      1.0  0.72450  0.70840  0.26311  1.0000
  Fe  Fe142     1.0  0.66324  0.66359  0.29470  1.0000
  S   S284      1.0  0.64066  0.64526  0.27017  1.0000
  H   H1121     1.0  0.87684  0.72254  0.07995  1.0000
  S   S285      1.0  0.66423  0.70134  0.28956  1.0000
  Fe  Fe143     1.0  0.58087  0.50246  0.20023  1.0000
  C   C701      1.0  0.57832  0.74226  0.32776  1.0000
  H   H1122     1.0  0.56872  0.73874  0.31285  1.0000
  H   H1123     1.0  0.81749  0.72583  0.07439  1.0000
  C   C702      1.0  0.75199  0.73582  0.23689  1.0000
  H   H1124     1.0  0.79543  0.57266  0.03179  1.0000
  H   H1125     1.0  0.78895  0.69431  0.04698  1.0000
  H   H1126     1.0  0.70964  0.54731  0.17853  1.0000
  C   C703      1.0  0.64368  0.61741  0.25945  1.0000
  C   C704      1.0  0.66320  0.60393  0.26292  1.0000
  C   C705      1.0  0.66504  0.58216  0.25363  1.0000
  C   C706      1.0  0.64736  0.57346  0.24097  1.0000
  C   C707      1.0  0.62790  0.58699  0.23734  1.0000
  C   C708      1.0  0.62615  0.60886  0.24646  1.0000
  H   H1127     1.0  0.67684  0.61022  0.27285  1.0000
  H   H1128     1.0  0.68019  0.57188  0.25655  1.0000
  H   H1129     1.0  0.61416  0.58061  0.22761  1.0000
  H   H1130     1.0  0.61096  0.61912  0.24366  1.0000
  C   C709      1.0  0.81651  0.60203  0.02779  1.0000
  H   H1131     1.0  0.67005  0.59668  0.17205  1.0000
  S   S286      1.0  0.72294  0.50633  0.07112  1.0000
  C   C710      1.0  0.67535  0.50983  0.07405  1.0000
  C   C711      1.0  0.98036  0.70290  0.01583  1.0000
  C   C712      1.0  0.51268  0.51067  0.17994  1.0000
  H   H1132     1.0  0.64419  0.56937  0.15536  1.0000
  C   C713      1.0  0.67987  0.58227  0.17957  1.0000
  H   H1133     1.0  0.79278  0.71176  0.08535  1.0000
  H   H1134     1.0  0.69781  0.58743  0.18131  1.0000
  C   C714      1.0  0.69144  0.54315  0.17658  1.0000
  S   S287      1.0  0.84374  0.63935  0.02394  1.0000
  Fe  Fe144     1.0  0.86519  0.66768  0.00750  1.0000
  S   S288      1.0  0.65766  0.66680  0.33249  1.0000
  H   H1135     1.0  0.79021  0.67028  0.08170  1.0000
  C   C715      1.0  0.86640  0.73672  0.08564  1.0000
  H   H1136     1.0  0.84986  0.70281  0.05649  1.0000
  H   H1137     1.0  0.84826  0.67281  0.05654  1.0000
  H   H1138     1.0  0.81362  0.65435  0.06909  1.0000
  H   H1139     1.0  0.85113  0.68721  0.08283  1.0000
  C   C716      1.0  0.69583  0.50706  0.08549  1.0000
  N   N72       1.0  0.81780  0.69018  0.06855  1.0000
  C   C717      1.0  0.65442  0.55579  0.16382  1.0000
  H   H1140     1.0  0.67913  0.58038  0.13388  1.0000
  H   H1141     1.0  0.96558  0.70769  0.02622  1.0000
  H   H1142     1.0  0.68734  0.55124  0.13162  1.0000
  C   C718      1.0  0.84286  0.68816  0.06605  1.0000
  H   H1143     1.0  0.67269  0.57928  0.19709  1.0000
  H   H1144     1.0  0.64638  0.55270  0.18089  1.0000
  H   H1145     1.0  0.81945  0.70877  0.09962  1.0000
  H   H1146     1.0  0.81646  0.66661  0.09659  1.0000
  H   H1147     1.0  0.65267  0.54028  0.15373  1.0000
  H   H1148     1.0  0.81391  0.70885  0.03727  1.0000
  C   C719      1.0  0.81155  0.70993  0.08263  1.0000
  C   C720      1.0  0.80909  0.66945  0.07952  1.0000
  C   C721      1.0  0.80787  0.69315  0.04586  1.0000
  N   N73       1.0  0.67523  0.68486  0.22071  1.0000
  C   C722      1.0  0.65053  0.68345  0.22598  1.0000
  C   C723      1.0  0.68794  0.66963  0.23621  1.0000
  C   C724      1.0  0.68249  0.70827  0.22366  1.0000
  C   C725      1.0  0.68001  0.67803  0.19698  1.0000
  H   H1149     1.0  0.64639  0.68837  0.24385  1.0000
  H   H1150     1.0  0.64450  0.66594  0.22423  1.0000
  H   H1151     1.0  0.64031  0.69469  0.21467  1.0000
  H   H1152     1.0  0.70670  0.67042  0.23305  1.0000
  H   H1153     1.0  0.68471  0.67436  0.25417  1.0000
  H   H1154     1.0  0.68272  0.65182  0.23478  1.0000
  H   H1155     1.0  0.70111  0.70993  0.21996  1.0000
  H   H1156     1.0  0.67941  0.71387  0.24148  1.0000
  H   H1157     1.0  0.67323  0.72031  0.21235  1.0000
  H   H1158     1.0  0.69855  0.67890  0.19258  1.0000
  H   H1159     1.0  0.67073  0.68919  0.18480  1.0000
  H   H1160     1.0  0.67473  0.66043  0.19426  1.0000
  H   H1161     1.0  0.81276  0.67878  0.03458  1.0000
  H   H1162     1.0  0.81426  0.60681  0.04538  1.0000
  C   C726      1.0  0.74110  0.73277  0.25830  1.0000
  H   H1163     1.0  0.69099  0.52750  0.16652  1.0000
  C   C727      1.0  0.80577  0.58258  0.02013  1.0000
  N   N74       1.0  0.67854  0.56187  0.16562  1.0000
  H   H1164     1.0  0.70666  0.57066  0.14323  1.0000
  H   H1165     1.0  0.68427  0.53917  0.19386  1.0000
  Fe  Fe145     1.0  0.73459  0.50472  0.03340  1.0000
  H   H1166     1.0  0.75011  0.72341  0.22388  1.0000
  C   C728      1.0  0.83027  0.61518  0.01301  1.0000
  Fe  Fe146     1.0  0.66193  0.70401  0.32759  1.0000
  C   C729      1.0  0.69499  0.50519  0.10940  1.0000
  S   S289      1.0  0.73403  0.53287  0.00721  1.0000
  C   C730      1.0  0.65358  0.50922  0.11030  1.0000
  H   H1167     1.0  0.67364  0.50454  0.13999  1.0000
  H   H1168     1.0  0.67570  0.51134  0.05569  1.0000
  H   H1169     1.0  0.60845  0.72368  0.31582  1.0000
  H   H1170     1.0  0.52699  0.51715  0.17013  1.0000
  C   C731      1.0  0.60086  0.73369  0.32939  1.0000
  S   S290      1.0  0.70025  0.70255  0.33119  1.0000
  H   H1171     1.0  0.63868  0.51341  0.07737  1.0000
  S   S291      1.0  0.62678  0.51119  0.12519  1.0000
  S   S292      1.0  0.85912  0.74691  0.03986  1.0000
  C   C732      1.0  0.65438  0.51101  0.08642  1.0000
  H   H1172     1.0  0.71074  0.50301  0.11840  1.0000
  C   C733      1.0  0.74384  0.74893  0.27500  1.0000
  H   H1173     1.0  0.73561  0.74682  0.29154  1.0000
  C   C734      1.0  0.51634  0.50030  0.20110  1.0000
  Fe  Fe147     1.0  0.77102  0.52426  0.99991  1.0000
  C   C735      1.0  0.68081  0.67375  0.42194  1.0000
  H   H1174     1.0  0.69921  0.70885  0.40003  1.0000
  Fe  Fe148     1.0  0.96765  0.73422  0.50715  1.0000
  S   S293      1.0  0.93240  0.71937  0.51595  1.0000
  S   S294      1.0  0.70128  0.64559  0.63503  1.0000
  S   S295      1.0  0.70806  0.64204  0.36401  1.0000
  Fe  Fe149     1.0  0.83325  0.62910  0.50022  1.0000
  S   S296      1.0  0.80674  0.65659  0.49800  1.0000
  S   S297      1.0  0.87160  0.63427  0.49435  1.0000
  Fe  Fe150     1.0  0.79667  0.59249  0.50368  1.0000
  S   S298      1.0  0.76757  0.61842  0.50124  1.0000
  S   S299      1.0  0.78901  0.55520  0.51194  1.0000
  Fe  Fe151     1.0  0.78907  0.63472  0.47344  1.0000
  S   S300      1.0  0.78063  0.65543  0.44145  1.0000
  Fe  Fe152     1.0  0.78733  0.63839  0.52592  1.0000
  S   S301      1.0  0.77347  0.66203  0.55376  1.0000
  S   S302      1.0  0.81675  0.60765  0.47423  1.0000
  S   S303      1.0  0.81533  0.61198  0.52991  1.0000
  C   C736      1.0  0.79723  0.52747  0.50274  1.0000
  C   C737      1.0  0.81200  0.52360  0.48404  1.0000
  H   H1175     1.0  0.75728  0.63941  0.64087  1.0000
  H   H1176     1.0  0.81825  0.53775  0.47416  1.0000
  H   H1177     1.0  0.64562  0.70170  0.63720  1.0000
  C   C738      1.0  0.72852  0.64609  0.38521  1.0000
  C   C739      1.0  0.74195  0.66520  0.38549  1.0000
  C   C740      1.0  0.75769  0.66777  0.40289  1.0000
  C   C741      1.0  0.76014  0.65138  0.42027  1.0000
  C   C742      1.0  0.74654  0.63240  0.42013  1.0000
  C   C743      1.0  0.73089  0.62978  0.40266  1.0000
  H   H1178     1.0  0.74046  0.67783  0.37213  1.0000
  H   H1179     1.0  0.76816  0.68249  0.40279  1.0000
  H   H1180     1.0  0.74825  0.61964  0.43333  1.0000
  H   H1181     1.0  0.72059  0.61493  0.40262  1.0000
  C   C744      1.0  0.65447  0.67513  0.39120  1.0000
  H   H1182     1.0  0.69706  0.68631  0.38038  1.0000
  H   H1183     1.0  0.64234  0.69908  0.42808  1.0000
  H   H1184     1.0  0.88016  0.58928  0.51642  1.0000
  C   C745      1.0  0.72054  0.65079  0.61188  1.0000
  C   C746      1.0  0.72772  0.63277  0.59797  1.0000
  C   C747      1.0  0.74367  0.63592  0.57991  1.0000
  C   C748      1.0  0.75261  0.65719  0.57558  1.0000
  C   C749      1.0  0.74522  0.67529  0.58934  1.0000
  C   C750      1.0  0.72916  0.67217  0.60730  1.0000
  H   H1185     1.0  0.72106  0.61617  0.60128  1.0000
  H   H1186     1.0  0.74917  0.62185  0.56945  1.0000
  H   H1187     1.0  0.75199  0.69183  0.58600  1.0000
  H   H1188     1.0  0.72353  0.68627  0.61758  1.0000
  C   C751      1.0  0.67554  0.72556  0.61210  1.0000
  H   H1189     1.0  0.88694  0.53630  0.48329  1.0000
  H   H1190     1.0  0.85904  0.54721  0.47670  1.0000
  C   C752      1.0  0.91603  0.69539  0.50962  1.0000
  C   C753      1.0  0.92432  0.67799  0.49561  1.0000
  C   C754      1.0  0.91059  0.65938  0.49131  1.0000
  C   C755      1.0  0.88835  0.65791  0.50080  1.0000
  C   C756      1.0  0.88005  0.67530  0.51477  1.0000
  C   C757      1.0  0.89379  0.69387  0.51909  1.0000
  H   H1191     1.0  0.94138  0.67882  0.48825  1.0000
  H   H1192     1.0  0.91730  0.64604  0.48054  1.0000
  H   H1193     1.0  0.86309  0.67445  0.52236  1.0000
  H   H1194     1.0  0.88720  0.70715  0.53001  1.0000
  N   N75       1.0  0.66952  0.68861  0.40505  1.0000
  H   H1195     1.0  0.87935  0.69053  0.42596  1.0000
  H   H1196     1.0  0.63878  0.68225  0.61560  1.0000
  H   H1197     1.0  0.64057  0.73758  0.58534  1.0000
  H   H1198     1.0  0.65331  0.68831  0.57600  1.0000
  H   H1199     1.0  0.67914  0.71099  0.37758  1.0000
  H   H1200     1.0  0.66736  0.68298  0.62552  1.0000
  H   H1201     1.0  0.64710  0.71776  0.40421  1.0000
  H   H1202     1.0  0.66428  0.66150  0.38215  1.0000
  C   C758      1.0  0.59947  0.72262  0.65506  1.0000
  H   H1203     1.0  0.85444  0.69017  0.40886  1.0000
  H   H1204     1.0  0.64098  0.66696  0.40182  1.0000
  H   H1205     1.0  0.64580  0.68580  0.37813  1.0000
  C   C759      1.0  0.65216  0.69368  0.62127  1.0000
  H   H1206     1.0  0.87755  0.52886  0.53418  1.0000
  H   H1207     1.0  0.78730  0.63546  0.64499  1.0000
  H   H1208     1.0  0.66663  0.71701  0.42723  1.0000
  C   C760      1.0  0.57750  0.72558  0.64616  1.0000
  S   S304      1.0  0.98750  0.73409  0.47398  1.0000
  H   H1209     1.0  0.77703  0.65766  0.62655  1.0000
  C   C761      1.0  0.65580  0.70639  0.41674  1.0000
  H   H1210     1.0  0.89748  0.57488  0.49531  1.0000
  H   H1211     1.0  0.66819  0.66562  0.43365  1.0000
  H   H1212     1.0  0.69140  0.71576  0.61600  1.0000
  H   H1213     1.0  0.86200  0.52349  0.49574  1.0000
  H   H1214     1.0  0.86938  0.58515  0.48871  1.0000
  C   C762      1.0  0.68700  0.69918  0.39014  1.0000
  Fe  Fe153     1.0  0.69593  0.66513  0.33500  1.0000
  H   H1215     1.0  0.69095  0.65999  0.41343  1.0000
  N   N76       1.0  0.84772  0.68733  0.44486  1.0000
  C   C763      1.0  0.86112  0.69613  0.42518  1.0000
  C   C764      1.0  0.84904  0.66244  0.44501  1.0000
  C   C765      1.0  0.82367  0.69501  0.44317  1.0000
  C   C766      1.0  0.85709  0.69573  0.46609  1.0000
  C   C767      1.0  0.78879  0.50868  0.51492  1.0000
  C   C768      1.0  0.81847  0.50133  0.47792  1.0000
  H   H1216     1.0  0.86064  0.71488  0.42464  1.0000
  H   H1217     1.0  0.83910  0.65524  0.45961  1.0000
  H   H1218     1.0  0.68008  0.73886  0.59937  1.0000
  H   H1219     1.0  0.86692  0.65599  0.44660  1.0000
  H   H1220     1.0  0.81313  0.68877  0.45787  1.0000
  H   H1221     1.0  0.81587  0.68859  0.42756  1.0000
  H   H1222     1.0  0.82196  0.71371  0.44280  1.0000
  H   H1223     1.0  0.84777  0.68890  0.48133  1.0000
  H   H1224     1.0  0.85596  0.71444  0.46690  1.0000
  H   H1225     1.0  0.87539  0.69069  0.46768  1.0000
  N   N77       1.0  0.87017  0.55535  0.51000  1.0000
  C   C769      1.0  0.84679  0.55934  0.51923  1.0000
  C   C770      1.0  0.88446  0.54519  0.52792  1.0000
  C   C771      1.0  0.87976  0.57703  0.50228  1.0000
  C   C772      1.0  0.86956  0.53990  0.49058  1.0000
  H   H1226     1.0  0.83868  0.54336  0.52486  1.0000
  H   H1227     1.0  0.83565  0.56730  0.50621  1.0000
  H   H1228     1.0  0.84650  0.57071  0.53409  1.0000
  H   H1229     1.0  0.90225  0.54192  0.52154  1.0000
  H   H1230     1.0  0.88526  0.55649  0.54280  1.0000
  H   H1231     1.0  0.60622  0.70586  0.65863  1.0000
  H   H1232     1.0  0.69279  0.68317  0.43236  1.0000
  H   H1233     1.0  0.63053  0.73362  0.61414  1.0000
  H   H1234     1.0  0.77730  0.51137  0.52939  1.0000
  Fe  Fe154     1.0  0.69070  0.66804  0.66469  1.0000
  H   H1235     1.0  0.67103  0.71188  0.56924  1.0000
  H   H1236     1.0  0.66970  0.73422  0.62799  1.0000
  C   C773      1.0  0.61351  0.73818  0.34851  1.0000
  C   C774      1.0  0.77350  0.64844  0.64287  1.0000
  C   C775      1.0  0.66634  0.69948  0.58285  1.0000
  N   N78       1.0  0.65778  0.71084  0.60370  1.0000
  H   H1237     1.0  0.84197  0.65545  0.42932  1.0000
  H   H1238     1.0  0.73696  0.67302  0.65662  1.0000
  H   H1239     1.0  0.68180  0.68875  0.58622  1.0000
  C   C776      1.0  0.63710  0.72459  0.59873  1.0000
  H   H1240     1.0  0.56755  0.71097  0.64284  1.0000
  S   S305      1.0  0.99954  0.72881  0.52742  1.0000
  H   H1241     1.0  0.62308  0.71402  0.59289  1.0000
  S   S306      1.0  0.54069  0.74987  0.62991  1.0000
  H   H1242     1.0  0.75725  0.69117  0.64274  1.0000
  N   N79       1.0  0.77189  0.66392  0.66235  1.0000
  H   H1243     1.0  0.79842  0.68509  0.64906  1.0000
  C   C777      1.0  0.61263  0.74136  0.65918  1.0000
  S   S307      1.0  0.64218  0.72831  0.35120  1.0000
  C   C778      1.0  0.75371  0.68106  0.65846  1.0000
  H   H1244     1.0  0.52050  0.71244  0.66104  1.0000
  C   C779      1.0  0.56830  0.74726  0.64153  1.0000
  C   C780      1.0  0.79382  0.67523  0.66470  1.0000
  H   H1245     1.0  0.69633  0.64778  0.76868  1.0000
  N   N80       1.0  0.69715  0.68154  0.78147  1.0000
  H   H1246     1.0  0.76470  0.59140  0.92263  1.0000
  Fe  Fe155     1.0  0.87034  0.70306  0.96854  1.0000
  S   S308      1.0  0.88792  0.66970  0.97613  1.0000
  S   S309      1.0  0.86218  0.70875  0.93106  1.0000
  H   H1247     1.0  0.91337  0.74477  0.88954  1.0000
  C   C781      1.0  0.74624  0.53794  0.91776  1.0000
  H   H1248     1.0  0.69884  0.65776  0.80930  1.0000
  H   H1249     1.0  0.56419  0.51548  0.91404  1.0000
  C   C782      1.0  0.83303  0.60859  0.99034  1.0000
  S   S310      1.0  0.79623  0.55108  0.98678  1.0000
  H   H1250     1.0  0.72970  0.56449  0.95110  1.0000
  Fe  Fe156     1.0  0.70734  0.69701  0.70337  1.0000
  S   S311      1.0  0.67183  0.70290  0.71735  1.0000
  S   S312      1.0  0.74073  0.70528  0.71997  1.0000
  Fe  Fe157     1.0  0.66703  0.66577  0.71184  1.0000
  S   S313      1.0  0.65063  0.64728  0.74220  1.0000
  Fe  Fe158     1.0  0.66140  0.70775  0.68097  1.0000
  H   H1251     1.0  0.75192  0.69300  0.67286  1.0000
  S   S314      1.0  0.70313  0.65967  0.69967  1.0000
  H   H1252     1.0  0.66478  0.68955  0.76664  1.0000
  Fe  Fe159     1.0  0.62987  0.51996  0.78961  1.0000
  S   S315      1.0  0.64829  0.54105  0.76212  1.0000
  S   S316      1.0  0.61635  0.52581  0.82547  1.0000
  H   H1253     1.0  0.66398  0.66769  0.78774  1.0000
  C   C783      1.0  0.78268  0.55008  0.93036  1.0000
  H   H1254     1.0  0.59466  0.52832  0.88741  1.0000
  C   C784      1.0  0.64991  0.61766  0.74723  1.0000
  C   C785      1.0  0.63773  0.60939  0.76642  1.0000
  C   C786      1.0  0.63691  0.58604  0.77123  1.0000
  C   C787      1.0  0.64842  0.57068  0.75693  1.0000
  C   C788      1.0  0.66068  0.57897  0.73779  1.0000
  C   C789      1.0  0.66140  0.60230  0.73293  1.0000
  H   H1255     1.0  0.62874  0.62110  0.77759  1.0000
  H   H1256     1.0  0.62740  0.57996  0.78599  1.0000
  H   H1257     1.0  0.66967  0.56727  0.72662  1.0000
  H   H1258     1.0  0.67085  0.60836  0.71812  1.0000
  C   C790      1.0  0.67683  0.52312  0.91464  1.0000
  C   C791      1.0  0.76741  0.73160  0.74614  1.0000
  N   N81       1.0  0.75825  0.55635  0.92860  1.0000
  H   H1259     1.0  0.78511  0.53451  0.94093  1.0000
  C   C792      1.0  0.99706  0.68488  0.98265  1.0000
  C   C793      1.0  0.70705  0.70337  0.77470  1.0000
  H   H1260     1.0  0.79222  0.56353  0.93868  1.0000
  C   C794      1.0  0.50291  0.51793  0.82971  1.0000
  S   S317      1.0  0.69770  0.70479  0.66724  1.0000
  H   H1261     1.0  0.74739  0.52205  0.92805  1.0000
  S   S318      1.0  0.89543  0.72304  0.98753  1.0000
  H   H1262     1.0  0.93461  0.71613  0.95292  1.0000
  H   H1263     1.0  0.89310  0.74365  0.93798  1.0000
  H   H1264     1.0  0.66645  0.69658  0.79611  1.0000
  C   C795      1.0  0.84904  0.73383  0.89371  1.0000
  H   H1265     1.0  0.73754  0.58241  0.91328  1.0000
  S   S319      1.0  0.55013  0.51612  0.82819  1.0000
  H   H1266     1.0  0.70150  0.68671  0.81714  1.0000
  C   C796      1.0  0.82245  0.58904  0.98273  1.0000
  H   H1267     1.0  0.67550  0.54084  0.91860  1.0000
  Fe  Fe160     1.0  0.72643  0.50635  0.98136  1.0000
  H   H1268     1.0  0.51003  0.70424  0.68882  1.0000
  H   H1269     1.0  0.79087  0.54697  0.91341  1.0000
  H   H1270     1.0  0.71320  0.74567  0.73156  1.0000
  H   H1271     1.0  0.82507  0.58402  0.96525  1.0000
  H   H1272     1.0  0.75003  0.54483  0.96240  1.0000
  S   S320      1.0  0.95018  0.68277  0.98659  1.0000
  H   H1273     1.0  0.91051  0.70528  0.93900  1.0000
  C   C797      1.0  0.66607  0.51520  0.89518  1.0000
  H   H1274     1.0  0.72600  0.70210  0.77313  1.0000
  C   C798      1.0  0.67203  0.68400  0.78316  1.0000
  C   C799      1.0  0.70599  0.67420  0.80373  1.0000
  H   H1275     1.0  0.65665  0.52679  0.88440  1.0000
  H   H1276     1.0  0.93866  0.70027  0.92741  1.0000
  H   H1277     1.0  0.76315  0.57496  0.89733  1.0000
  H   H1278     1.0  0.75694  0.57385  0.96046  1.0000
  H   H1279     1.0  0.72491  0.67214  0.80298  1.0000
  H   H1280     1.0  0.76445  0.66236  0.69834  1.0000
  S   S321      1.0  0.65378  0.67117  0.67649  1.0000
  C   C800      1.0  0.59511  0.51130  0.87975  1.0000
  S   S322      1.0  0.64103  0.73872  0.66884  1.0000
  H   H1281     1.0  0.72775  0.54211  0.91613  1.0000
  C   C801      1.0  0.50497  0.70715  0.67091  1.0000
  H   H1282     1.0  0.66136  0.51689  0.71443  1.0000
  C   C802      1.0  0.74825  0.56018  0.95158  1.0000
  H   H1283     1.0  0.70258  0.71674  0.78721  1.0000
  H   H1284     1.0  0.69682  0.66946  0.74739  1.0000
  C   C803      1.0  0.80878  0.57583  0.99753  1.0000
  H   H1285     1.0  0.75344  0.53430  0.90049  1.0000
  C   C804      1.0  0.92740  0.71307  0.93598  1.0000
  H   H1286     1.0  0.70089  0.70932  0.75788  1.0000
  H   H1287     1.0  0.78031  0.71844  0.74379  1.0000
  H   H1288     1.0  0.72238  0.66242  0.76211  1.0000
  S   S323      1.0  0.70221  0.51955  0.95349  1.0000
  C   C805      1.0  0.70355  0.66451  0.76423  1.0000
  H   H1289     1.0  0.84357  0.61838  0.97873  1.0000
  C   C806      1.0  0.94820  0.74372  0.91878  1.0000
  C   C807      1.0  0.75580  0.57722  0.91480  1.0000
  C   C808      1.0  0.66052  0.50047  0.70553  1.0000
  C   C809      1.0  0.85026  0.73317  0.91758  1.0000
  H   H1290     1.0  0.85512  0.71946  0.88400  1.0000
  H   H1291     1.0  0.77995  0.63820  0.68721  1.0000
  Fe  Fe161     1.0  0.91229  0.68969  0.99655  1.0000
  C   C810      1.0  0.68918  0.50838  0.92906  1.0000
  C   C811      1.0  0.91567  0.72921  0.90010  1.0000
  N   N82       1.0  0.92538  0.73412  0.92234  1.0000
  C   C812      1.0  0.74612  0.72967  0.73601  1.0000
  H   H1292     1.0  0.79302  0.68713  0.67920  1.0000
  C   C813      1.0  0.76640  0.65105  0.68342  1.0000
  H   H1293     1.0  0.50482  0.53290  0.83965  1.0000
  H   H1294     1.0  0.62528  0.50809  0.73475  1.0000
  H   H1295     1.0  0.95602  0.74748  0.93530  1.0000
  H   H1296     1.0  0.92667  0.71708  0.89030  1.0000
  H   H1297     1.0  0.75009  0.64204  0.68199  1.0000
  S   S324      1.0  0.84609  0.69980  0.99850  1.0000
  Fe  Fe162     1.0  0.58621  0.50495  0.81572  1.0000
  C   C814      1.0  0.52257  0.50615  0.82154  1.0000
  C   C815      1.0  0.97749  0.69098  0.99582  1.0000
  H   H1298     1.0  0.61275  0.50810  0.87297  1.0000
  C   C816      1.0  0.72963  0.74682  0.73929  1.0000
  H   H1299     1.0  0.65164  0.50372  0.68930  1.0000
  H   H1300     1.0  0.99510  0.67572  0.96710  1.0000
  H   H1301     1.0  0.96001  0.73180  0.90960  1.0000
  H   H1302     1.0  0.58355  0.51195  0.86503  1.0000
  H   H1303     1.0  0.89860  0.72161  0.90223  1.0000
  H   H1304     1.0  0.60520  0.50965  0.92378  1.0000
  S   S325      1.0  0.59867  0.50175  0.77944  1.0000
  H   H1305     1.0  0.80799  0.66283  0.66777  1.0000
  H   H1306     1.0  0.83047  0.78866  0.10676  1.0000
  H   H1307     1.0  0.79762  0.82475  0.28176  1.0000
  H   H1308     1.0  0.96787  0.84711  0.23524  1.0000
  C   C817      1.0  0.98630  0.80958  0.21662  1.0000
  H   H1309     1.0  0.60406  0.95804  0.17606  1.0000
  S   S326      1.0  0.63913  0.98004  0.14964  1.0000
  C   C818      1.0  0.76848  0.77074  0.24894  1.0000
  Fe  Fe163     1.0  0.67074  0.99571  0.13218  1.0000
  H   H1310     1.0  0.83623  0.78189  0.06537  1.0000
  S   S327      1.0  0.98843  0.89432  0.27262  1.0000
  Fe  Fe164     1.0  0.72111  0.98247  0.13530  1.0000
  S   S328      1.0  0.74424  0.96038  0.15761  1.0000
  S   S329      1.0  0.69351  0.97035  0.11326  1.0000
  Fe  Fe165     1.0  0.96997  0.86965  0.29503  1.0000
  S   S330      1.0  0.94112  0.84702  0.28427  1.0000
  C   C819      1.0  0.59999  0.97590  0.17638  1.0000
  Fe  Fe166     1.0  0.80305  0.80414  0.21002  1.0000
  S   S331      1.0  0.79235  0.79829  0.17417  1.0000
  S   S332      1.0  0.78593  0.79451  0.24406  1.0000
  Fe  Fe167     1.0  0.84329  0.83328  0.19453  1.0000
  S   S333      1.0  0.83573  0.82940  0.15746  1.0000
  S   S334      1.0  0.86983  0.85847  0.20459  1.0000
  Fe  Fe168     1.0  0.79895  0.83531  0.16816  1.0000
  S   S335      1.0  0.77622  0.85754  0.14573  1.0000
  Fe  Fe169     1.0  0.82991  0.79293  0.16591  1.0000
  S   S336      1.0  0.84558  0.76272  0.14678  1.0000
  S   S337      1.0  0.80683  0.84157  0.20449  1.0000
  S   S338      1.0  0.84026  0.79638  0.20247  1.0000
  H   H1311     1.0  0.86325  0.85308  0.27020  1.0000
  C   C820      1.0  0.57425  0.85113  0.31749  1.0000
  H   H1312     1.0  0.56850  0.79457  0.31216  1.0000
  H   H1313     1.0  0.82838  0.81783  0.30936  1.0000
  C   C821      1.0  0.98594  0.84304  0.23926  1.0000
  C   C822      1.0  0.89055  0.85453  0.22584  1.0000
  C   C823      1.0  0.90416  0.87269  0.23146  1.0000
  C   C824      1.0  0.92005  0.87060  0.24897  1.0000
  C   C825      1.0  0.92230  0.85036  0.26125  1.0000
  C   C826      1.0  0.90892  0.83209  0.25541  1.0000
  C   C827      1.0  0.89331  0.83407  0.23765  1.0000
  H   H1314     1.0  0.90225  0.88859  0.22240  1.0000
  H   H1315     1.0  0.93021  0.88480  0.25328  1.0000
  H   H1316     1.0  0.91064  0.81631  0.26472  1.0000
  H   H1317     1.0  0.88330  0.81984  0.23319  1.0000
  C   C828      1.0  0.75233  0.93159  0.15418  1.0000
  C   C829      1.0  0.74722  0.91969  0.13473  1.0000
  C   C830      1.0  0.75439  0.89695  0.13259  1.0000
  C   C831      1.0  0.76655  0.88579  0.14989  1.0000
  C   C832      1.0  0.77118  0.89754  0.16958  1.0000
  C   C833      1.0  0.76428  0.92037  0.17161  1.0000
  H   H1318     1.0  0.73806  0.92807  0.12118  1.0000
  H   H1319     1.0  0.75068  0.88799  0.11731  1.0000
  H   H1320     1.0  0.78013  0.88903  0.18318  1.0000
  H   H1321     1.0  0.76819  0.92940  0.18678  1.0000
  C   C834      1.0  0.61454  0.99101  0.16476  1.0000
  N   N83       1.0  0.56586  0.82863  0.32405  1.0000
  N   N84       1.0  0.99088  0.81852  0.23928  1.0000
  H   H1322     1.0  0.83003  0.79995  0.27117  1.0000
  H   H1323     1.0  0.59320  0.85142  0.31742  1.0000
  H   H1324     1.0  0.56863  0.85631  0.30022  1.0000
  N   N85       1.0  0.83222  0.83547  0.27737  1.0000
  C   C835      1.0  0.83957  0.81495  0.26501  1.0000
  H   H1325     1.0  0.97138  0.99728  0.28010  1.0000
  H   H1326     1.0  0.97907  0.81400  0.27393  1.0000
  C   C836      1.0  0.58001  0.98360  0.18813  1.0000
  H   H1327     1.0  0.56900  0.97170  0.19678  1.0000
  H   H1328     1.0  0.96816  0.81267  0.21215  1.0000
  C   C837      1.0  0.76554  0.75470  0.23219  1.0000
  N   N86       1.0  0.84256  0.90214  0.15382  1.0000
  C   C838      1.0  0.82644  0.89472  0.13675  1.0000
  C   C839      1.0  0.86425  0.88905  0.15140  1.0000
  C   C840      1.0  0.83265  0.89843  0.17689  1.0000
  C   C841      1.0  0.84689  0.92637  0.15031  1.0000
  H   H1329     1.0  0.83346  0.89684  0.11912  1.0000
  H   H1330     1.0  0.80999  0.90446  0.13789  1.0000
  H   H1331     1.0  0.82233  0.87661  0.13918  1.0000
  H   H1332     1.0  0.87673  0.89406  0.16420  1.0000
  H   H1333     1.0  0.86160  0.87072  0.15414  1.0000
  H   H1334     1.0  0.87227  0.89132  0.13419  1.0000
  H   H1335     1.0  0.84481  0.90278  0.19024  1.0000
  H   H1336     1.0  0.82834  0.88045  0.17974  1.0000
  H   H1337     1.0  0.81679  0.90877  0.17969  1.0000
  H   H1338     1.0  0.85886  0.93255  0.16303  1.0000
  H   H1339     1.0  0.83081  0.93669  0.15195  1.0000
  H   H1340     1.0  0.85445  0.92979  0.13308  1.0000
  N   N87       1.0  0.68393  0.94068  0.19064  1.0000
  C   C842      1.0  0.66489  0.95613  0.19746  1.0000
  C   C843      1.0  0.70511  0.94782  0.20113  1.0000
  C   C844      1.0  0.68696  0.94138  0.16565  1.0000
  C   C845      1.0  0.67880  0.91745  0.19814  1.0000
  H   H1341     1.0  0.64862  0.95123  0.18983  1.0000
  H   H1342     1.0  0.66808  0.97372  0.19151  1.0000
  H   H1343     1.0  0.98887  0.85012  0.25620  1.0000
  H   H1344     1.0  0.71988  0.93666  0.19611  1.0000
  H   H1345     1.0  0.70957  0.96523  0.19554  1.0000
  H   H1346     1.0  0.70355  0.94762  0.22000  1.0000
  H   H1347     1.0  0.70101  0.92977  0.15969  1.0000
  H   H1348     1.0  0.69140  0.95854  0.15969  1.0000
  H   H1349     1.0  0.67110  0.93692  0.15698  1.0000
  H   H1350     1.0  0.69292  0.90546  0.19314  1.0000
  H   H1351     1.0  0.66300  0.91158  0.19031  1.0000
  H   H1352     1.0  0.67635  0.91627  0.21693  1.0000
  S   S339      1.0  0.98461  0.95304  0.29615  1.0000
  C   C846      1.0  0.84049  0.77419  0.10102  1.0000
  C   C847      1.0  0.75753  0.76776  0.27034  1.0000
  C   C848      1.0  0.80742  0.83929  0.27488  1.0000
  C   C849      1.0  0.57461  0.81172  0.30757  1.0000
  H   H1353     1.0  0.53382  0.81237  0.32849  1.0000
  H   H1354     1.0  0.75967  0.78005  0.28342  1.0000
  H   H1355     1.0  0.66220  0.95639  0.21623  1.0000
  H   H1356     1.0  0.80298  0.84124  0.25666  1.0000
  H   H1357     1.0  0.83201  0.84771  0.31157  1.0000
  H   H1358     1.0  0.99719  0.85221  0.22690  1.0000
  C   C850      1.0  0.84380  0.77029  0.07754  1.0000
  H   H1359     1.0  0.84185  0.85719  0.24926  1.0000
  S   S340      1.0  0.97161  0.89156  0.32604  1.0000
  H   H1360     1.0  0.83633  0.81683  0.24655  1.0000
  H   H1361     1.0  0.85596  0.82964  0.30413  1.0000
  H   H1362     1.0  0.80115  0.85466  0.28388  1.0000
  H   H1363     1.0  0.85808  0.81116  0.26688  1.0000
  C   C851      1.0  0.83734  0.83253  0.30170  1.0000
  C   C852      1.0  0.99083  0.98051  0.30618  1.0000
  H   H1364     1.0  0.83888  0.87097  0.27622  1.0000
  C   C853      1.0  0.84454  0.85504  0.26786  1.0000
  C   C854      1.0  0.97616  0.80741  0.25664  1.0000
  Fe  Fe170     1.0  0.99266  0.91535  0.30382  1.0000
  C   C855      1.0  0.84992  0.75922  0.11697  1.0000
  H   H1365     1.0  0.77390  0.75670  0.21569  1.0000
  H   H1366     1.0  0.56760  0.86424  0.32951  1.0000
  H   H1367     1.0  0.73530  0.99828  0.00666  1.0000
  H   H1368     1.0  0.99711  0.81779  0.20318  1.0000
  H   H1369     1.0  0.51110  0.99891  0.17382  1.0000
  H   H1370     1.0  0.98987  0.79111  0.21597  1.0000
  H   H1371     1.0  0.59357  0.81065  0.30708  1.0000
  C   C856      1.0  0.85664  0.75149  0.06968  1.0000
  H   H1372     1.0  0.95777  0.81055  0.25326  1.0000
  C   C857      1.0  0.54068  0.82924  0.32420  1.0000
  H   H1373     1.0  0.53405  0.83433  0.30730  1.0000
  Fe  Fe171     1.0  0.70243  0.99873  0.08881  1.0000
  H   H1374     1.0  0.97938  0.78889  0.25727  1.0000
  S   S341      1.0  0.52763  0.99380  0.26271  1.0000
  S   S342      1.0  0.71399  0.99673  0.05110  1.0000
  H   H1375     1.0  0.56884  0.81573  0.29009  1.0000
  C   C858      1.0  0.98186  0.99962  0.29466  1.0000
  H   H1376     1.0  0.99361  0.90865  0.59692  1.0000
  S   S343      1.0  0.96832  0.77218  0.50957  1.0000
  S   S344      1.0  0.99570  0.86659  0.62638  1.0000
  H   H1377     1.0  0.53936  0.89315  0.54483  1.0000
  H   H1378     1.0  0.93015  0.79121  0.64744  1.0000
  H   H1379     1.0  0.97949  0.96567  0.61995  1.0000
  S   S345      1.0  0.98068  0.79015  0.44369  1.0000
  H   H1380     1.0  0.53342  0.84133  0.33693  1.0000
  Fe  Fe172     1.0  0.51806  0.78141  0.62410  1.0000
  Fe  Fe173     1.0  0.50307  0.83120  0.63158  1.0000
  S   S346      1.0  0.52270  0.81320  0.60307  1.0000
  Fe  Fe174     1.0  0.51688  0.78643  0.36640  1.0000
  H   H1381     1.0  0.95236  0.84546  0.62451  1.0000
  S   S347      1.0  0.52778  0.81551  0.38711  1.0000
  C   C859      1.0  0.50434  0.80330  0.47868  1.0000
  C   C860      1.0  0.00005  0.84216  0.60928  1.0000
  C   C861      1.0  0.58067  0.75957  0.36447  1.0000
  H   H1382     1.0  0.51015  0.87462  0.52170  1.0000
  C   C862      1.0  0.97881  0.81428  0.40322  1.0000
  S   S348      1.0  0.51677  0.86553  0.64180  1.0000
  H   H1383     1.0  0.51009  0.86476  0.59385  1.0000
  H   H1384     1.0  0.92005  0.85048  0.66563  1.0000
  S   S349      1.0  0.51611  0.79971  0.45054  1.0000
  C   C863      1.0  0.56807  0.75519  0.34527  1.0000
  H   H1385     1.0  0.54044  0.85152  0.53916  1.0000
  Fe  Fe175     1.0  0.99011  0.77169  0.47715  1.0000
  C   C864      1.0  0.50714  0.88642  0.66183  1.0000
  N   N88       1.0  0.94288  0.82423  0.65296  1.0000
  C   C865      1.0  0.58138  0.76598  0.64585  1.0000
  C   C866      1.0  0.60346  0.76301  0.65446  1.0000
  C   C867      1.0  0.98599  0.92247  0.60751  1.0000
  C   C868      1.0  0.99410  0.82330  0.57307  1.0000
  H   H1386     1.0  0.54123  0.84814  0.56960  1.0000
  C   C869      1.0  0.94088  0.83133  0.62888  1.0000
  H   H1387     1.0  0.53878  0.88921  0.57524  1.0000
  N   N89       1.0  0.51426  0.87016  0.55775  1.0000
  C   C870      1.0  0.98663  0.82936  0.38603  1.0000
  H   H1388     1.0  0.97678  0.83239  0.37098  1.0000
  H   H1389     1.0  0.56778  0.83494  0.35985  1.0000
  H   H1390     1.0  0.57459  0.78275  0.64235  1.0000
  H   H1391     1.0  0.98204  0.85700  0.58105  1.0000
  H   H1392     1.0  0.98732  0.82368  0.55615  1.0000
  H   H1393     1.0  0.97265  0.93133  0.59744  1.0000
  H   H1394     1.0  0.61350  0.77763  0.65752  1.0000
  S   S350      1.0  0.53993  0.76628  0.34175  1.0000
  H   H1395     1.0  0.96294  0.80580  0.40109  1.0000
  H   H1396     1.0  0.52006  0.79510  0.53410  1.0000
  H   H1397     1.0  0.57300  0.76939  0.37814  1.0000
  H   H1398     1.0  0.94566  0.81734  0.61712  1.0000
  H   H1399     1.0  0.92322  0.83719  0.62508  1.0000
  H   H1400     1.0  0.98450  0.94837  0.64475  1.0000
  H   H1401     1.0  0.97736  0.91426  0.62244  1.0000
  C   C871      1.0  0.99118  0.84221  0.58727  1.0000
  C   C872      1.0  0.99121  0.81013  0.42309  1.0000
  H   H1402     1.0  0.97115  0.80144  0.64546  1.0000
  H   H1403     1.0  0.59270  0.82115  0.34742  1.0000
  C   C873      1.0  0.52969  0.85026  0.55498  1.0000
  H   H1404     1.0  0.53484  0.79039  0.49437  1.0000
  C   C874      1.0  0.51783  0.79733  0.49741  1.0000
  H   H1405     1.0  0.56723  0.80573  0.35261  1.0000
  H   H1406     1.0  0.61292  0.75478  0.38087  1.0000
  H   H1407     1.0  0.90875  0.81200  0.65556  1.0000
  C   C875      1.0  0.50949  0.80002  0.52001  1.0000
  H   H1408     1.0  0.51991  0.83453  0.55391  1.0000
  C   C876      1.0  0.92665  0.80617  0.65831  1.0000
  H   H1409     1.0  0.53802  0.90517  0.65805  1.0000
  C   C877      1.0  0.99276  0.95575  0.62916  1.0000
  H   H1410     1.0  0.97894  0.82907  0.65346  1.0000
  Fe  Fe176     1.0  0.50274  0.80295  0.41412  1.0000
  C   C878      1.0  0.52793  0.89052  0.56000  1.0000
  H   H1411     1.0  0.94949  0.85776  0.66404  1.0000
  C   C879      1.0  0.57377  0.82240  0.34698  1.0000
  H   H1412     1.0  0.51682  0.90588  0.56200  1.0000
  C   C880      1.0  0.96634  0.81570  0.65685  1.0000
  Fe  Fe177     1.0  0.00041  0.87397  0.66416  1.0000
  C   C881      1.0  0.60330  0.75121  0.36600  1.0000
  S   S351      1.0  0.50112  0.79975  0.65339  1.0000
  H   H1413     1.0  0.78873  0.75178  0.76690  1.0000
  H   H1414     1.0  0.67852  0.93054  0.97796  1.0000
  C   C882      1.0  0.71127  0.86714  0.77898  1.0000
  H   H1415     1.0  0.70595  0.94168  0.98383  1.0000
  Fe  Fe178     1.0  0.70751  0.97699  0.87706  1.0000
  S   S352      1.0  0.67171  0.98440  0.89045  1.0000
  S   S353      1.0  0.71843  0.93957  0.87801  1.0000
  Fe  Fe179     1.0  0.81601  0.80534  0.84372  1.0000
  S   S354      1.0  0.82388  0.78608  0.81158  1.0000
  S   S355      1.0  0.81846  0.79541  0.88129  1.0000
  Fe  Fe180     1.0  0.80309  0.84910  0.81757  1.0000
  S   S356      1.0  0.81085  0.83315  0.78361  1.0000
  S   S357      1.0  0.79236  0.88638  0.81601  1.0000
  Fe  Fe181     1.0  0.79204  0.80316  0.79785  1.0000
  S   S358      1.0  0.76074  0.79199  0.77886  1.0000
  Fe  Fe182     1.0  0.84194  0.81763  0.79954  1.0000
  S   S359      1.0  0.87890  0.81656  0.78593  1.0000
  S   S360      1.0  0.78281  0.82016  0.83105  1.0000
  S   S361      1.0  0.83564  0.83579  0.83246  1.0000
  Fe  Fe183     1.0  0.96942  0.88314  0.70664  1.0000
  S   S362      1.0  0.93120  0.88067  0.71475  1.0000
  C   C883      1.0  0.51438  0.92173  0.68158  1.0000
  H   H1416     1.0  0.91726  0.75491  0.95127  1.0000
  H   H1417     1.0  0.68313  0.96016  0.97508  1.0000
  H   H1418     1.0  0.71060  0.85858  0.76232  1.0000
  H   H1419     1.0  0.73056  0.95588  0.95305  1.0000
  C   C884      1.0  0.89307  0.83368  0.76519  1.0000
  C   C885      1.0  0.88119  0.84753  0.74988  1.0000
  C   C886      1.0  0.89316  0.86168  0.73451  1.0000
  C   C887      1.0  0.91713  0.86195  0.73401  1.0000
  C   C888      1.0  0.92905  0.84772  0.74893  1.0000
  C   C889      1.0  0.91706  0.83368  0.76441  1.0000
  H   H1420     1.0  0.86278  0.84723  0.74981  1.0000
  H   H1421     1.0  0.88378  0.87246  0.72288  1.0000
  H   H1422     1.0  0.94749  0.84771  0.74874  1.0000
  H   H1423     1.0  0.92645  0.82291  0.77605  1.0000
  H   H1424     1.0  0.75656  0.87295  0.77972  1.0000
  C   C890      1.0  0.75579  0.76770  0.76251  1.0000
  H   H1425     1.0  0.73341  0.88524  0.81338  1.0000
  H   H1426     1.0  0.98040  0.97152  0.71174  1.0000
  H   H1427     1.0  0.76337  0.84717  0.79427  1.0000
  C   C891      1.0  0.84228  0.75185  0.92989  1.0000
  H   H1428     1.0  0.70831  0.97443  0.94304  1.0000
  C   C892      1.0  0.73989  0.92554  0.86116  1.0000
  C   C893      1.0  0.74609  0.90309  0.86667  1.0000
  C   C894      1.0  0.76258  0.89106  0.85346  1.0000
  C   C895      1.0  0.77279  0.90124  0.83429  1.0000
  C   C896      1.0  0.76671  0.92373  0.82886  1.0000
  C   C897      1.0  0.75043  0.93585  0.84224  1.0000
  H   H1429     1.0  0.73812  0.89496  0.88131  1.0000
  H   H1430     1.0  0.76723  0.87386  0.85803  1.0000
  H   H1431     1.0  0.77451  0.93182  0.81411  1.0000
  H   H1432     1.0  0.74584  0.95310  0.83779  1.0000
  H   H1433     1.0  0.70353  0.83136  0.80671  1.0000
  C   C898      1.0  0.83135  0.77137  0.89460  1.0000
  S   S363      1.0  0.99131  0.85359  0.69551  1.0000
  S   S364      1.0  0.56214  0.98172  0.78284  1.0000
  C   C899      1.0  0.60193  0.98052  0.80693  1.0000
  H   H1434     1.0  0.72201  0.95476  0.92404  1.0000
  H   H1435     1.0  0.50960  0.75193  0.66868  1.0000
  H   H1436     1.0  0.92771  0.80049  0.67640  1.0000
  H   H1437     1.0  0.72028  0.82251  0.78220  1.0000
  C   C900      1.0  0.61898  0.98933  0.82055  1.0000
  C   C901      1.0  0.58217  0.99331  0.80160  1.0000
  H   H1438     1.0  0.82628  0.78497  0.92817  1.0000
  N   N90       1.0  0.72766  0.85555  0.79408  1.0000
  C   C902      1.0  0.98898  0.98548  0.70353  1.0000
  N   N91       1.0  0.86938  0.89256  0.80208  1.0000
  C   C903      1.0  0.86843  0.88565  0.82632  1.0000
  C   C904      1.0  0.86266  0.91663  0.79988  1.0000
  C   C905      1.0  0.85346  0.87898  0.78936  1.0000
  C   C906      1.0  0.89281  0.88887  0.79274  1.0000
  H   H1439     1.0  0.87392  0.86766  0.82857  1.0000
  H   H1440     1.0  0.85077  0.88750  0.83369  1.0000
  H   H1441     1.0  0.87978  0.89591  0.83661  1.0000
  H   H1442     1.0  0.84496  0.91980  0.80670  1.0000
  H   H1443     1.0  0.87422  0.92746  0.80934  1.0000
  H   H1444     1.0  0.86316  0.92234  0.78176  1.0000
  H   H1445     1.0  0.85393  0.88343  0.77093  1.0000
  H   H1446     1.0  0.83561  0.88154  0.79571  1.0000
  H   H1447     1.0  0.85767  0.86069  0.79110  1.0000
  H   H1448     1.0  0.89408  0.89338  0.77430  1.0000
  H   H1449     1.0  0.89839  0.87086  0.79443  1.0000
  H   H1450     1.0  0.90531  0.89906  0.80169  1.0000
  N   N92       1.0  0.69839  0.94023  0.94828  1.0000
  C   C907      1.0  0.70837  0.91737  0.94500  1.0000
  C   C908      1.0  0.67840  0.94344  0.93376  1.0000
  C   C909      1.0  0.71561  0.95703  0.94186  1.0000
  C   C910      1.0  0.69121  0.94320  0.97236  1.0000
  H   H1451     1.0  0.72360  0.91445  0.95560  1.0000
  H   H1452     1.0  0.71391  0.91483  0.92689  1.0000
  H   H1453     1.0  0.69585  0.90418  0.94957  1.0000
  S   S365      1.0  0.53142  0.99114  0.72628  1.0000
  H   H1454     1.0  0.68325  0.94150  0.91544  1.0000
  H   H1455     1.0  0.52560  0.93542  0.68480  1.0000
  H   H1456     1.0  0.60417  0.96368  0.80034  1.0000
  H   H1457     1.0  0.75117  0.84620  0.76687  1.0000
  Fe  Fe184     1.0  0.52930  0.99284  0.76462  1.0000
  C   C911      1.0  0.73446  0.76567  0.75247  1.0000
  H   H1458     1.0  0.84306  0.75161  0.94824  1.0000
  C   C912      1.0  0.93771  0.84369  0.66779  1.0000
  C   C913      1.0  0.75063  0.85553  0.78316  1.0000
  H   H1459     1.0  0.66500  0.93106  0.93804  1.0000
  H   H1460     1.0  0.63407  0.97929  0.82433  1.0000
  H   H1461     1.0  0.90786  0.76639  0.92451  1.0000
  C   C914      1.0  0.72070  0.83208  0.79831  1.0000
  H   H1462     1.0  0.67051  0.96061  0.93579  1.0000
  H   H1463     1.0  0.69374  0.86747  0.78672  1.0000
  H   H1464     1.0  0.74046  0.85917  0.82761  1.0000
  H   H1465     1.0  0.73293  0.82280  0.80946  1.0000
  H   H1466     1.0  0.71114  0.86788  0.82478  1.0000
  H   H1467     1.0  0.72160  0.77888  0.75478  1.0000
  C   C915      1.0  0.83277  0.77076  0.91845  1.0000
  H   H1468     1.0  0.71607  0.88492  0.77555  1.0000
  S   S366      1.0  0.97676  0.90267  0.67432  1.0000
  C   C916      1.0  0.72813  0.86747  0.81591  1.0000
  H   H1469     1.0  0.83872  0.75304  0.86392  1.0000
  H   H1470     1.0  0.96844  0.80983  0.67475  1.0000
  H   H1471     1.0  0.93940  0.83909  0.68612  1.0000
  H   H1472     1.0  0.94732  0.75969  0.90864  1.0000
  S   S367      1.0  0.99721  0.90028  0.72529  1.0000
  C   C917      1.0  0.77226  0.75050  0.75929  1.0000
  C   C918      1.0  0.83975  0.75285  0.88225  1.0000
  C   C919      1.0  0.52138  0.90450  0.66635  1.0000
  S   S368      1.0  0.72324  0.00005  0.90186  1.0000
  C   C920      1.0  0.91032  0.75052  0.93454  1.0000
