data_image0
_chemical_formula_structural       FeS2FeS2FeSFeS3FeS2FeS2FeSFeS3FeS2FeS2FeSFeS3FeS2FeS2FeSFeS3FeS2FeS2FeSFeS3FeS2FeS2FeSFeS3FeS2FeS2FeSFeS3FeS2FeS2FeSFeS3FeS2FeS2FeSFeS3FeS2FeS2FeSFeS3FeS2FeS2FeSFeS3FeS2FeS2FeSFeS3FeS2FeS2FeSFeS3FeS2FeS2FeSFeS3FeS2FeS2FeSFeS3FeS2FeS2FeSFeS3FeS2FeS2FeSFeS3FeS2FeS2FeSFeS3FeS2FeS2FeSFeS3FeS2FeS2FeSFeS3FeS2FeS2FeSFeS3FeS2FeS2FeSFeS3FeS2FeS2FeSFeS3FeS2FeS2FeSFeS3FeS2FeS2FeSFeS3FeS2FeS2FeSFeS3FeS2FeS2FeSFeS3FeS2FeS2FeSFeS3FeS2FeS2FeSFeS3FeS2FeS2FeSFeS3FeS2FeS2FeSFeS3FeS2FeS2FeSFeS3C6H4C6H4C6H4C6H4C6H4C6H4C6H4C6H4C6H4C6H4C6H4C6H4C6H4C6H4C6H4C6H4C6H4C6H4C6H4C6H4C6H4C6H4C6H4C6H4C6H4C6H4C6H4C6H4C6H4C6H4C6H4C6H4C6H4C6H4C6H4C6H4C6H4C6H4C6H4C6H4C6H4C6H4C6H4C6H4C6H4C6H4C6H4C6H4C6H4C6H4C6H4C6H4C6H4C6H4C6H4C6H4C6H4C6H4C6H4C6H4C6H4C6H4C6H4C6H4NC4H12NC4H12NC4H12NC4H12NC4H12NC4H12NC4H12NC4H12NC4H12NC4H12NC4H12NC4H12NC4H12NC4H12NC4H12NC4H12NC4H12NC4H12NC4H12NC4H12NC4H12NC4H12NC4H12NC4H12NC4H12NC4H12NC4H12NC4H12NC4H12NC4H12NC4H12NC4H12NC4H12NC4H12NC4H12NC4H12NC4H12NC4H12NC4H12NC4H12NC4H12NC4H12NC4H12NC4H12NC4H12NC4H12NC4H12NC4H12NC4H12NC4H12NC4H12NC4H12NC4H12NC4H12NC4H12NC4H12NC4H12NC4H12NC4H12NC4H12NC4H12NC4H12NC4H12NC4H12
_chemical_formula_sum              "Fe128 S256 C640 H1024 N64"
_cell_length_a       51.42342731812666
_cell_length_b       51.78375126233472
_cell_length_c       41.94337019963124
_cell_angle_alpha    89.2639267164821
_cell_angle_beta     89.35303806899874
_cell_angle_gamma    86.78266507548817

_space_group_name_H-M_alt    "P 1"
_space_group_IT_number       1

loop_
  _space_group_symop_operation_xyz
  'x, y, z'

loop_
  _atom_site_type_symbol
  _atom_site_label
  _atom_site_symmetry_multiplicity
  _atom_site_fract_x
  _atom_site_fract_y
  _atom_site_fract_z
  _atom_site_occupancy
  Fe  Fe1       1.0  0.4224320995535184  0.8476706544810326  0.18952147047071632  1.0000
  S   S1        1.0  0.46128937560767136  0.8277023278528864  0.19832828466614622  1.0000
  S   S2        1.0  0.410592865365811  0.8573605563560001  0.1392172890280452  1.0000
  Fe  Fe2       1.0  0.40520556421475923  0.8424653581682648  0.2588678764111268  1.0000
  S   S3        1.0  0.44296336838943445  0.822171413380082  0.27363559933693443  1.0000
  S   S4        1.0  0.37019227517236014  0.8443448586324701  0.2917590982621387  1.0000
  Fe  Fe3       1.0  0.4613732946101514  0.8516612825695807  0.24230898438830528  1.0000
  S   S5        1.0  0.49907286528103917  0.8692863071553099  0.25363468388673055  1.0000
  Fe  Fe4       1.0  0.43968795994837745  0.8001147297443456  0.22848334159584766  1.0000
  S   S6        1.0  0.4477439437068999  0.7571568126737348  0.22738006892275572  1.0000
  S   S7        1.0  0.4237627270073793  0.8743248182814113  0.2312353759921881  1.0000
  S   S8        1.0  0.4005846272232424  0.8178936210850771  0.21599387801039865  1.0000
  Fe  Fe5       1.0  0.3350321816069949  0.937734578110051  0.427559329320436  1.0000
  S   S9        1.0  0.29570025133806066  0.9586586059035611  0.4253772432865476  1.0000
  S   S10       1.0  0.3648936594839847  0.937591166749994  0.38787464579245173  1.0000
  Fe  Fe6       1.0  0.3296905180404929  0.9245736020544439  0.4976051187419554  1.0000
  S   S11       1.0  0.29009557344316284  0.9445512343003528  0.5019904243336214  1.0000
  S   S12       1.0  0.34945347933890075  0.9024928178047149  0.5377579923122904  1.0000
  Fe  Fe7       1.0  0.282437784057749  0.925689047604182  0.45551871271773964  1.0000
  S   S13       1.0  0.2430063942261437  0.9096838793374737  0.45073545663807035  1.0000
  Fe  Fe8       1.0  0.3065414956990966  0.9758914030092007  0.47178005405284523  1.0000
  S   S14       1.0  0.2950740940969793  0.017921555970430436  0.4800504380554612  1.0000
  S   S15       1.0  0.3209233139255389  0.9029722066047386  0.45348982507005836  1.0000
  S   S16       1.0  0.347108423540019  0.9576800538097564  0.4717624407089683  1.0000
  Fe  Fe9       1.0  0.3429225964881777  0.6800373266090303  0.16284291382527769  1.0000
  S   S17       1.0  0.3010351234553684  0.6934520727502048  0.16858427964667788  1.0000
  S   S18       1.0  0.3684300798605439  0.7070841990259894  0.13626574744969505  1.0000
  Fe  Fe10      1.0  0.3349767599228943  0.6286795673530182  0.19675759813993507  1.0000
  S   S19       1.0  0.2924253175809378  0.638135158905  0.20608838353724454  1.0000
  S   S20       1.0  0.3544153062383958  0.5895333821970012  0.20752592164714076  1.0000
  Fe  Fe11      1.0  0.29243789786285684  0.6529876483934292  0.15544990379143026  1.0000
  S   S21       1.0  0.2647824288081726  0.6407034054335  0.11798281209600858  1.0000
  Fe  Fe12      1.0  0.30515995328320356  0.677622439666522  0.21839479221014718  1.0000
  S   S22       1.0  0.2945278358882687  0.7040717361398373  0.25922052521458944  1.0000
  S   S23       1.0  0.3340851933887225  0.640917510685472  0.14534057779550447  1.0000
  S   S24       1.0  0.34791616433843725  0.6668309620654932  0.21354130531080312  1.0000
  Fe  Fe13      1.0  0.1497985982682175  0.7770080384592456  0.4004069920850413  1.0000
  S   S25       1.0  0.15616694018983454  0.7341942783656374  0.40880422491380014  1.0000
  S   S26       1.0  0.11206076510812511  0.7996915086066185  0.4108300365403905  1.0000
  Fe  Fe14      1.0  0.20639714768026748  0.7845942407127174  0.3844183558619375  1.0000
  S   S27       1.0  0.21763420845271877  0.7427991007854577  0.3920323440495333  1.0000
  S   S28       1.0  0.24012807124635416  0.8080896304477301  0.3704363744802753  1.0000
  Fe  Fe15      1.0  0.18168024836675276  0.7355614283420118  0.36489205270237196  1.0000
  S   S29       1.0  0.18500151436138917  0.7033617895341898  0.3290710478309294  1.0000
  Fe  Fe16      1.0  0.1917220746748158  0.7448515156161041  0.43494248800544216  1.0000
  S   S30       1.0  0.20766155992303156  0.7244622824609728  0.47878012819341703  1.0000
  S   S31       1.0  0.17204181736468707  0.7775444903466455  0.35382162457943483  1.0000
  S   S32       1.0  0.18366770721931056  0.7876135491061673  0.4301950667108326  1.0000
  Fe  Fe17      1.0  0.4569865577390675  0.8425029647431113  0.9301332782034993  1.0000
  S   S33       1.0  0.4551477352472897  0.8043987471941879  0.9052826012290517  1.0000
  S   S34       1.0  0.439084524404394  0.8816100024855326  0.9162795674660992  1.0000
  Fe  Fe18      1.0  0.4811700039522653  0.8182439948770618  0.9903682385754071  1.0000
  S   S35       1.0  0.4811201609606635  0.7782646570372118  0.9712002469240314  1.0000
  S   S36       1.0  0.49841375991745684  0.8266163199879182  0.038095692954751126  1.0000
  Fe  Fe19      1.0  0.4952847815098235  0.7963797436124067  0.9257652832814288  1.0000
  S   S37       1.0  0.529915144694774  0.7743886260925534  0.9042844224467101  1.0000
  Fe  Fe20      1.0  0.4413244555122972  0.7896088171187815  0.9527387139407328  1.0000
  S   S38       1.0  0.40613576306647436  0.7670763849212332  0.963935172358017  1.0000
  S   S39       1.0  0.4982731522066785  0.8358357951129974  0.9464247987331794  1.0000
  S   S40       1.0  0.44012606209826366  0.8282580821785301  0.9759227622721977  1.0000
  Fe  Fe21      1.0  0.35606471814189844  0.9556995722360867  0.7066478713163843  1.0000
  S   S41       1.0  0.3231060747822758  0.9654464285342031  0.740532506590691  1.0000
  S   S42       1.0  0.3507631542225906  0.9740193883219325  0.6581084896778665  1.0000
  Fe  Fe22      1.0  0.3885519703449087  0.927906666979058  0.7580187260176204  1.0000
  S   S43       1.0  0.3584089618851851  0.9362879473815128  0.7960033978974055  1.0000
  S   S44       1.0  0.4243810502914104  0.9023788670034901  0.768546123084919  1.0000
  Fe  Fe23      1.0  0.33022431555288245  0.9249161101150655  0.7591079600354744  1.0000
  S   S45       1.0  0.2975680902679274  0.8999891490079631  0.77422903604895  1.0000
  Fe  Fe24      1.0  0.35447714390976487  0.9758669857552702  0.7738092377117424  1.0000
  S   S46       1.0  0.3536624520163421  0.013081647569139765  0.800979246808106  1.0000
  S   S47       1.0  0.36050968769002256  0.9140498348306512  0.7221164188021936  1.0000
  S   S48       1.0  0.38721635268434085  0.9685908565425938  0.7387796601781332  1.0000
  Fe  Fe25      1.0  0.26429097402792684  0.6724274731920196  0.8857457074581823  1.0000
  S   S49       1.0  0.29902068689901556  0.6527496461108863  0.8613231461329939  1.0000
  S   S50       1.0  0.22459456997952432  0.6851829759492617  0.868056645588082  1.0000
  Fe  Fe26      1.0  0.29272471564562663  0.681914163753687  0.9461978892630831  1.0000
  S   S51       1.0  0.33013486280224946  0.6632716024785306  0.9282940445769146  1.0000
  S   S52       1.0  0.2883954763249512  0.703734006419958  0.9920050821411602  1.0000
  Fe  Fe27      1.0  0.32151873126300984  0.6841289111212954  0.8822749750027693  1.0000
  S   S53       1.0  0.35416789136236865  0.7032061442563904  0.8567501532151119  1.0000
  Fe  Fe28      1.0  0.3056160474405682  0.6328107639578676  0.9087632460966323  1.0000
  S   S54       1.0  0.32565416400067865  0.5930385587748892  0.9120342807681225  1.0000
  S   S55       1.0  0.2863419365298898  0.7057890642213949  0.9018350711545671  1.0000
  S   S56       1.0  0.2685930499747477  0.6494968113356637  0.9314615972333514  1.0000
  Fe  Fe29      1.0  0.18640502419414426  0.7761656407133191  0.6476991636191296  1.0000
  S   S57       1.0  0.19409461745061748  0.8134127706816706  0.6715882319099142  1.0000
  S   S58       1.0  0.1632669072718329  0.7802652880273073  0.602383496092217  1.0000
  Fe  Fe30      1.0  0.20899844087614533  0.7437977112848282  0.7030410670311655  1.0000
  S   S59       1.0  0.2172567556757385  0.7784750880583331  0.7319195868634807  1.0000
  S   S60       1.0  0.22368639588037129  0.7040535002181014  0.7189451343116002  1.0000
  Fe  Fe31      1.0  0.17811362532446479  0.7941642515606616  0.7151780523741406  1.0000
  S   S61       1.0  0.14839747448857193  0.8176713984529248  0.7436435577495609  1.0000
  Fe  Fe32      1.0  0.23238338605690242  0.7941230879437202  0.6857215851427488  1.0000
  S   S62       1.0  0.2722695619512513  0.8098480756956513  0.681542472832889  1.0000
  S   S63       1.0  0.16824314217822903  0.7578691832287126  0.690639305655466  1.0000
  S   S64       1.0  0.22638594846305662  0.7585365412155951  0.6574910912284245  1.0000
  Fe  Fe33      1.0  0.8738454461652216  0.6607776276874024  0.1485152545725655  1.0000
  S   S65       1.0  0.8336951064634767  0.647299271804727  0.15671589592755236  1.0000
  S   S66       1.0  0.8943896740288628  0.6565824869305438  0.10125664382250128  1.0000
  Fe  Fe34      1.0  0.8759727366491789  0.6858484088639943  0.2137753319559196  1.0000
  S   S67       1.0  0.8355943414145001  0.6749842217970199  0.22745841806193084  1.0000
  S   S68       1.0  0.9037241532404243  0.7101651650253045  0.2399578290423062  1.0000
  Fe  Fe35      1.0  0.8480638143157561  0.6365312434278461  0.20569357601005825  1.0000
  S   S69       1.0  0.8391756110140761  0.598628549903088  0.22928917466454238  1.0000
  Fe  Fe36      1.0  0.8250198595102118  0.6866550558653198  0.17709941702131704  1.0000
  S   S70       1.0  0.7930185185741606  0.7128475803992809  0.1562789342549389  1.0000
  S   S71       1.0  0.8893069297218289  0.6465824885913413  0.19572323421729623  1.0000
  S   S72       1.0  0.8643010264652581  0.7008238065780343  0.16549231375380732  1.0000
  Fe  Fe37      1.0  0.9687327022710873  0.7796971064103951  0.4010516191215785  1.0000
  S   S73       1.0  0.9319830722080246  0.7644874330376271  0.42164329990908683  1.0000
  S   S74       1.0  0.0032571415844644402  0.7533495208715091  0.3866037530294464  1.0000
  Fe  Fe38      1.0  0.9458961646540293  0.834622531212892  0.39686049053708344  1.0000
  S   S75       1.0  0.9072870118666209  0.8246569642991889  0.41740408849029204  1.0000
  S   S76       1.0  0.9587081275729065  0.8731525204654679  0.37970389693952855  1.0000
  Fe  Fe39      1.0  0.9308282782016853  0.7998792002813429  0.4519236972728115  1.0000
  S   S77       1.0  0.9164759725571027  0.7986496173668425  0.5026882040838697  1.0000
  Fe  Fe40      1.0  0.9110892864479535  0.7901249030393096  0.385607692307979  1.0000
  S   S78       1.0  0.8751616266244097  0.7758941011668644  0.3623326715367581  1.0000
  S   S79       1.0  0.9692655029348568  0.8131714979341137  0.4344218772176748  1.0000
  S   S80       1.0  0.9479615899293715  0.8021356905416972  0.36198237600800764  1.0000
  Fe  Fe41      1.0  0.6856971811811674  0.7950413530594669  0.21801092953757883  1.0000
  S   S81       1.0  0.7045528472777637  0.8259450609905798  0.18986043446709167  1.0000
  S   S82       1.0  0.7069996138791163  0.7642391668340681  0.24716869191270635  1.0000
  Fe  Fe42      1.0  0.6315107193091626  0.8121598903053395  0.1973143340613265  1.0000
  S   S83       1.0  0.6448056348057385  0.8451605657733476  0.16702248649099552  1.0000
  S   S84       1.0  0.5921464355561501  0.7955782030210283  0.2028452448213691  1.0000
  Fe  Fe43      1.0  0.6770900331558474  0.8169934612909242  0.15104450056007285  1.0000
  S   S85       1.0  0.6955777444412877  0.8117319043886139  0.1025347037265473  1.0000
  Fe  Fe44      1.0  0.6716513883568448  0.8520055875001178  0.2078408114683285  1.0000
  S   S86       1.0  0.6829937390435302  0.8911701060370655  0.22339332633650366  1.0000
  S   S87       1.0  0.6614133467467709  0.7834172866997939  0.1774061830384095  1.0000
  S   S88       1.0  0.6550562111862934  0.8218822451014444  0.2398067034377712  1.0000
  Fe  Fe45      1.0  0.8279957708190391  0.9421792332908635  0.36732868960252885  1.0000
  S   S89       1.0  0.8203100704155638  0.9008401347699837  0.3760403901863069  1.0000
  S   S90       1.0  0.8654769350704924  0.9528671888723022  0.34432908634322534  1.0000
  Fe  Fe46      1.0  0.7780041064155012  0.9612671906570477  0.3985948371534464  1.0000
  S   S91       1.0  0.7656306961223595  0.9212767334452849  0.4108605799049962  1.0000
  S   S92       1.0  0.754248553468043  0.9970879290148886  0.41374025130893927  1.0000
  Fe  Fe47      1.0  0.8072047908875628  0.9132505026388509  0.42455444135991166  1.0000
  S   S93       1.0  0.8215998834705289  0.8889715751301664  0.4660689959224807  1.0000
  Fe  Fe48      1.0  0.7793827533033906  0.9112163638967624  0.36131824441257904  1.0000
  S   S94       1.0  0.763134044590455  0.8772075930535926  0.33686757468027945  1.0000
  S   S95       1.0  0.8184337522961245  0.954006495838343  0.4174086393970326  1.0000
  S   S96       1.0  0.7881808178266267  0.9520583760101022  0.34745087334161695  1.0000
  Fe  Fe49      1.0  0.6677652613965508  0.8628534834499489  0.9412650457263606  1.0000
  S   S97       1.0  0.6575050496586203  0.8233352109803372  0.9269893899523467  1.0000
  S   S98       1.0  0.648860791616153  0.8773718136556184  0.9866877381725085  1.0000
  Fe  Fe50      1.0  0.7025183764095397  0.8697089752000747  0.8819950947382912  1.0000
  S   S99       1.0  0.6956132873709568  0.830137747763483  0.8639003970045191  1.0000
  S   S100      1.0  0.7239404605643142  0.8995159693574226  0.8539782813558542  1.0000
  Fe  Fe51      1.0  0.6539103768713201  0.840085886914991  0.8776798555914553  1.0000
  S   S101      1.0  0.6196512963271281  0.8391271113456454  0.8451553982095847  1.0000
  Fe  Fe52      1.0  0.7000437606922788  0.8177572586422149  0.915316707492294  1.0000
  S   S102      1.0  0.7223216989736436  0.7843100935892169  0.9385784877803164  1.0000
  S   S103      1.0  0.660520523364768  0.8803001640316599  0.8930178185506861  1.0000
  S   S104      1.0  0.7106976140961203  0.8566548580613836  0.9322954853386023  1.0000
  Fe  Fe53      1.0  0.7803156707904303  0.9166693814191565  0.63039137518444  1.0000
  S   S105      1.0  0.8101108580216667  0.9462960136875556  0.6250844465487486  1.0000
  S   S106      1.0  0.7534497974439908  0.911671635252876  0.5893638817242549  1.0000
  Fe  Fe54      1.0  0.7985661073774559  0.8991606110639815  0.6964585752446353  1.0000
  S   S107      1.0  0.8302367343402371  0.9273968976258703  0.6967871198271058  1.0000
  S   S108      1.0  0.7939353412472696  0.8677218339402567  0.7339558114022078  1.0000
  Fe  Fe55      1.0  0.8000253919068826  0.9556806581457218  0.6759007970279919  1.0000
  S   S109      1.0  0.7940575364736531  0.9964225068055598  0.6942041387099884  1.0000
  Fe  Fe56      1.0  0.8376666994905908  0.9157638643108367  0.6458895699573626  1.0000
  S   S110      1.0  0.8759270461143178  0.9060898635507115  0.6208676813113415  1.0000
  S   S111      1.0  0.7675274034770898  0.9283568809287591  0.679740151324592  1.0000
  S   S112      1.0  0.8086033259097618  0.8851448972696663  0.6471879159576898  1.0000
  Fe  Fe57      1.0  0.8387892206127079  0.6971891235663296  0.943781127684523  1.0000
  S   S113      1.0  0.8188457362402067  0.6660738412217053  0.9184964182557759  1.0000
  S   S114      1.0  0.8245145147666946  0.7081471823806635  0.9930241990931806  1.0000
  Fe  Fe58      1.0  0.8723581273242116  0.7097200111044645  0.8856893958958112  1.0000
  S   S115      1.0  0.8555820372986545  0.6794602929322072  0.8555317774149815  1.0000
  S   S116      1.0  0.9005648994839889  0.7390965286513604  0.869743747384773  1.0000
  Fe  Fe59      1.0  0.8174123889466149  0.6938144923602835  0.8769690933893178  1.0000
  S   S117      1.0  0.7820218478674421  0.7051208196947957  0.848210561357237  1.0000
  Fe  Fe60      1.0  0.8587312448382003  0.654390644706398  0.8996845758192572  1.0000
  S   S118      1.0  0.8761748367409146  0.6134235743603567  0.899877899500238  1.0000
  S   S119      1.0  0.8339853310630743  0.7259354606101174  0.9038968935509659  1.0000
  S   S120      1.0  0.8790466145465974  0.6835085927533178  0.9282393316161318  1.0000
  Fe  Fe61      1.0  0.9748309047648592  0.836382972734666  0.7092474014813098  1.0000
  S   S121      1.0  0.9504044078003621  0.8160652321542077  0.6746841362571333  1.0000
  S   S122      1.0  0.9638655708753959  0.8779297597075965  0.7196704976177419  1.0000
  Fe  Fe62      1.0  0.00794012544796141  0.787719159552988  0.7252605091589467  1.0000
  S   S123      1.0  0.9858321482338525  0.763564979790027  0.6922618314260023  1.0000
  S   S124      1.0  0.04033184820242952  0.7652959504111142  0.7506816566579125  1.0000
  Fe  Fe63      1.0  0.9883794207548138  0.7970564000427538  0.6583232951801814  1.0000
  S   S125      1.0  0.0035203345698466837  0.7918715466780487  0.6082061600484934  1.0000
  Fe  Fe64      1.0  0.9502262278406584  0.784906803722354  0.7121556997749068  1.0000
  S   S126      1.0  0.9132202993065311  0.7650159540373588  0.7235744975874144  1.0000
  S   S127      1.0  0.013005349407833489  0.8199392509267625  0.6900321072302126  1.0000
  S   S128      1.0  0.9721383334379382  0.8064986625531462  0.7480977724467917  1.0000
  Fe  Fe65      1.0  0.37601087758500673  0.19169037689563417  0.39603762030575007  1.0000
  S   S129      1.0  0.3543178639876981  0.16124370321954404  0.37189062341784573  1.0000
  S   S130      1.0  0.4070314630876282  0.21457133062190642  0.37214265447008527  1.0000
  Fe  Fe66      1.0  0.3438930595862955  0.18803472731364815  0.4577050852660778  1.0000
  S   S131      1.0  0.3194869924135711  0.15731057194477555  0.4383523544097559  1.0000
  S   S132      1.0  0.3323663338886361  0.20506545675930918  0.5054243690470116  1.0000
  Fe  Fe67      1.0  0.35734921219335963  0.14008399656929402  0.418885842266215  1.0000
  S   S133      1.0  0.37120053930759483  0.09804784001472278  0.4220181497329395  1.0000
  Fe  Fe68      1.0  0.31877242773752296  0.18137491497248495  0.39349356709057803  1.0000
  S   S134      1.0  0.283267967000228  0.19336719830596907  0.3651097244743557  1.0000
  S   S135      1.0  0.3820306078944099  0.16905401662807062  0.44177331311144974  1.0000
  S   S136      1.0  0.3401601070837065  0.2134559387894213  0.4142311439311097  1.0000
  Fe  Fe69      1.0  0.4185636105392054  0.26689309805893896  0.20153930060224248  1.0000
  S   S137      1.0  0.4549252007986449  0.2808501207138276  0.2227936972200495  1.0000
  S   S138      1.0  0.3941888488767934  0.2367484914058148  0.22428749364076084  1.0000
  Fe  Fe70      1.0  0.42408268697268103  0.2998142269704908  0.14120839239793287  1.0000
  S   S139      1.0  0.4608304456234519  0.31646588952325694  0.15758751004917268  1.0000
  S   S140      1.0  0.40854128116041544  0.3149570829067322  0.09442508682149595  1.0000
  Fe  Fe71      1.0  0.471936157255882  0.27589141627815794  0.17362811866701486  1.0000
  S   S141      1.0  0.5089098187080998  0.2530477577516451  0.16051259499057877  1.0000
  Fe  Fe72      1.0  0.4399582259438467  0.3198184140990412  0.20476720163608392  1.0000
  S   S142      1.0  0.43596055682370005  0.35500484008481176  0.23524119972643123  1.0000
  S   S143      1.0  0.4365883396131058  0.25894591346218593  0.15348671625867302  1.0000
  S   S144      1.0  0.4022405683895291  0.30624425247922205  0.18713315082670032  1.0000
  Fe  Fe73      1.0  0.12819824357780435  0.3092008303763349  0.4182913447174063  1.0000
  S   S145      1.0  0.13289119476463238  0.34993199032246763  0.4012311675784727  1.0000
  S   S146      1.0  0.09228122487297488  0.2888756283095748  0.43247987636476426  1.0000
  Fe  Fe74      1.0  0.18629492863399494  0.2980601373717821  0.42622281405169377  1.0000
  S   S147      1.0  0.19678424274970638  0.33742152756582144  0.40910250907730983  1.0000
  S   S148      1.0  0.21299363036625144  0.26869301869717105  0.4509455942251944  1.0000
  Fe  Fe75      1.0  0.16294016310774972  0.351869195709579  0.43924710281727497  1.0000
  S   S149      1.0  0.16612222164646107  0.38384586141836324  0.4742627817174273  1.0000
  Fe  Fe76      1.0  0.1663046225890564  0.33239076845623927  0.37199368601583005  1.0000
  S   S150      1.0  0.16877174459505406  0.3467360878538333  0.3211522716930535  1.0000
  S   S151      1.0  0.15483095763375615  0.31309866571065487  0.4592433632857098  1.0000
  S   S152      1.0  0.15910432771803698  0.2912720048497094  0.3861030790548531  1.0000
  Fe  Fe77      1.0  0.26176902936347723  0.436808668154803  0.16365550537213402  1.0000
  S   S153      1.0  0.2895673943330752  0.46834822384654595  0.16579899438048182  1.0000
  S   S154      1.0  0.2392072609805869  0.43460145257456495  0.11817013412287777  1.0000
  Fe  Fe78      1.0  0.27684233255895946  0.4150713556846604  0.22927929853672918  1.0000
  S   S155      1.0  0.30627771694550726  0.4449481977421671  0.2362842397646869  1.0000
  S   S156      1.0  0.2762434225219929  0.38446738197431  0.2681674909420283  1.0000
  Fe  Fe79      1.0  0.2756636738873255  0.4727958354034861  0.21629195201359536  1.0000
  S   S157      1.0  0.26739602276430935  0.5117267286268166  0.23844436062132743  1.0000
  Fe  Fe80      1.0  0.31742745586424304  0.43755269431486027  0.1854186670209936  1.0000
  S   S158      1.0  0.3581594998652528  0.4348972656883415  0.16536259777982504  1.0000
  S   S159      1.0  0.2450526077400208  0.4436947033770507  0.21296163014602726  1.0000
  S   S160      1.0  0.29065111605100974  0.4053883847924309  0.17960163930600162  1.0000
  Fe  Fe81      1.0  0.45582711734551634  0.27332799095327126  0.8689091063349208  1.0000
  S   S161      1.0  0.4858234850302199  0.3020116986559568  0.8796197605233206  1.0000
  S   S162      1.0  0.4489728920522515  0.264478308461757  0.8172857006688905  1.0000
  Fe  Fe82      1.0  0.4461044308969956  0.26131781776184415  0.9388878775465317  1.0000
  S   S163      1.0  0.4757433599834921  0.28807940755990813  0.9550540619634545  1.0000
  S   S164      1.0  0.4245879671489497  0.24047002710604495  0.9772566799156338  1.0000
  Fe  Fe83      1.0  0.45788391513447524  0.3151861071279458  0.9183668414710737  1.0000
  S   S165      1.0  0.4469771172420612  0.35545642805277106  0.9346738817298409  1.0000
  Fe  Fe84      1.0  0.5005939606762547  0.2720513348461854  0.9151637474947497  1.0000
  S   S166      1.0  0.5417745225785275  0.25697162094179204  0.9245613851104806  1.0000
  S   S167      1.0  0.42644809024082325  0.2893554270478502  0.9045501671274577  1.0000
  S   S168      1.0  0.47245475092644146  0.24250923178855402  0.9020186139766546  1.0000
  Fe  Fe85      1.0  0.31943224393330444  0.13834397708864626  0.7085354094855075  1.0000
  S   S169      1.0  0.3617504398104756  0.14335827027192447  0.7166737474660206  1.0000
  S   S170      1.0  0.29991991936548806  0.10086297192227095  0.7147724172658203  1.0000
  Fe  Fe86      1.0  0.30922184392897833  0.19426649942458027  0.6859542387230109  1.0000
  S   S171      1.0  0.3506838490398175  0.2041108586990254  0.6930867390032587  1.0000
  S   S172      1.0  0.28188855286422654  0.2231183809757715  0.6611362434888157  1.0000
  Fe  Fe87      1.0  0.3602503718514846  0.16563485644959328  0.6702960140634313  1.0000
  S   S173      1.0  0.38752292400671445  0.1584520158048413  0.6286688501761882  1.0000
  Fe  Fe88      1.0  0.34782285870920526  0.18112293921860698  0.7387657883988286  1.0000
  S   S174      1.0  0.3579430013143392  0.19065583718142734  0.7894028706276415  1.0000
  S   S175      1.0  0.31901287850283594  0.15726135065155075  0.6604196489451752  1.0000
  S   S176      1.0  0.3052447891577517  0.1744858230492632  0.73339327120141  1.0000
  Fe  Fe89      1.0  0.2778490733178885  0.4567324755455926  0.9038372974029826  1.0000
  S   S177      1.0  0.2576569369788825  0.42714959281878645  0.9331892115341937  1.0000
  S   S178      1.0  0.2569312507029493  0.4961045243832102  0.8997577552715578  1.0000
  Fe  Fe90      1.0  0.32099435949850114  0.4178168405457346  0.8832407188988796  1.0000
  S   S179      1.0  0.3043093404985695  0.38532383033843154  0.910848285523026  1.0000
  S   S180      1.0  0.3559600932802642  0.40803561003944955  0.8526283516257659  1.0000
  Fe  Fe91      1.0  0.2660813841473597  0.40093598244843426  0.8915515947271316  1.0000
  S   S181      1.0  0.23598607850398742  0.37498955556409214  0.8729725135674794  1.0000
  Fe  Fe92      1.0  0.29782122187142474  0.4145895780505616  0.9495332103432713  1.0000
  S   S182      1.0  0.3120559164303209  0.40637662678369013  0.9995055827478803  1.0000
  S   S183      1.0  0.28321877037250665  0.4315412011257576  0.8610790477671518  1.0000
  S   S184      1.0  0.31763230960362054  0.44614342513534677  0.9232042938769537  1.0000
  Fe  Fe93      1.0  0.172338747767541  0.3064547222050677  0.7058957672703992  1.0000
  S   S185      1.0  0.20654062059994022  0.3271431284739294  0.6875445710748502  1.0000
  S   S186      1.0  0.18272386738984658  0.2702527618398844  0.7339396053756364  1.0000
  Fe  Fe94      1.0  0.13366459133325764  0.3456501130822795  0.6768427502590603  1.0000
  S   S187      1.0  0.16499705559453484  0.36978166386697947  0.6564105819893594  1.0000
  S   S188      1.0  0.09255313840632454  0.36037814954512265  0.6660414029544771  1.0000
  Fe  Fe95      1.0  0.18438121216447748  0.33181123361430137  0.6422238356389603  1.0000
  S   S189      1.0  0.20525425915288426  0.3216906910059891  0.596201697904301  1.0000
  Fe  Fe96      1.0  0.18430122171011165  0.36290158331944494  0.7037821493901414  1.0000
  S   S190      1.0  0.20785147829916534  0.3923714382698322  0.7277058199253938  1.0000
  S   S191      1.0  0.1516847269534641  0.3079922641855466  0.6590720391210062  1.0000
  S   S192      1.0  0.15134160466618246  0.34203779443055965  0.7257187186984523  1.0000
  Fe  Fe97      1.0  0.8591073309539712  0.42125440108861384  0.19119466918557365  1.0000
  S   S193      1.0  0.8292039226525595  0.4531839946316614  0.2021855500428188  1.0000
  S   S194      1.0  0.892975510237784  0.4107259244113229  0.22330128701038082  1.0000
  Fe  Fe98      1.0  0.8363579858775876  0.4109746431329649  0.12590944246235  1.0000
  S   S195      1.0  0.8050982616147382  0.4424948889973838  0.1313934131405474  1.0000
  S   S196      1.0  0.8340570197609926  0.38675282709369535  0.08195185547247437  1.0000
  Fe  Fe99      1.0  0.8361484583475616  0.46587667007767786  0.15155019729457336  1.0000
  S   S197      1.0  0.8431607830286609  0.5057860616188188  0.13241735155099288  1.0000
  Fe  Fe100     1.0  0.8011703988071013  0.426498397035239  0.1809945941166476  1.0000
  S   S198      1.0  0.7622955919342893  0.4169058392292507  0.20119591668089598  1.0000
  S   S199      1.0  0.8680667587753472  0.43566298883769483  0.14173215230985037  1.0000
  S   S200      1.0  0.830524525701082  0.39338693947767  0.17438433758552224  1.0000
  Fe  Fe101     1.0  0.9010857372868429  0.3724120683409341  0.3964504903488226  1.0000
  S   S201      1.0  0.915013829094076  0.3328913701704922  0.38042111863262634  1.0000
  S   S202      1.0  0.8722768984342631  0.40006184688572294  0.37191099230877905  1.0000
  Fe  Fe102     1.0  0.9309382003376183  0.36817269574912176  0.4578934389745707  1.0000
  S   S203      1.0  0.9482912777773738  0.3284516099653659  0.4478385255510671  1.0000
  S   S204      1.0  0.9387388823293549  0.38993147537300443  0.5024476924410033  1.0000
  Fe  Fe103     1.0  0.9540587303444995  0.34341252656463545  0.39802685690252315  1.0000
  S   S205      1.0  0.9890426109174679  0.3340501780905524  0.36668884595344464  1.0000
  Fe  Fe104     1.0  0.908330181386307  0.32039102191157404  0.43122363920840945  1.0000
  S   S206      1.0  0.8921143704605138  0.28366665521428863  0.4500437508475495  1.0000
  S   S207      1.0  0.9407383917287074  0.3842247442204998  0.4095792096859981  1.0000
  S   S208      1.0  0.8904257957905946  0.3588123288616907  0.44553766285498175  1.0000
  Fe  Fe105     1.0  0.6492388556215568  0.28847782522901033  0.1696844316149272  1.0000
  S   S209      1.0  0.668009549818023  0.24838180826274023  0.16581433587319805  1.0000
  S   S210      1.0  0.6149854652150994  0.29822706352289025  0.20216908982760146  1.0000
  Fe  Fe106     1.0  0.6907976413367753  0.31265604643530204  0.12865803112988117  1.0000
  S   S211      1.0  0.7133374798099048  0.2748651314403586  0.12230580519351932  1.0000
  S   S212      1.0  0.7076170008568573  0.34646216774911365  0.10346348630134075  1.0000
  Fe  Fe107     1.0  0.6740952711110277  0.25945660621233857  0.1142516166426428  1.0000
  S   S213      1.0  0.6681092977748871  0.23467388933367642  0.0716640509350409  1.0000
  Fe  Fe108     1.0  0.7053451784343655  0.2678056712319033  0.1740988737492413  1.0000
  S   S214      1.0  0.7381725071298707  0.25807554909772373  0.20817622984447892  1.0000
  S   S215      1.0  0.6518845823775232  0.2978791830708086  0.11736858723385243  1.0000
  S   S216      1.0  0.6861996607416065  0.3072309798802517  0.18131662606633187  1.0000
  Fe  Fe109     1.0  0.7948223440216019  0.1373447015544199  0.38896603788490836  1.0000
  S   S217      1.0  0.7519683904379857  0.14684857231040513  0.39317024847940285  1.0000
  S   S218      1.0  0.8156735835061946  0.09928919558736626  0.4015891623978859  1.0000
  Fe  Fe110     1.0  0.8063438751315539  0.191867551474602  0.3670878381080495  1.0000
  S   S219      1.0  0.7643559813037185  0.20617004297215502  0.36981520573196003  1.0000
  S   S220      1.0  0.836433307753092  0.21796553744713545  0.3478939261612506  1.0000
  Fe  Fe111     1.0  0.7637200758113502  0.18347758205763226  0.41560268159480157  1.0000
  S   S221      1.0  0.7429807309000477  0.19698677182334712  0.46019565353580394  1.0000
  Fe  Fe112     1.0  0.7567145131319057  0.16852184987608976  0.34685712598162755  1.0000
  S   S222      1.0  0.7288625695281352  0.16515992443297442  0.30625461048146263  1.0000
  S   S223      1.0  0.8064095283810185  0.17223012178833685  0.41498682259835806  1.0000
  S   S224      1.0  0.7987985055863444  0.15579107057922878  0.3405931825947005  1.0000
  Fe  Fe113     1.0  0.8082072341400364  0.4254367115319048  0.9128057018958612  1.0000
  S   S225      1.0  0.8476997799445569  0.41347845609955214  0.8933091127484145  1.0000
  S   S226      1.0  0.7811801103542048  0.3949948620193207  0.9275610368212885  1.0000
  Fe  Fe114     1.0  0.8194417637702304  0.4827691011841852  0.9140831116704069  1.0000
  S   S227      1.0  0.8599145444553042  0.4755573713874134  0.8945838564466678  1.0000
  S   S228      1.0  0.8022894023292014  0.522128962444692  0.9277148382253426  1.0000
  Fe  Fe115     1.0  0.8414030570634672  0.4484505996538386  0.8615024921002753  1.0000
  S   S229      1.0  0.8471829782495155  0.4489676573919229  0.8084182818497792  1.0000
  Fe  Fe116     1.0  0.8618192521389314  0.44163818254959086  0.9285098019825152  1.0000
  S   S230      1.0  0.8931827839985668  0.4339476812904532  0.964491231848106  1.0000
  S   S231      1.0  0.8005087809996139  0.45823256170019316  0.8782978335655408  1.0000
  S   S232      1.0  0.8226562079024048  0.45095958477474174  0.9503655517703484  1.0000
  Fe  Fe117     1.0  0.9601977169402535  0.3051086817681892  0.6898579849800296  1.0000
  S   S233      1.0  0.9489881233729882  0.34651218796220074  0.6775836901412091  1.0000
  S   S234      1.0  0.9998483850895612  0.2856850284948411  0.6795728798651454  1.0000
  Fe  Fe118     1.0  0.908374360038764  0.2971451624509158  0.7248139975934347  1.0000
  S   S235      1.0  0.8933088875668791  0.3378054436676323  0.7151690501473934  1.0000
  S   S236      1.0  0.8846458630321623  0.2732206438860744  0.7581876243361741  1.0000
  Fe  Fe119     1.0  0.9100957393197769  0.331290257975528  0.6660030971451139  1.0000
  S   S237      1.0  0.8850381722451488  0.34029374640915283  0.6231367780759217  1.0000
  Fe  Fe120     1.0  0.9334271352079839  0.34868406311402417  0.7277153992346532  1.0000
  S   S238      1.0  0.9436665924732652  0.37716495133990346  0.7648560587315962  1.0000
  S   S239      1.0  0.922295005615357  0.28946322804735247  0.6747681249648189  1.0000
  S   S240      1.0  0.9474241232849715  0.3084096268311446  0.7409112259978928  1.0000
  Fe  Fe121     1.0  0.7295851744207007  0.2929244091531197  0.8368748520377738  1.0000
  S   S241      1.0  0.7454070445109706  0.26189730161642344  0.8698435677946909  1.0000
  S   S242      1.0  0.7579742862532299  0.3198161181834452  0.8152986808161979  1.0000
  Fe  Fe122     1.0  0.6734435529991196  0.27767821838075696  0.8470275862420448  1.0000
  S   S243      1.0  0.685036747729586  0.24548891476403162  0.881470912819591  1.0000
  S   S244      1.0  0.6325026987099828  0.29115998137950727  0.833430483537939  1.0000
  Fe  Fe123     1.0  0.7118484573678179  0.27388468529327825  0.901812573155082  1.0000
  S   S245      1.0  0.7189489911121728  0.2877583226323688  0.9515191583820943  1.0000
  Fe  Fe124     1.0  0.7174639928446719  0.23695292159768874  0.8458286863835545  1.0000
  S   S246      1.0  0.7338386888502346  0.19795717451722813  0.8300212574791485  1.0000
  S   S247      1.0  0.6975955115109793  0.30666641987591575  0.8701033823980656  1.0000
  S   S248      1.0  0.7041407884220077  0.26728627117985737  0.8100600305344671  1.0000
  Fe  Fe125     1.0  0.8049410479552419  0.1297166936838076  0.6255965801237257  1.0000
  S   S249      1.0  0.7775599005983183  0.16207712714124095  0.6089629626730871  1.0000
  S   S250      1.0  0.8078557599849208  0.091420495857784  0.6004416974400401  1.0000
  Fe  Fe126     1.0  0.829992891232009  0.16331525816227518  0.6738105292675814  1.0000
  S   S251      1.0  0.8052502355525867  0.19883098161006915  0.6611649334015912  1.0000
  S   S252      1.0  0.8586694309115631  0.1615775535358455  0.7136589773560469  1.0000
  Fe  Fe127     1.0  0.7727892887416024  0.17177273244914895  0.6607250478669358  1.0000
  S   S253      1.0  0.7340237857477921  0.1865501561655866  0.6801850396453649  1.0000
  Fe  Fe128     1.0  0.8121884386696033  0.18644783373262744  0.6106419976208468  1.0000
  S   S254      1.0  0.821729684296539  0.21412994396920287  0.5709195250231215  1.0000
  S   S255      1.0  0.7969039040330305  0.1369741584334129  0.6775104849180601  1.0000
  S   S256      1.0  0.8402117201297841  0.15328226365184083  0.6232882337999015  1.0000
  C   C1        1.0  0.7332276470367961  0.1884342367003096  0.7219737238255811  1.0000
  C   C2        1.0  0.7524203216142358  0.1753551537880018  0.740342849520772  1.0000
  C   C3        1.0  0.7517900676599376  0.1774358327171568  0.7736723941169509  1.0000
  C   C4        1.0  0.7324267748254939  0.19321239837873672  0.788678456354467  1.0000
  C   C5        1.0  0.7130824097915481  0.20607862381210104  0.7703149549689138  1.0000
  C   C6        1.0  0.7133805299537856  0.20354955746736858  0.7370302223760665  1.0000
  H   H1        1.0  0.7676450772796739  0.1634604091305494  0.7289675792284521  1.0000
  H   H2        1.0  0.7666124906403846  0.16718023021711392  0.7878044674316927  1.0000
  H   H3        1.0  0.6976408375259396  0.21764542675062387  0.7818059834979265  1.0000
  H   H4        1.0  0.6982628023145104  0.21341101752053254  0.7230057379470731  1.0000
  C   C7        1.0  0.8796190935463508  0.24204913670261724  0.7443271262672141  1.0000
  C   C8        1.0  0.872828384064618  0.23798565762879276  0.7126099997033817  1.0000
  C   C9        1.0  0.8665534236206021  0.21320864485975002  0.7028483110012875  1.0000
  C   C10       1.0  0.8677495345575342  0.19241246497129727  0.7246146700669512  1.0000
  C   C11       1.0  0.8752114335172  0.19643266371824702  0.7560517060300471  1.0000
  C   C12       1.0  0.8806470662427747  0.22126963267164673  0.7660193890591818  1.0000
  H   H5        1.0  0.871875892268683  0.25403281196193367  0.6958079336545513  1.0000
  H   H6        1.0  0.861059473136068  0.2101533213902763  0.6784363877336983  1.0000
  H   H7        1.0  0.8761500954996102  0.1804467365129588  0.7729462517275472  1.0000
  H   H8        1.0  0.8858704250271101  0.22433597504639471  0.7905475385113618  1.0000
  C   C13       1.0  0.7756623366128257  0.3742401449951662  0.895944816743955  1.0000
  C   C14       1.0  0.7652661257932546  0.35038400335102776  0.90251841293854  1.0000
  C   C15       1.0  0.7602947249393662  0.3336408701400624  0.8777308443445968  1.0000
  C   C16       1.0  0.7653687473586452  0.3407187121095659  0.8461042667914274  1.0000
  C   C17       1.0  0.7759503462865024  0.3645313538509947  0.8393671680689981  1.0000
  C   C18       1.0  0.7813636526122699  0.38123611854987616  0.8643456846244127  1.0000
  H   H9        1.0  0.7609912731831872  0.3447015467227612  0.9267581493125534  1.0000
  H   H10       1.0  0.7523772876114704  0.3152694369981905  0.883322729158057  1.0000
  H   H11       1.0  0.7792162086131379  0.3703281906736885  0.8148560441171805  1.0000
  H   H12       1.0  0.7891747252685519  0.3998044131326834  0.8591138443627706  1.0000
  C   C19       1.0  0.8750365594865704  0.43075434011490066  0.7958278226316798  1.0000
  C   C20       1.0  0.8767700450400395  0.42205014783592393  0.7643539177649585  1.0000
  C   C21       1.0  0.8977668773214776  0.4054022290694643  0.7547096975307179  1.0000
  C   C22       1.0  0.9175309617428825  0.39828990142217174  0.7762236294712084  1.0000
  C   C23       1.0  0.9162036300582245  0.40764512454453966  0.8074190018454428  1.0000
  C   C24       1.0  0.8947661011243486  0.42357376610429726  0.8173787382549946  1.0000
  H   H13       1.0  0.8614670436434164  0.427534762926238  0.7476792368318393  1.0000
  H   H14       1.0  0.8988183611297077  0.39832699505161606  0.7305349717590183  1.0000
  H   H15       1.0  0.9314994069601067  0.40215990485616493  0.8240973071686284  1.0000
  H   H16       1.0  0.8935088821463029  0.43027426830025023  0.8417132234892235  1.0000
  C   C25       1.0  0.7644283869525761  0.20455673559555623  0.49038543151100794  1.0000
  C   C26       1.0  0.7561746641777733  0.20283128731608274  0.5221526463189098  1.0000
  C   C27       1.0  0.7736510492921232  0.206555919782764  0.5467952937332807  1.0000
  C   C28       1.0  0.7994049236261973  0.2120429392059503  0.5398645476536483  1.0000
  C   C29       1.0  0.8074476659880724  0.21475834401034205  0.5080523896735563  1.0000
  C   C30       1.0  0.7899513429638819  0.21097812100644242  0.4833085468801842  1.0000
  H   H17       1.0  0.7364403912990612  0.19787318301931578  0.5276227900799835  1.0000
  H   H18       1.0  0.7672608907555521  0.2049285254273233  0.5711763686270894  1.0000
  H   H19       1.0  0.8272911419791408  0.2191319466200208  0.5023794397762252  1.0000
  H   H20       1.0  0.7961747289610175  0.21324152065578506  0.45878995112698434  1.0000
  C   C31       1.0  0.6821067406893611  0.24899156671907585  0.03786728101565662  1.0000
  C   C32       1.0  0.6839418097781945  0.23588334528160154  0.008796697108252038  1.0000
  C   C33       1.0  0.6954656768304066  0.24741169288135767  0.9819752051057608  1.0000
  C   C34       1.0  0.7051107745191907  0.272054412716201  0.9843307168948636  1.0000
  C   C35       1.0  0.7029304208221198  0.2852095928051077  0.013230732145900648  1.0000
  C   C36       1.0  0.6913659720678466  0.27378842639518564  0.039835035841085276  1.0000
  H   H21       1.0  0.6767489883579071  0.21670665450049822  0.007170202857304631  1.0000
  H   H22       1.0  0.6971194231211051  0.23714269202456376  0.9596742310809604  1.0000
  H   H23       1.0  0.7096996540242824  0.3045068785069897  0.014992735965933646  1.0000
  H   H24       1.0  0.6893825581811741  0.2843803797610603  0.061789065389283845  1.0000
  C   C37       1.0  0.7363727689775998  0.23084971339937632  0.23342940962278202  1.0000
  C   C38       1.0  0.7539775318014131  0.22769197694221885  0.25858887674269176  1.0000
  C   C39       1.0  0.751955416432753  0.20731173637456554  0.28064464578985093  1.0000
  C   C40       1.0  0.7322728389817899  0.18996552903020683  0.27771440729660635  1.0000
  C   C41       1.0  0.7149587954467771  0.19276036461511847  0.2521420806739446  1.0000
  C   C42       1.0  0.7170713224445188  0.21313025318052836  0.2299211332443177  1.0000
  H   H25       1.0  0.7691032304005219  0.24118291440262926  0.26130834805396147  1.0000
  H   H26       1.0  0.7657261077494809  0.20505357807765662  0.2998882498242306  1.0000
  H   H27       1.0  0.6998812140379346  0.17920290211099113  0.24956881880366175  1.0000
  H   H28       1.0  0.7037462935082194  0.2151278073060568  0.210176871439189  1.0000
  C   C43       1.0  0.9237844284773365  0.37643835698478745  0.5361669343697926  1.0000
  C   C44       1.0  0.8991293457021657  0.36651885253548205  0.533981916215361  1.0000
  C   C45       1.0  0.8871263511068478  0.356214613057858  0.5610796719091816  1.0000
  C   C46       1.0  0.9000800921437139  0.3548953935135934  0.5902768385836918  1.0000
  C   C47       1.0  0.9247374511710019  0.36478845476700084  0.5925272666898362  1.0000
  C   C48       1.0  0.9364039959658531  0.3759108551345938  0.5655996549549801  1.0000
  H   H29       1.0  0.8890148779495767  0.3671694108737088  0.5116368867063616  1.0000
  H   H30       1.0  0.8678992230611281  0.34894164415330636  0.5593183576162757  1.0000
  H   H31       1.0  0.934758165268143  0.36410323302803566  0.6149868142692473  1.0000
  H   H32       1.0  0.9554237725709585  0.3836696695082257  0.5674716279829897  1.0000
  C   C49       1.0  0.8756750833564546  0.26606308734288886  0.42184675533401633  1.0000
  C   C50       1.0  0.8742438929315287  0.27433969559828236  0.3900364372571992  1.0000
  C   C51       1.0  0.8622668705429695  0.25938058529620495  0.36744055699925665  1.0000
  C   C52       1.0  0.8509824574985606  0.23646181377108944  0.3767547440344673  1.0000
  C   C53       1.0  0.8519798921082304  0.22839903072730866  0.40869490831543565  1.0000
  C   C54       1.0  0.8645009674780778  0.24307317285222987  0.43117176419556347  1.0000
  H   H33       1.0  0.8821424096648136  0.292310082838753  0.382777510995235  1.0000
  H   H34       1.0  0.8612799534843679  0.2657965874630838  0.3428047250161481  1.0000
  H   H35       1.0  0.8435834918255705  0.21062877082060708  0.4159864283014952  1.0000
  H   H36       1.0  0.865524901007364  0.23652446894435397  0.4557194393630284  1.0000
  C   C55       1.0  0.8527532283614591  0.39735503078888607  0.04957239008891534  1.0000
  C   C56       1.0  0.8744295218253766  0.41197843324308436  0.05427031618122383  1.0000
  C   C57       1.0  0.8879942848839645  0.42181437148638834  0.02793616838924695  1.0000
  C   C58       1.0  0.8793580158681297  0.41775811152850023  0.9969575869565683  1.0000
  C   C59       1.0  0.858121677395742  0.40253514550071195  0.9922746021186881  1.0000
  C   C60       1.0  0.845051343549559  0.392094504300765  0.018525020053669294  1.0000
  H   H37       1.0  0.8808199135214952  0.4156302778628739  0.07814288046572491  1.0000
  H   H38       1.0  0.9045812029794341  0.43335492304969525  0.03160338652384587  1.0000
  H   H39       1.0  0.8515263150022356  0.3990773234839662  0.9683841917476345  1.0000
  H   H40       1.0  0.8284290406836201  0.3807085480991126  0.014708026207648663  1.0000
  C   C61       1.0  0.7463011458690146  0.3982453229514242  0.17368078597689784  1.0000
  C   C62       1.0  0.7585460965529454  0.3914816669674333  0.1447957828827655  1.0000
  C   C63       1.0  0.7461783014616913  0.3761887831153929  0.12298683616913914  1.0000
  C   C64       1.0  0.7217182140956864  0.3670616483434842  0.1302318174757237  1.0000
  C   C65       1.0  0.709475658801242  0.37346561898726766  0.159284289759333  1.0000
  C   C66       1.0  0.7217254080570409  0.3892110018524629  0.18094476225542588  1.0000
  H   H41       1.0  0.7777450165278452  0.39768510508458743  0.13929809330589943  1.0000
  H   H42       1.0  0.7559575778741058  0.3708291145419993  0.10092915084630466  1.0000
  H   H43       1.0  0.6905174414925924  0.3664576332440972  0.16492905696133645  1.0000
  H   H44       1.0  0.7122273718907527  0.39430875297995605  0.2033234427741839  1.0000
  C   C67       1.0  0.8864410223439358  0.4069616865451866  0.2643353617548171  1.0000
  C   C68       1.0  0.8621508084433455  0.41465852325865793  0.2774976703069071  1.0000
  C   C69       1.0  0.8579341082167518  0.41263210490154967  0.31059342031629955  1.0000
  C   C70       1.0  0.87774694058502  0.402302684239052  0.33049666765693053  1.0000
  C   C71       1.0  0.9018819146533903  0.3942434923939512  0.31725265023874094  1.0000
  C   C72       1.0  0.9062887431862128  0.3968442035330409  0.284293817715395  1.0000
  H   H45       1.0  0.8466507533066251  0.4222815211624165  0.2622750307620808  1.0000
  H   H46       1.0  0.8391843938317844  0.41874623009487955  0.3207329757953268  1.0000
  H   H47       1.0  0.9172871908233756  0.38628925278318427  0.3324367399655587  1.0000
  H   H48       1.0  0.9251018285165098  0.39083859746835775  0.27422429631758716  1.0000
  C   C73       1.0  0.06755981346883451  0.3385989621995789  0.6670277901336427  1.0000
  C   C74       1.0  0.042042494588772746  0.34806456966325633  0.6609138795161619  1.0000
  C   C75       1.0  0.021254747065214463  0.3317494119676836  0.6637720300797549  1.0000
  C   C76       1.0  0.025874673502005674  0.3057581452141182  0.6723669499381094  1.0000
  C   C77       1.0  0.05160056518063705  0.2959349408002869  0.6768643365016255  1.0000
  C   C78       1.0  0.07243871400934035  0.31238103283446766  0.6744558808037501  1.0000
  H   H49       1.0  0.03822109788867146  0.36825562812540374  0.6546560921633915  1.0000
  H   H50       1.0  0.0016689676255037256  0.3393421484871483  0.6593379948664697  1.0000
  H   H51       1.0  0.05532106155729499  0.2757715097380196  0.6833333878800397  1.0000
  H   H52       1.0  0.09211802268439047  0.30486904616797045  0.6790291247763108  1.0000
  C   C79       1.0  0.22939518242097104  0.3777247309852622  0.831941512920011  1.0000
  C   C80       1.0  0.2062974543713923  0.3685402996681801  0.8201456241765738  1.0000
  C   C81       1.0  0.19979435459263614  0.3723243342503373  0.7879006114256096  1.0000
  C   C82       1.0  0.21631429688371695  0.38549730343904137  0.7674414239865902  1.0000
  C   C83       1.0  0.2396590624209913  0.3941527668435309  0.7790765103559445  1.0000
  C   C84       1.0  0.24635981210574193  0.3899216659761001  0.811107928971539  1.0000
  H   H53       1.0  0.19314171379882591  0.3589466420145069  0.8361130574498807  1.0000
  H   H54       1.0  0.18169174645346814  0.3656487787892396  0.7791032491796601  1.0000
  H   H55       1.0  0.2526509497568691  0.4040714370942456  0.7632175837399615  1.0000
  H   H56       1.0  0.2647149764601868  0.3960315252517894  0.8195590891426067  1.0000
  C   C85       1.0  0.2536275143886405  0.23410859763202857  0.6817331189810687  1.0000
  C   C86       1.0  0.23546464894878344  0.25041733641789843  0.6656203082478701  1.0000
  C   C87       1.0  0.21324775183662192  0.2606336203816048  0.6814775440164966  1.0000
  C   C88       1.0  0.20898462993082983  0.2546473490655287  0.7136072597513967  1.0000
  C   C89       1.0  0.2267803353232248  0.23779868001773533  0.7297130525578572  1.0000
  C   C90       1.0  0.24922938056729255  0.22760880390415308  0.713789531815734  1.0000
  H   H57       1.0  0.2385322962700444  0.2552893254363124  0.6408119368673062  1.0000
  H   H58       1.0  0.19939541207832817  0.27319913998171985  0.6686938701293743  1.0000
  H   H59       1.0  0.22346110066096858  0.2330643503493337  0.7545658007521617  1.0000
  H   H60       1.0  0.26316843563137604  0.21498945696373326  0.7263364765419867  1.0000
  C   C91       1.0  0.5663099364620531  0.2661841719138867  0.8981071716816905  1.0000
  C   C92       1.0  0.5630922265182546  0.2885134274905907  0.8791723814715701  1.0000
  C   C93       1.0  0.5833174271285538  0.2956859498649778  0.8587188096070788  1.0000
  C   C94       1.0  0.6068960221395215  0.28075902964879884  0.857481749983923  1.0000
  C   C95       1.0  0.6098700704420986  0.2581615346003387  0.8759346690309819  1.0000
  C   C96       1.0  0.5896971766821731  0.2510207740893205  0.8964351029629217  1.0000
  H   H61       1.0  0.5452146692985586  0.30049435673804914  0.8806382448183511  1.0000
  H   H62       1.0  0.5809413322337543  0.3131814902188312  0.8443870550324157  1.0000
  H   H63       1.0  0.6277910531047795  0.24625997724547685  0.8745829533786457  1.0000
  H   H64       1.0  0.592220591153841  0.23366205151116157  0.910996208350956  1.0000
  C   C97       1.0  0.42266012105291295  0.3708403197327346  0.9110567449662401  1.0000
  C   C98       1.0  0.4070221001474015  0.3913454097653168  0.9236467559651539  1.0000
  C   C99       1.0  0.38635383427258796  0.4027124544209426  0.9058593956169061  1.0000
  C   C100      1.0  0.3819377333612363  0.39424029453431103  0.8749485867806839  1.0000
  C   C101      1.0  0.39797745044991895  0.37415235133074626  0.8620696031576272  1.0000
  C   C102      1.0  0.4180770213110075  0.3621759243444884  0.880290898109283  1.0000
  H   H65       1.0  0.41064768479033115  0.39816385151900424  0.9473746033486258  1.0000
  H   H66       1.0  0.3741092311426474  0.4183078262872565  0.9158266572786232  1.0000
  H   H67       1.0  0.3945901797675932  0.3675630821300789  0.8381655206274079  1.0000
  H   H68       1.0  0.43017705682792595  0.3464215581210891  0.8703883787876392  1.0000
  C   C103      1.0  0.4236161965884364  0.24401973581132316  0.8096752480837934  1.0000
  C   C104      1.0  0.41779079774429295  0.23807822056898847  0.7780887285558741  1.0000
  C   C105      1.0  0.39766984120397086  0.22169614040056346  0.7715012248254003  1.0000
  C   C106      1.0  0.38334672560489264  0.21119221762920232  0.7965456641275537  1.0000
  C   C107      1.0  0.3892510864162268  0.21706805591853784  0.8281268670621401  1.0000
  C   C108      1.0  0.40934153351637514  0.23344329802938046  0.8347057193788107  1.0000
  H   H69       1.0  0.42877976827890546  0.24624882555477298  0.7586533568235964  1.0000
  H   H70       1.0  0.39324860473569156  0.21724576372190904  0.7470936879571438  1.0000
  H   H71       1.0  0.3782588005573587  0.2089579489159533  0.8475858598716931  1.0000
  H   H72       1.0  0.41377255487884645  0.23787767311170555  0.8591189957827275  1.0000
  C   C109      1.0  0.2593175403886188  0.4271778898745321  0.08495999425938396  1.0000
  C   C110      1.0  0.2483225416631638  0.4238768730674498  0.05493212824310001  1.0000
  C   C111      1.0  0.26430388816989275  0.41761281746141987  0.02838706961185533  1.0000
  C   C112      1.0  0.29132412918221806  0.41450350708518796  0.03189894654413439  1.0000
  C   C113      1.0  0.302306881851459  0.41809029918042206  0.06183098852399427  1.0000
  C   C114      1.0  0.2863688584423473  0.42463760493069697  0.08821859892347689  1.0000
  H   H73       1.0  0.22738332679642126  0.4258104958161384  0.05232641667432164  1.0000
  H   H74       1.0  0.25564445329367697  0.41463184815542004  0.005445873633610709  1.0000
  H   H75       1.0  0.3232271169793187  0.41603919115396826  0.06457799125480657  1.0000
  H   H76       1.0  0.2949985829574358  0.42774802772551185  0.11112335447857882  1.0000
  C   C115      1.0  0.06374328429272598  0.3021065123448989  0.4145507374245278  1.0000
  C   C116      1.0  0.039490502967428405  0.298023915973606  0.42873675603946404  1.0000
  C   C117      1.0  0.016484744945922003  0.3083720847995794  0.41466334398381843  1.0000
  C   C118      1.0  0.017627875142188332  0.3222857467638577  0.3859117656674485  1.0000
  C   C119      1.0  0.04187238825612871  0.32593936975321514  0.371450916886485  1.0000
  C   C120      1.0  0.06493387442893178  0.3162128977869045  0.3859772398414346  1.0000
  H   H77       1.0  0.03850863960142848  0.2871173894915593  0.45084592208889457  1.0000
  H   H78       1.0  0.9979406545547153  0.3052554913573225  0.4258976282150574  1.0000
  H   H79       1.0  0.04284761838037876  0.33655103436439154  0.3491083870969145  1.0000
  H   H80       1.0  0.08357668374579587  0.31929485668588037  0.3747717420428039  1.0000
  C   C121      1.0  0.1803258719603451  0.3691240533788062  0.5082706479940569  1.0000
  C   C122      1.0  0.17517095717275957  0.37929786383054037  0.5386078307525982  1.0000
  C   C123      1.0  0.18320394661916675  0.36513316409643104  0.5659596185137881  1.0000
  C   C124      1.0  0.19667297607987028  0.3410129045098866  0.5628624029767892  1.0000
  C   C125      1.0  0.2029432287063079  0.33160043172193965  0.532495157323579  1.0000
  C   C126      1.0  0.1948809157823166  0.34564444345328016  0.5053133437658353  1.0000
  H   H81       1.0  0.16423180364110865  0.3976480567563547  0.540973788869842  1.0000
  H   H82       1.0  0.17885848297448614  0.3728044538581501  0.5893422575720001  1.0000
  H   H83       1.0  0.21337252086834232  0.3130370621058444  0.5298672205334306  1.0000
  H   H84       1.0  0.1996466818200988  0.3379882133490403  0.4820077957333388  1.0000
  C   C127      1.0  0.1988137622669983  0.35661053259669834  0.3063040103971625  1.0000
  C   C128      1.0  0.1991584321665346  0.37325484170480294  0.2796674755357883  1.0000
  C   C129      1.0  0.22279727595214982  0.382043553834853  0.2678017877407813  1.0000
  C   C130      1.0  0.2462382036261109  0.3739212329419247  0.2823135894876913  1.0000
  C   C131      1.0  0.24591028898962014  0.35709852560168953  0.3088152987062986  1.0000
  C   C132      1.0  0.22224313240657753  0.3485214845556067  0.32087931938307773  1.0000
  H   H85       1.0  0.18107288524109502  0.3794085594823372  0.2681808631054127  1.0000
  H   H86       1.0  0.2228955076302126  0.39483949471696655  0.24722132522036636  1.0000
  H   H87       1.0  0.26402931192805024  0.35071418882883876  0.3200356353649588  1.0000
  H   H88       1.0  0.22215233354422692  0.33546599510502795  0.34120143434016426  1.0000
  C   C133      1.0  0.5381296535186225  0.2662710900810998  0.17173654811402395  1.0000
  C   C134      1.0  0.5617165958670259  0.25648643549949884  0.15837785657543477  1.0000
  C   C135      1.0  0.5853500273831262  0.266589231438665  0.1671309050849086  1.0000
  C   C136      1.0  0.5854994661954611  0.28612589015797557  0.18982526643911302  1.0000
  C   C137      1.0  0.5619000857710952  0.2957800513751534  0.2033540730583423  1.0000
  C   C138      1.0  0.5381912761434745  0.2860732437927732  0.19406904372304  1.0000
  H   H89       1.0  0.5617769685356018  0.24110902231034684  0.14115045917267074  1.0000
  H   H90       1.0  0.6034885145807144  0.259024903512935  0.15663032271794294  1.0000
  H   H91       1.0  0.5619517320253254  0.3109655944004913  0.22083502438671024  1.0000
  H   H92       1.0  0.5200541615172842  0.2937725835149195  0.20441726028738233  1.0000
  C   C139      1.0  0.4192975334849546  0.26091691626328106  0.009929206812956837  1.0000
  C   C140      1.0  0.41448960134031054  0.25061112295222915  0.04033393775252181  1.0000
  C   C141      1.0  0.41145572799980124  0.26703330594456626  0.0666882942034208  1.0000
  C   C142      1.0  0.4126157564034368  0.29377358809600623  0.06239098641814016  1.0000
  C   C143      1.0  0.41684969051152393  0.3040582053495413  0.031931222868862186  1.0000
  C   C144      1.0  0.4204541522302176  0.28765416237481883  0.005810283613542966  1.0000
  H   H93       1.0  0.41349557929272723  0.22991513638758085  0.04355105964705075  1.0000
  H   H94       1.0  0.4078029796844546  0.25902610089666567  0.09014493175744247  1.0000
  H   H95       1.0  0.4181639463190652  0.32471240310930377  0.0286823845782147  1.0000
  H   H96       1.0  0.4241653165539738  0.29574797349914667  0.9824516518041991  1.0000
  C   C145      1.0  0.4145598573838782  0.3777389596046215  0.21646648932716422  1.0000
  C   C146      1.0  0.39139905156682925  0.386458626317751  0.23174423074980086  1.0000
  C   C147      1.0  0.37378310733283393  0.40388593649815396  0.21611078008946286  1.0000
  C   C148      1.0  0.3797534513922501  0.4131917866638248  0.1855849757560869  1.0000
  C   C149      1.0  0.40321465222574865  0.40498070940672404  0.1707025461306111  1.0000
  C   C150      1.0  0.4203293285712586  0.3868525711443754  0.18582962914087017  1.0000
  H   H97       1.0  0.3868218665839863  0.37922103805983604  0.2553570908149345  1.0000
  H   H98       1.0  0.35560932498904096  0.4099791018763727  0.22767957688224216  1.0000
  H   H99       1.0  0.4079464380967681  0.41219520221105854  0.1471307905928369  1.0000
  H   H100      1.0  0.4382066606612902  0.3801207750391971  0.17397347252491288  1.0000
  C   C151      1.0  0.3502985816865729  0.19490124447008142  0.5392407031065309  1.0000
  C   C152      1.0  0.3736956914903019  0.17983418422815825  0.5367457404385824  1.0000
  C   C153      1.0  0.3857196242381267  0.16936374015382685  0.5643612264016025  1.0000
  C   C154      1.0  0.3745166722099097  0.1742021023675737  0.5944880556430518  1.0000
  C   C155      1.0  0.351915298205378  0.19041317758316115  0.5969420121919214  1.0000
  C   C156      1.0  0.3398369817657273  0.20066726721118847  0.5694250188378663  1.0000
  H   H101      1.0  0.3822902902761535  0.17586269524793283  0.5135661284514899  1.0000
  H   H102      1.0  0.40344431322523544  0.15718313544293808  0.5623598314254108  1.0000
  H   H103      1.0  0.34347455564894336  0.19486756509156203  0.6200568971918855  1.0000
  H   H104      1.0  0.3219231349688124  0.21246481147295643  0.5715864823369683  1.0000
  C   C157      1.0  0.263094898854781  0.213992619419662  0.3885968328669736  1.0000
  C   C158      1.0  0.24354380303103307  0.2301613012863763  0.3745641830371643  1.0000
  C   C159      1.0  0.22842705326171384  0.2476706432213999  0.3933720113275697  1.0000
  C   C160      1.0  0.2323553904189592  0.2483074276469224  0.4263123168947063  1.0000
  C   C161      1.0  0.25155690628416355  0.23182076117245817  0.44028882495138055  1.0000
  C   C162      1.0  0.267145285238939  0.2149766899040927  0.4214222989914472  1.0000
  H   H105      1.0  0.24043328227574043  0.2294732847492816  0.3491235107580837  1.0000
  H   H106      1.0  0.2136881438320711  0.2604963479196536  0.3824376319078583  1.0000
  H   H107      1.0  0.2545435120053398  0.23213807969770567  0.46574796708470223  1.0000
  H   H108      1.0  0.2821817795421426  0.20260750768481312  0.432431425554935  1.0000
  C   C163      1.0  0.4045959336256213  0.21960357084622603  0.33072925167094797  1.0000
  C   C164      1.0  0.4175326637866523  0.23986872332321815  0.31625441994441883  1.0000
  C   C165      1.0  0.4144901018781401  0.24532304522959336  0.28357463750216466  1.0000
  C   C166      1.0  0.39894654564656623  0.23015949286005138  0.2650932663130604  1.0000
  C   C167      1.0  0.3866575423366957  0.20944883422624708  0.27937526642924343  1.0000
  C   C168      1.0  0.389297538632932  0.2043058999298164  0.3121445495829337  1.0000
  H   H109      1.0  0.4292563610683723  0.2518909789565013  0.3305834328074178  1.0000
  H   H110      1.0  0.4236329144013673  0.2616516399973746  0.2730021948986849  1.0000
  H   H111      1.0  0.37480871697847523  0.19749267324065936  0.26512525359972994  1.0000
  H   H112      1.0  0.3795924925507373  0.18841706709954784  0.32291180860964314  1.0000
  C   C169      1.0  0.8553207802024021  0.5884955315611269  0.9083573510875614  1.0000
  C   C170      1.0  0.8661064442520785  0.5634341562646545  0.9139653193104965  1.0000
  C   C171      1.0  0.8499498946927517  0.5430613921593888  0.9205991794802602  1.0000
  C   C172      1.0  0.822913073911998  0.547611648042669  0.9213265738559289  1.0000
  C   C173      1.0  0.8121093242313018  0.5727356247804647  0.9162000019934334  1.0000
  C   C174      1.0  0.8282828402923862  0.5931445960317454  0.9095911092264812  1.0000
  H   H113      1.0  0.887043801649516  0.5597695025462076  0.9132152785754227  1.0000
  H   H114      1.0  0.8584925305728405  0.5239163713091433  0.9254102347302134  1.0000
  H   H115      1.0  0.791164402480254  0.5763466063305506  0.9167246375520933  1.0000
  H   H116      1.0  0.819751388918411  0.6122988025254222  0.9048181524414355  1.0000
  C   C175      1.0  0.9004058574782219  0.7481716997197857  0.8293228853258299  1.0000
  C   C176      1.0  0.8887866672244144  0.7333211212079928  0.8064097919504452  1.0000
  C   C177      1.0  0.8917088286506143  0.7393744336038515  0.7738709327684625  1.0000
  C   C178      1.0  0.90628939798517  0.7602173073733254  0.7642546855043485  1.0000
  C   C179      1.0  0.9162128100985605  0.7761388455586441  0.7872907825050317  1.0000
  C   C180      1.0  0.9135251985951481  0.7699611735816325  0.819738191076062  1.0000
  H   H117      1.0  0.8784899663924687  0.7165708603175833  0.8135796549100229  1.0000
  H   H118      1.0  0.8836505707582132  0.7271908308004761  0.7561246124124287  1.0000
  H   H119      1.0  0.9266096969021361  0.7928184817046764  0.78022206535514  1.0000
  H   H120      1.0  0.9221796859910725  0.781757099894783  0.8374461630451695  1.0000
  C   C181      1.0  0.7959952804314334  0.02202632009754235  0.6664667838099229  1.0000
  C   C182      1.0  0.78566718720402  0.04667252394900956  0.6747861931300588  1.0000
  C   C183      1.0  0.7886122925631268  0.06791335483491924  0.6542035372391276  1.0000
  C   C184      1.0  0.8020589693195013  0.06466032405767504  0.6252587518725647  1.0000
  C   C185      1.0  0.8120061535840971  0.03996161471291227  0.6166137899070708  1.0000
  C   C186      1.0  0.8090814554686623  0.01869749476946181  0.6372419903155221  1.0000
  H   H121      1.0  0.7754101902321443  0.04932489017573971  0.6972905464431882  1.0000
  H   H122      1.0  0.7802797634338235  0.08673489781583517  0.6606947866194802  1.0000
  H   H123      1.0  0.8226182101445326  0.03736676189825961  0.5943701616136026  1.0000
  H   H124      1.0  0.817677006071558  0.999947149339675  0.6309793432491023  1.0000
  C   C187      1.0  0.9025886042827965  0.9025065416884245  0.6465418338266294  1.0000
  C   C188      1.0  0.9244410031599583  0.8869121900120914  0.6373817412594973  1.0000
  C   C189      1.0  0.9441406984088778  0.8805375452550744  0.659379436820185  1.0000
  C   C190      1.0  0.9422015396907496  0.8900033649686105  0.690427216678907  1.0000
  C   C191      1.0  0.9213998482727525  0.907252388557803  0.6988152141694982  1.0000
  C   C192      1.0  0.9015485857536862  0.9134632235025429  0.6768536717129977  1.0000
  H   H125      1.0  0.9257032908425498  0.8787846465523559  0.613812015740167  1.0000
  H   H126      1.0  0.9606595232318694  0.8679099985939535  0.6524757421219288  1.0000
  H   H127      1.0  0.9200639139699522  0.9149156947818617  0.7226965958034742  1.0000
  H   H128      1.0  0.8851989841933615  0.9262641856785258  0.6836578668048173  1.0000
  C   C193      1.0  0.7359311052184385  0.7606117473811035  0.9131477791055844  1.0000
  C   C194      1.0  0.7531595873179224  0.741523132035473  0.9259738642290224  1.0000
  C   C195      1.0  0.7660629765742295  0.7234630273185026  0.9060766061810648  1.0000
  C   C196      1.0  0.761731149038136  0.7243034867520274  0.8732444243038323  1.0000
  C   C197      1.0  0.7434768512632519  0.7425984369559704  0.8604834037785465  1.0000
  C   C198      1.0  0.7307152576807536  0.7609682943094642  0.8804549885279571  1.0000
  H   H129      1.0  0.7570988559354962  0.7410493999990029  0.9512332090567797  1.0000
  H   H130      1.0  0.7798156404126423  0.7092209844973292  0.9161856752984904  1.0000
  H   H131      1.0  0.7398834051221952  0.7431189572418685  0.835116142328114  1.0000
  H   H132      1.0  0.7170515901031002  0.7754419213021209  0.8705693053241372  1.0000
  C   C199      1.0  0.7437840703496171  0.8901563322811814  0.8211379131144546  1.0000
  C   C200      1.0  0.7528076575053387  0.9093401261615767  0.8005801312821357  1.0000
  C   C201      1.0  0.7678622746971977  0.9025968541646765  0.7734981962153633  1.0000
  C   C202      1.0  0.7743601025006848  0.8766009663729076  0.7671435261415472  1.0000
  C   C203      1.0  0.765508719187247  0.8573534970021472  0.7877942226350476  1.0000
  C   C204      1.0  0.7501305681616867  0.864094885391891  0.8146813264371928  1.0000
  H   H133      1.0  0.7480260918553422  0.9295323419607628  0.8055049974786809  1.0000
  H   H134      1.0  0.7747202865672794  0.9175590342034415  0.7577718088799282  1.0000
  H   H135      1.0  0.7703518652075941  0.8372216721669888  0.7827602276413013  1.0000
  H   H136      1.0  0.7433031360384473  0.8492045315426472  0.8304514201138535  1.0000
  C   C205      1.0  0.7711178009699277  0.025588535690419523  0.41012431037077324  1.0000
  C   C206      1.0  0.7974435562451935  0.024536725306932183  0.4013440428881025  1.0000
  C   C207      1.0  0.8109340031938778  0.047286477364671745  0.3993284891632238  1.0000
  C   C208      1.0  0.7980454716454236  0.07130262893559287  0.405228111806168  1.0000
  C   C209      1.0  0.7716399276788841  0.07248294483725533  0.41385070023324244  1.0000
  C   C210      1.0  0.7582431086807889  0.04960078860797834  0.41649807658714016  1.0000
  H   H137      1.0  0.8074895969573397  0.00622428397773378  0.395909600312242  1.0000
  H   H138      1.0  0.8313642774832887  0.04625423816621366  0.39261932529486837  1.0000
  H   H139      1.0  0.761557587702538  0.09092533115703814  0.4186519363968159  1.0000
  H   H140      1.0  0.7378449940684217  0.05049197682517659  0.42329551716667574  1.0000
  C   C211      1.0  0.8019742250139041  0.8931857580276895  0.5002159226871244  1.0000
  C   C212      1.0  0.8136710218344099  0.8924431601087658  0.5301461784278187  1.0000
  C   C213      1.0  0.7986800994955384  0.8974482516088519  0.557663328134142  1.0000
  C   C214      1.0  0.7717752994854861  0.9026305955387529  0.5554357084378619  1.0000
  C   C215      1.0  0.7598645858196844  0.9023375307339491  0.525592379397431  1.0000
  C   C216      1.0  0.7750154551344506  0.8980001687574415  0.4979034701445712  1.0000
  H   H141      1.0  0.8344431844927763  0.8888683948330787  0.5320512337710479  1.0000
  H   H142      1.0  0.8080955677027578  0.8978092372681591  0.580492374880893  1.0000
  H   H143      1.0  0.7390107490241052  0.9061041163861437  0.5238452504317929  1.0000
  H   H144      1.0  0.7657786140007126  0.898142435549323  0.47490616074264747  1.0000
  C   C217      1.0  0.6812478513772974  0.8292441665443884  0.07059903963673228  1.0000
  C   C218      1.0  0.65986375951405  0.8467883263902384  0.0751476933019873  1.0000
  C   C219      1.0  0.6500773738223967  0.8618424708119646  0.04940922306250828  1.0000
  C   C220      1.0  0.661259014008546  0.8588584445348137  0.018978270044666123  1.0000
  C   C221      1.0  0.6819934691728803  0.8406279652223339  0.014322345391956759  1.0000
  C   C222      1.0  0.6921654257068028  0.8260965447558064  0.04012456493335437  1.0000
  H   H145      1.0  0.6508755680913292  0.8488388935192972  0.09839930676879152  1.0000
  H   H146      1.0  0.6337357152477227  0.8756301320867889  0.05298747739842935  1.0000
  H   H147      1.0  0.690364629440452  0.8377348839887161  0.9908550468536981  1.0000
  H   H148      1.0  0.7085188811848794  0.8123838695797305  0.03634702597965944  1.0000
  C   C223      1.0  0.7052087664945297  0.8878145838207434  0.25508555037238023  1.0000
  C   C224      1.0  0.7131211713052262  0.8631703968105526  0.26652184022152803  1.0000
  C   C225      1.0  0.7309133306615846  0.8603195907116632  0.29154777634169216  1.0000
  C   C226      1.0  0.7409211332577224  0.8820620384674476  0.3054530772073502  1.0000
  C   C227      1.0  0.733122317197727  0.9068038022636321  0.2940806010187351  1.0000
  C   C228      1.0  0.715275014043496  0.9096625051654823  0.26885378101414287  1.0000
  H   H149      1.0  0.705461661904898  0.8462069010828763  0.2562625682946568  1.0000
  H   H150      1.0  0.7368272996012066  0.8411590971939236  0.30027628652565774  1.0000
  H   H151      1.0  0.7407655976067974  0.9236671293026764  0.3047541683359473  1.0000
  H   H152      1.0  0.7091684621842779  0.9287782659976248  0.2601690065492404  1.0000
  C   C229      1.0  0.9408311733468082  0.7951805265578108  0.5317437168683071  1.0000
  C   C230      1.0  0.9336758517787829  0.795270819956118  0.5640685494396432  1.0000
  C   C231      1.0  0.9528280110724553  0.7940443882351587  0.5876810512706316  1.0000
  C   C232      1.0  0.9792123575403445  0.7927674990089177  0.5790513578409944  1.0000
  C   C233      1.0  0.9863649055344619  0.7923255012866629  0.5467319171989099  1.0000
  C   C234      1.0  0.9672055209267361  0.7935152763757735  0.5231080591610479  1.0000
  H   H153      1.0  0.9133075128280944  0.796206550777175  0.5709096378432014  1.0000
  H   H154      1.0  0.9471507380647102  0.7938393633373613  0.6125112317753771  1.0000
  H   H155      1.0  0.006755752015331407  0.7911326502093459  0.5399392567691855  1.0000
  H   H156      1.0  0.9729236992000977  0.7930954323537299  0.4982977020812915  1.0000
  C   C235      1.0  0.9328402972001636  0.8956653973403171  0.3710899664943309  1.0000
  C   C236      1.0  0.9089278628284192  0.894724472571866  0.387177592807866  1.0000
  C   C237      1.0  0.8884352340946965  0.9127892579913754  0.37976074564588513  1.0000
  C   C238      1.0  0.8915507515931147  0.9313703268225426  0.35563869755370403  1.0000
  C   C239      1.0  0.9156656631488824  0.932602349104627  0.3400651303035562  1.0000
  C   C240      1.0  0.9363387580455746  0.9149287157451033  0.34796786619798026  1.0000
  H   H157      1.0  0.9063478318788374  0.8804462172181389  0.40574047949525893  1.0000
  H   H158      1.0  0.8703702576966498  0.912479095448259  0.39297981705022544  1.0000
  H   H159      1.0  0.9182647294683784  0.9470935212379745  0.3216697308861643  1.0000
  H   H160      1.0  0.9548687931696718  0.915908502482605  0.33569619881867413  1.0000
  C   C241      1.0  0.8399447168505336  0.5729158437459337  0.20228999167602496  1.0000
  C   C242      1.0  0.8299589871567316  0.5492476090595271  0.21144504381432463  1.0000
  C   C243      1.0  0.8305956919279648  0.5285432448306298  0.19005086496700108  1.0000
  C   C244      1.0  0.8413937881566759  0.5314346330648685  0.1595445581659572  1.0000
  C   C245      1.0  0.8514390827302434  0.5550455115501215  0.15046372491871932  1.0000
  C   C246      1.0  0.8507679390768559  0.5757261129277296  0.17179321183686713  1.0000
  H   H161      1.0  0.821375292164198  0.5470952938265145  0.23493694393255907  1.0000
  H   H162      1.0  0.8223183388715937  0.5105705331223709  0.19698544061132825  1.0000
  H   H163      1.0  0.859921569174982  0.5573564922116934  0.12695663293983855  1.0000
  H   H164      1.0  0.8588121665096559  0.5938026056106231  0.16470617617067423  1.0000
  C   C247      1.0  0.8451659106498745  0.6968967524227924  0.023808001503908827  1.0000
  C   C248      1.0  0.8348535625340566  0.693784026266461  0.054517749709380725  1.0000
  C   C249      1.0  0.8504076358000531  0.6826671218330211  0.07881484498555455  1.0000
  C   C250      1.0  0.8762235485716479  0.674213622112242  0.07237063141245234  1.0000
  C   C251      1.0  0.886815698279046  0.6781039359901144  0.041916084114868024  1.0000
  C   C252      1.0  0.8713515070176366  0.6896830431382113  0.017741428168316586  1.0000
  H   H165      1.0  0.8146071871770629  0.6991405809697667  0.059393996092779844  1.0000
  H   H166      1.0  0.8420761128344386  0.6799139910333745  0.10224956697253942  1.0000
  H   H167      1.0  0.906878301240302  0.6718844994785406  0.03694727445249413  1.0000
  H   H168      1.0  0.8796628448560564  0.6927641496955687  0.994388111090138  1.0000
  C   C253      1.0  0.7683933446255719  0.7252838300755958  0.18183108819505764  1.0000
  C   C254      1.0  0.7509620706231039  0.7446758221865443  0.17005122914379653  1.0000
  C   C255      1.0  0.7319983969463939  0.7563394508118932  0.1901223930121973  1.0000
  C   C256      1.0  0.7303543938015448  0.7487283716683054  0.22213896252670515  1.0000
  C   C257      1.0  0.747603529304301  0.7290793667306327  0.23397260229961098  1.0000
  C   C258      1.0  0.766600154264852  0.7172439969217196  0.21374892928071443  1.0000
  H   H169      1.0  0.7522563525995635  0.7509110967801724  0.14539680354235665  1.0000
  H   H170      1.0  0.7186846050947798  0.7712686028412794  0.1806646077610614  1.0000
  H   H171      1.0  0.746260169886588  0.7230135701533087  0.2586869431030293  1.0000
  H   H172      1.0  0.7798039479489977  0.7019698271082273  0.22282819576605142  1.0000
  C   C259      1.0  0.893715269566385  0.7295342104636603  0.2723058131228347  1.0000
  C   C260      1.0  0.8712977484785166  0.7249541822046396  0.290234365025614  1.0000
  C   C261      1.0  0.8650932524728158  0.7399187994585127  0.31731961907544376  1.0000
  C   C262      1.0  0.881605438937381  0.7590158933745559  0.3268258057126355  1.0000
  C   C263      1.0  0.9036209955190451  0.7638892040569918  0.30842910522604083  1.0000
  C   C264      1.0  0.909525735230114  0.7493258803453845  0.2811281313403746  1.0000
  H   H173      1.0  0.8592249604696682  0.7094125594852693  0.28381382131059246  1.0000
  H   H174      1.0  0.8480535471096164  0.7360283431071819  0.3315856064475009  1.0000
  H   H175      1.0  0.916101655568031  0.7789460093832621  0.31515500558647436  1.0000
  H   H176      1.0  0.9266937153473388  0.7531408618205065  0.26703670630260506  1.0000
  C   C265      1.0  0.0702033457983755  0.7801377567564305  0.7491134244493286  1.0000
  C   C266      1.0  0.0934689618111002  0.7648138443184375  0.7510035577282044  1.0000
  C   C267      1.0  0.11754472051223404  0.7762576163004195  0.7491764701064509  1.0000
  C   C268      1.0  0.11840853357377736  0.8031312721738777  0.7462165011613193  1.0000
  C   C269      1.0  0.09512018708970803  0.8184888651111741  0.7446548140977683  1.0000
  C   C270      1.0  0.07103000207478405  0.8069787401698747  0.7456311614206486  1.0000
  H   H177      1.0  0.09291516007854694  0.7440436149217832  0.7536634264942049  1.0000
  H   H178      1.0  0.1354475662441598  0.7643320299510115  0.7507317545218932  1.0000
  H   H179      1.0  0.09573570131055441  0.8392895662749426  0.7424061820239327  1.0000
  H   H180      1.0  0.053131848602143705  0.8189442922999405  0.744446882946668  1.0000
  C   C271      1.0  0.3062670508769966  0.5663840012481391  0.9082335553069646  1.0000
  C   C272      1.0  0.31829417634919416  0.5414208572696393  0.9074413494031969  1.0000
  C   C273      1.0  0.3033122851057608  0.5197562680234804  0.9044832407002875  1.0000
  C   C274      1.0  0.276201209622514  0.5229686705361227  0.9025972783069885  1.0000
  C   C275      1.0  0.2641528201433023  0.5479286768114596  0.9034710402315108  1.0000
  C   C276      1.0  0.279159453450463  0.5696372847632175  0.9062102634266341  1.0000
  H   H181      1.0  0.3392818958049621  0.5388374225254993  0.9088069268571779  1.0000
  H   H182      1.0  0.31280784267956735  0.5006512377946006  0.9033222753373551  1.0000
  H   H183      1.0  0.24317594746958573  0.5505145017750233  0.9019550066996137  1.0000
  H   H184      1.0  0.26976392066571536  0.5888518170994832  0.9067376632898041  1.0000
  C   C277      1.0  0.22414735967660912  0.6902951160408339  0.8266015709576705  1.0000
  C   C278      1.0  0.207450478583994  0.7098321008879549  0.8134281709829776  1.0000
  C   C279      1.0  0.20725452518534876  0.714313523004167  0.7803249555621287  1.0000
  C   C280      1.0  0.22325550270803052  0.6987733175185865  0.7603210616166197  1.0000
  C   C281      1.0  0.23969803189731576  0.6790410480172986  0.7734811433592698  1.0000
  C   C282      1.0  0.2404195041156159  0.6750369430930628  0.806607735014144  1.0000
  H   H185      1.0  0.19476384001717162  0.7216287646461993  0.8288036129180973  1.0000
  H   H186      1.0  0.19439293181446904  0.7294696686706295  0.7702424454269541  1.0000
  H   H187      1.0  0.2519554210543413  0.666889565590612  0.7580117455357597  1.0000
  H   H188      1.0  0.2530429936493475  0.6596852029164322  0.8165792166372174  1.0000
  C   C283      1.0  0.3378020195997878  0.0381794632472483  0.7790665446473767  1.0000
  C   C284      1.0  0.3149157230806064  0.03388689513797005  0.7627901313592154  1.0000
  C   C285      1.0  0.30310690494664505  0.053524734626810844  0.7437485389426036  1.0000
  C   C286      1.0  0.3143595755349399  0.0773959503925802  0.7404696780347823  1.0000
  C   C287      1.0  0.3371871030730977  0.08180866294520898  0.756879699445731  1.0000
  C   C288      1.0  0.3486869409614072  0.06233867577780705  0.7765980944079633  1.0000
  H   H189      1.0  0.3061117075027181  0.015495359531571218  0.7651838153312254  1.0000
  H   H190      1.0  0.28537530275835804  0.050057256892151354  0.7312063932144169  1.0000
  H   H191      1.0  0.3461476937156743  0.10002737909970504  0.7541107448834127  1.0000
  H   H192      1.0  0.36657876011434104  0.06556288989609249  0.7889169037718328  1.0000
  C   C289      1.0  0.2911682098760537  0.8738879077932317  0.7497117394681757  1.0000
  C   C290      1.0  0.31004981362618983  0.8637119643335003  0.7284186559025168  1.0000
  C   C291      1.0  0.3041960938728941  0.8436470254384796  0.7080481642918441  1.0000
  C   C292      1.0  0.27943899396775596  0.8336759222048905  0.708863821075818  1.0000
  C   C293      1.0  0.2607489733696768  0.8432769147638274  0.7307720971338321  1.0000
  C   C294      1.0  0.26668204192250816  0.8633023935686859  0.751288872099789  1.0000
  H   H193      1.0  0.329152487949054  0.8712603183810242  0.7275064405587867  1.0000
  H   H194      1.0  0.3187597200324058  0.8360919549335074  0.6912569059319158  1.0000
  H   H195      1.0  0.241562861154859  0.8356614630668097  0.73150025124282  1.0000
  H   H196      1.0  0.25202142061169164  0.8710304378927428  0.767854544484123  1.0000
  C   C295      1.0  0.554520593818434  0.7928513381579304  0.8879673745019367  1.0000
  C   C296      1.0  0.5490946736961468  0.8181568647487305  0.8769164820605793  1.0000
  C   C297      1.0  0.5691129212230474  0.8322523249266407  0.8633559324090234  1.0000
  C   C298      1.0  0.5946935970498806  0.8213977003095515  0.8619263568506653  1.0000
  C   C299      1.0  0.6002095849694262  0.7963774705876441  0.8738306647647618  1.0000
  C   C300      1.0  0.5800651993803871  0.7819734081894758  0.8862824380950254  1.0000
  H   H197      1.0  0.5293735002122165  0.8265846705729533  0.8779635077020013  1.0000
  H   H198      1.0  0.5647860836669081  0.8515997315870488  0.8541058453387042  1.0000
  H   H199      1.0  0.619902929415287  0.7878734302724352  0.8726369660971943  1.0000
  H   H200      1.0  0.5842943414088567  0.7623652048558766  0.894718088996672  1.0000
  C   C301      1.0  0.3919875201882074  0.7509400541756142  0.9324972450908396  1.0000
  C   C302      1.0  0.3675634290547497  0.7410563251698777  0.9377580900556408  1.0000
  C   C303      1.0  0.3560469905390085  0.7267772327020418  0.9142945476077505  1.0000
  C   C304      1.0  0.3686790699372629  0.7224135747267599  0.8850711534369923  1.0000
  C   C305      1.0  0.3929194170557293  0.7328069943287185  0.8792298868097359  1.0000
  C   C306      1.0  0.4046474328705584  0.7470590270456073  0.9030409563961658  1.0000
  H   H201      1.0  0.35737665019812365  0.74448662941331  0.9600265204168295  1.0000
  H   H202      1.0  0.33725770133574107  0.7192664022158334  0.9189925577862962  1.0000
  H   H203      1.0  0.4028302196808149  0.7294963385321601  0.8566449045206805  1.0000
  H   H204      1.0  0.4236012375775687  0.7545928281545821  0.8988455787623394  1.0000
  C   C307      1.0  0.4365928331678228  0.8877518355117675  0.8751267458335144  1.0000
  C   C308      1.0  0.4225090019194989  0.9100913842705111  0.8645288870866628  1.0000
  C   C309      1.0  0.4193220449963095  0.9149989760320159  0.8318099457061591  1.0000
  C   C310      1.0  0.43019037002595134  0.8975878339764852  0.8095039509951313  1.0000
  C   C311      1.0  0.44471239567218446  0.8754542935194374  0.8200733396589746  1.0000
  C   C312      1.0  0.4478656738479152  0.870481068747062  0.8528767865303178  1.0000
  H   H205      1.0  0.4140382620987021  0.9236727175966586  0.8816329176611072  1.0000
  H   H206      1.0  0.408861311143031  0.9325322723363182  0.8238635184448155  1.0000
  H   H207      1.0  0.4532873454222287  0.8619969112651046  0.802879848791311  1.0000
  H   H208      1.0  0.45898957536166063  0.8533145101185555  0.860882298086085  1.0000
  C   C313      1.0  0.03413872588840028  0.7637964020359281  0.39654598067927993  1.0000
  C   C314      1.0  0.056523253228353276  0.7531582747890153  0.38108475161369104  1.0000
  C   C315      1.0  0.08100074170986393  0.7630488735572581  0.3865893130758646  1.0000
  C   C316      1.0  0.08304745163575987  0.7836432924970802  0.40752988872479995  1.0000
  C   C317      1.0  0.0608688752166662  0.7934546019380422  0.4239418401118819  1.0000
  C   C318      1.0  0.03652085314938769  0.7835319319448694  0.418532220448796  1.0000
  H   H209      1.0  0.054876902920806714  0.7377568201597258  0.364172456053317  1.0000
  H   H210      1.0  0.098077186082726  0.7554207260747227  0.3737858885050049  1.0000
  H   H211      1.0  0.06248985333970982  0.8090641607436302  0.44059279315939304  1.0000
  H   H212      1.0  0.01966957384349932  0.7912336717263879  0.4314120761279484  1.0000
  C   C319      1.0  0.1941742405856159  0.7382203788800873  0.5136710712203969  1.0000
  C   C320      1.0  0.2063369408425857  0.7332870487097521  0.5430360615545401  1.0000
  C   C321      1.0  0.1967993410372842  0.7458213987449288  0.5706511113160594  1.0000
  C   C322      1.0  0.17482818015391188  0.7629467344067488  0.5689581786263797  1.0000
  C   C323      1.0  0.16232666341681806  0.7673451649551988  0.5397329347215601  1.0000
  C   C324      1.0  0.17210986412585758  0.7551934796736269  0.5120749561775089  1.0000
  H   H213      1.0  0.22341525286478825  0.7201450150529153  0.5443398965980256  1.0000
  H   H214      1.0  0.20642991227583024  0.7422358937441815  0.5931804451230681  1.0000
  H   H215      1.0  0.14528000289565834  0.7805380802413214  0.5383290770821478  1.0000
  H   H216      1.0  0.1624960437942136  0.7589355262160473  0.48953172470226536  1.0000
  C   C325      1.0  0.3312232731925882  0.5673872205116267  0.21805436382843588  1.0000
  C   C326      1.0  0.31073107032829206  0.5743835952140052  0.2389566951945986  1.0000
  C   C327      1.0  0.29169104202657786  0.5567962089557409  0.24621864840119778  1.0000
  C   C328      1.0  0.2929018437919708  0.532355821683655  0.23220076517940838  1.0000
  C   C329      1.0  0.3136232720045847  0.5252432757843053  0.21170023548107728  1.0000
  C   C330      1.0  0.3327895404808541  0.5427235530622635  0.20467534252243375  1.0000
  H   H217      1.0  0.3096515440734096  0.5933189533676503  0.24965942263644977  1.0000
  H   H218      1.0  0.27579561586873097  0.5623060108445237  0.2623061098424846  1.0000
  H   H219      1.0  0.3146183728358656  0.5064890964350547  0.20074802035354802  1.0000
  H   H220      1.0  0.3482676811803943  0.5375372440376542  0.18792123946403877  1.0000
  C   C331      1.0  0.2706006930870961  0.6580953782365166  0.08265889779977237  1.0000
  C   C332      1.0  0.27067515429380434  0.6457512041424764  0.053100986420088266  1.0000
  C   C333      1.0  0.27649341260004434  0.6594772277469195  0.025020656432573674  1.0000
  C   C334      1.0  0.2813851692423905  0.6857470162977108  0.02645498674142832  1.0000
  C   C335      1.0  0.28061449901606056  0.6981805325989742  0.055888512389005385  1.0000
  C   C336      1.0  0.2756433658926962  0.6842978271611329  0.08396536127439959  1.0000
  H   H221      1.0  0.26695476392086703  0.6254335894231688  0.05203947071565847  1.0000
  H   H222      1.0  0.2772775821727546  0.6497041295585891  0.0023988178167158036  1.0000
  H   H223      1.0  0.2841946369442896  0.7185379231597906  0.057100142045722  1.0000
  H   H224      1.0  0.27525180141550987  0.6940158733096432  0.10662347367316387  1.0000
  C   C337      1.0  0.2630319100571924  0.7041893509910625  0.27595316501442685  1.0000
  C   C338      1.0  0.24662657580482086  0.6839387107129838  0.27112801759689154  1.0000
  C   C339      1.0  0.22219457842543924  0.6840662258152898  0.2866619513406039  1.0000
  C   C340      1.0  0.21408518111092484  0.7045661902373803  0.30667057907043943  1.0000
  C   C341      1.0  0.23016769468665252  0.7251491717207247  0.31044473968849395  1.0000
  C   C342      1.0  0.2546750088754855  0.7247843686461968  0.29551988444326244  1.0000
  H   H225      1.0  0.25298134413128925  0.6679960673905222  0.256010132459014  1.0000
  H   H226      1.0  0.2097558923748  0.6681483205384007  0.28354122914912633  1.0000
  H   H227      1.0  0.2238101197633312  0.7414523417833  0.32491565814509193  1.0000
  H   H228      1.0  0.26713397737032224  0.7406147146144834  0.29916546541432737  1.0000
  C   C343      1.0  0.316225980133469  0.03995965431408521  0.46359081175407024  1.0000
  C   C344      1.0  0.34283259450457015  0.03339154074101791  0.4602982712640207  1.0000
  C   C345      1.0  0.359570012095241  0.05151069928800367  0.44774380521382146  1.0000
  C   C346      1.0  0.3497141279634015  0.07605024310605174  0.4379237728804433  1.0000
  C   C347      1.0  0.3230608326045939  0.08255651265850845  0.44092165894194246  1.0000
  C   C348      1.0  0.3063684898995632  0.06460184914047828  0.4540646258982365  1.0000
  H   H229      1.0  0.35061281084758994  0.014567348052642926  0.46806489032995174  1.0000
  H   H230      1.0  0.380250169022077  0.0465318905201877  0.44571979886120716  1.0000
  H   H231      1.0  0.31526309342054615  0.10127776982191856  0.43282143176264104  1.0000
  H   H232      1.0  0.2857242426893855  0.06964208990360454  0.45641203188314255  1.0000
  C   C349      1.0  0.3508682889634192  0.9223040704527753  0.5711389952454681  1.0000
  C   C350      1.0  0.3428319364369871  0.9484776712669449  0.5687517425028622  1.0000
  C   C351      1.0  0.34339254183073137  0.9642458905997261  0.5955626161962695  1.0000
  C   C352      1.0  0.3517069622428842  0.9538456184357402  0.6249154218593804  1.0000
  C   C353      1.0  0.3598269940831798  0.9276705048740879  0.6274027068527837  1.0000
  C   C354      1.0  0.35950443530015214  0.9119036506353162  0.6004243761494764  1.0000
  H   H233      1.0  0.33618461501250485  0.9566319899604309  0.5462204613962351  1.0000
  H   H234      1.0  0.3370546789785168  0.9844771202284389  0.5935768499243824  1.0000
  H   H235      1.0  0.36656546840458426  0.919640517489202  0.6499502653333579  1.0000
  H   H236      1.0  0.36584700268287246  0.8916629547671158  0.6022518086061297  1.0000
  C   C355      1.0  0.24026769060992811  0.8376998570597203  0.39002428257863514  1.0000
  C   C356      1.0  0.21744562817577498  0.848689948882929  0.4038010993594704  1.0000
  C   C357      1.0  0.21824615360993108  0.8715176846290186  0.4213176372179806  1.0000
  C   C358      1.0  0.2419060433486219  0.8831474214445798  0.4253945178049294  1.0000
  C   C359      1.0  0.26453594896292587  0.8726489472722392  0.4106450211027093  1.0000
  C   C360      1.0  0.26369122109328064  0.8499761780973504  0.392862442177993  1.0000
  H   H237      1.0  0.19921536566830295  0.8395454117723926  0.4010610031720883  1.0000
  H   H238      1.0  0.20063336300033502  0.879830413582589  0.43233359253052855  1.0000
  H   H239      1.0  0.2827047737605749  0.8818324330963769  0.4130764203033866  1.0000
  H   H240      1.0  0.28128385477600437  0.841660068542787  0.3817979615275559  1.0000
  C   C361      1.0  0.5255498211053871  0.8487595155041091  0.24121488863974835  1.0000
  C   C362      1.0  0.522249859871722  0.8224211428146408  0.23678245039068133  1.0000
  C   C363      1.0  0.5430087067570415  0.8062478440649204  0.22552051136231713  1.0000
  C   C364      1.0  0.5671307710489394  0.8163051636429114  0.21845778937408836  1.0000
  C   C365      1.0  0.5707647182353283  0.8424783440222804  0.2236369333594154  1.0000
  C   C366      1.0  0.5499623393612005  0.8586906087470829  0.23512618428419232  1.0000
  H   H241      1.0  0.5037519277078923  0.8144551597407774  0.24247455621176853  1.0000
  H   H242      1.0  0.540382120715749  0.7858965408435679  0.2224280376833912  1.0000
  H   H243      1.0  0.5894224317056246  0.8503313378152589  0.21841287244458513  1.0000
  H   H244      1.0  0.5526147497625823  0.8790301312123397  0.2387085595580894  1.0000
  C   C367      1.0  0.4742360462825297  0.8341717805677071  0.06688963168450224  1.0000
  C   C368      1.0  0.44842837385153705  0.828321623814267  0.06170835722346357  1.0000
  C   C369      1.0  0.4289383600273351  0.8356088459743856  0.08395131344515276  1.0000
  C   C370      1.0  0.4353242570177851  0.8479488746182016  0.112038664595214  1.0000
  C   C371      1.0  0.4612756270288329  0.853122039215901  0.11776564263988154  1.0000
  C   C372      1.0  0.4806824000237486  0.8464756504609526  0.09503252254960537  1.0000
  H   H245      1.0  0.4434515741228143  0.817842273940429  0.04080385658507035  1.0000
  H   H246      1.0  0.4089287063194923  0.8312899183156185  0.07968027091215893  1.0000
  H   H247      1.0  0.4662402265664472  0.8629572208235903  0.13930341929637594  1.0000
  H   H248      1.0  0.5005917864722815  0.8512163140178647  0.09911255011538644  1.0000
  C   C373      1.0  0.4266297572499979  0.7429556719651369  0.20119541324888796  1.0000
  C   C374      1.0  0.41597673313180433  0.7571506825893087  0.1754279400815758  1.0000
  C   C375      1.0  0.39853270239718797  0.7458228182295268  0.15508372683729238  1.0000
  C   C376      1.0  0.39128655124569756  0.7205012392425338  0.1609097149690686  1.0000
  C   C377      1.0  0.40205400079575154  0.7063005787048009  0.1865795855853488  1.0000
  C   C378      1.0  0.4199166814582069  0.7174417988809851  0.20652903402684575  1.0000
  H   H249      1.0  0.4212135701591329  0.7768394432139885  0.17109755001350446  1.0000
  H   H250      1.0  0.3901882529416484  0.7569395460901295  0.13534108484087934  1.0000
  H   H251      1.0  0.3969533003789828  0.6865755246212836  0.1907909596767515  1.0000
  H   H252      1.0  0.42820564822663043  0.7064081814024403  0.2264031935640348  1.0000
  C   C379      1.0  0.3680769687267576  0.8710030858920602  0.3173512957050707  1.0000
  C   C380      1.0  0.3877028204406769  0.888614060994539  0.31746736262919056  1.0000
  C   C381      1.0  0.3860742988606617  0.9094531644030994  0.3385794447710318  1.0000
  C   C382      1.0  0.36494073304666735  0.9126618403184749  0.3598135985679454  1.0000
  C   C383      1.0  0.3450732461091571  0.8953072355465345  0.359421170554535  1.0000
  C   C384      1.0  0.3467104893325404  0.8744379289936238  0.3382718382213654  1.0000
  H   H253      1.0  0.4042280245362153  0.8860737563481256  0.3013953142245135  1.0000
  H   H254      1.0  0.4014807701807451  0.9228499656595788  0.33874386605255435  1.0000
  H   H255      1.0  0.3285794656060489  0.8977537012746407  0.3755679561970749  1.0000
  H   H256      1.0  0.33139986696381685  0.860916065709611  0.33811300764585145  1.0000
  N   N1        1.0  0.43979852448916656  0.9029743492184674  0.014418227138994988  1.0000
  C   C385      1.0  0.44166048394211094  0.9080217648403897  0.048926595004103346  1.0000
  C   C386      1.0  0.4638792104213693  0.8887598580766836  0.0033582313399713737  1.0000
  C   C387      1.0  0.4365030961656408  0.9276987957437177  0.9965220320805921  1.0000
  C   C388      1.0  0.4171641481738097  0.8873237883764713  0.008746802870105652  1.0000
  H   H257      1.0  0.4443013523598904  0.8896438325748828  0.06293976120781153  1.0000
  H   H258      1.0  0.4237178932862064  0.9184826587505523  0.0582649236149535  1.0000
  H   H259      1.0  0.45849957210063974  0.919806094824433  0.05420561525266954  1.0000
  H   H260      1.0  0.4633839000307379  0.8849937057204783  0.9773073157106446  1.0000
  H   H261      1.0  0.4814495764409577  0.899683675848297  0.00791786210734391  1.0000
  H   H262      1.0  0.4666309519968083  0.8697322364303073  0.015684740614351655  1.0000
  H   H263      1.0  0.4185153287677344  0.9390094583913671  0.004151061035797765  1.0000
  H   H264      1.0  0.43502008570134343  0.9243070265834118  0.9703756542747441  1.0000
  H   H265      1.0  0.4533165780681612  0.9399532635402638  3.326367081402104e-05  1.0000
  H   H266      1.0  0.41534993754008337  0.8828908841400753  0.9829445189423839  1.0000
  H   H267      1.0  0.39863071571474473  0.8975607369554771  0.016569139868411575  1.0000
  H   H268      1.0  0.4188997087945658  0.8685845042218773  0.02209316087006785  1.0000
  N   N2        1.0  0.8849013934558643  0.4456299567145963  0.45856347620494187  1.0000
  C   C389      1.0  0.8667891961615065  0.4635575109363281  0.44081177710857916  1.0000
  C   C390      1.0  0.8719400898325095  0.4214970041499896  0.4659392830929181  1.0000
  C   C391      1.0  0.8925759772373353  0.45754579077297264  0.48863794082459383  1.0000
  C   C392      1.0  0.9083771958782926  0.4396796448800159  0.43879266289268126  1.0000
  H   H269      1.0  0.8759202732001002  0.4819870419570787  0.4347156639080479  1.0000
  H   H270      1.0  0.8487301476337825  0.46834732130723505  0.45489786295823925  1.0000
  H   H271      1.0  0.8608411665533351  0.4548193585917369  0.41798991992088214  1.0000
  H   H272      1.0  0.8851071983934437  0.4076235284942541  0.4794528126417257  1.0000
  H   H273      1.0  0.8540688656585038  0.42515777222399753  0.48074598841085403  1.0000
  H   H274      1.0  0.866105595805335  0.4118195446256668  0.4437281790887736  1.0000
  H   H275      1.0  0.9062639849817896  0.44420303982718246  0.5023711320942429  1.0000
  H   H276      1.0  0.8753823406110944  0.46215881673118986  0.5043145532591676  1.0000
  H   H277      1.0  0.9026056361737441  0.4757358748779181  0.4840643103381009  1.0000
  H   H278      1.0  0.9225641645579805  0.42635179299395326  0.4516196020729451  1.0000
  H   H279      1.0  0.9185994378395371  0.4574208738922018  0.43244320310510603  1.0000
  H   H280      1.0  0.9033572473645002  0.4302455436149282  0.41610035496812203  1.0000
  N   N3        1.0  0.7852647993948744  0.32130209494407186  0.1931062851303314  1.0000
  C   C393      1.0  0.7572508742014136  0.3199369930135167  0.18636589675123108  1.0000
  C   C394      1.0  0.7953371339313519  0.296228696527046  0.20659034203186566  1.0000
  C   C395      1.0  0.7888864960657304  0.3420979016701933  0.21622131472614198  1.0000
  C   C396      1.0  0.7994547238463916  0.32695483105984635  0.16318650433985557  1.0000
  H   H281      1.0  0.7489517972310116  0.3385390912044584  0.1765865794047767  1.0000
  H   H282      1.0  0.7459166841491373  0.31541989756869393  0.2082938397850716  1.0000
  H   H283      1.0  0.7537295148980534  0.3046889108261025  0.16867644693364628  1.0000
  H   H284      1.0  0.7925171741890897  0.280094850716556  0.18985250086152153  1.0000
  H   H285      1.0  0.8164704313439218  0.2963799456284075  0.21193632321823055  1.0000
  H   H286      1.0  0.7848887978721734  0.291345955694218  0.22910139942098195  1.0000
  H   H287      1.0  0.7782985246452536  0.33861418967672663  0.23901758916734742  1.0000
  H   H288      1.0  0.7814216247580729  0.36127616247714756  0.20674247828695055  1.0000
  H   H289      1.0  0.8098266045135399  0.3437908754033338  0.22183638359815075  1.0000
  H   H290      1.0  0.8206894972160438  0.3282233849199025  0.16733813039007825  1.0000
  H   H291      1.0  0.792255905398303  0.34575979680243374  0.1524332836828061  1.0000
  H   H292      1.0  0.7970108947635514  0.3117485008661645  0.14511544085232334  1.0000
  N   N4        1.0  0.03281797358150129  0.845675830726655  0.3518829691226828  1.0000
  C   C397      1.0  0.055843698379352436  0.8612223788085922  0.34726617598580245  1.0000
  C   C398      1.0  0.011591210249886297  0.855654615782068  0.3308210038906417  1.0000
  C   C399      1.0  0.023946248107550527  0.84739727501802  0.38546054019649045  1.0000
  C   C400      1.0  0.03988271236540353  0.818399781503942  0.3440993180498353  1.0000
  H   H293      1.0  0.07219696520190144  0.8540179150088971  0.36288818543347257  1.0000
  H   H294      1.0  0.051226494570228986  0.8818950684426414  0.35312893698739917  1.0000
  H   H295      1.0  0.06313237557031948  0.8603806084199268  0.322199588932631  1.0000
  H   H296      1.0  0.9939548690861055  0.8442612074716833  0.33389804435853165  1.0000
  H   H297      1.0  0.00544462122424183  0.8760988046129121  0.33639129877755536  1.0000
  H   H298      1.0  0.01752501687629704  0.8548721293487009  0.3052643097181793  1.0000
  H   H299      1.0  0.00716207397942159  0.8351839927543377  0.39004925052013434  1.0000
  H   H300      1.0  0.017371397999641047  0.8675622718925378  0.39179771191379814  1.0000
  H   H301      1.0  0.039708856042823815  0.8409201274222047  0.40215467032152435  1.0000
  H   H302      1.0  0.02334706666147346  0.8058043927865257  0.3488040059005129  1.0000
  H   H303      1.0  0.05656161471244325  0.8106352403278433  0.35864923461802456  1.0000
  H   H304      1.0  0.045774367020949835  0.8162021452165343  0.31864705311931224  1.0000
  N   N5        1.0  0.19439740949203302  0.41809460516267394  0.37461404088923905  1.0000
  C   C401      1.0  0.17230087793607618  0.4033806996742314  0.3641121897474061  1.0000
  C   C402      1.0  0.21886614460130205  0.40673358058006337  0.36056537714521625  1.0000
  C   C403      1.0  0.19595683091600155  0.41686347180679995  0.40979196644831445  1.0000
  C   C404      1.0  0.19043043216763672  0.4453139935226406  0.3639168803816761  1.0000
  H   H305      1.0  0.1747470335088726  0.38276880035639804  0.3716674509268014  1.0000
  H   H306      1.0  0.1705685934750391  0.40359993324134513  0.3376431814038238  1.0000
  H   H307      1.0  0.15344717462084417  0.4111892822166643  0.3743319651366833  1.0000
  H   H308      1.0  0.22249693769729884  0.38621157436168013  0.3682941313821162  1.0000
  H   H309      1.0  0.21824229118803473  0.4069904594318935  0.334007462831616  1.0000
  H   H310      1.0  0.23600847921709153  0.4174266100463587  0.36766810611493905  1.0000
  H   H311      1.0  0.2121433783588009  0.4280516785243326  0.4187627749232973  1.0000
  H   H312      1.0  0.19932964411417953  0.39656928365149446  0.4185661778137511  1.0000
  H   H313      1.0  0.17755292545479687  0.4245835208812125  0.42132777566133145  1.0000
  H   H314      1.0  0.2067973504782988  0.4570013713493732  0.37132580163384254  1.0000
  H   H315      1.0  0.17209309203633866  0.4544395218735252  0.3740662944051106  1.0000
  H   H316      1.0  0.1891564750116742  0.446762896116896  0.3374327929325433  1.0000
  N   N6        1.0  0.5033553675294843  0.7752722400505738  0.14229778770702314  1.0000
  C   C405      1.0  0.5176660117070017  0.7561696532252276  0.12181061573278955  1.0000
  C   C406      1.0  0.5009661414012583  0.7644414722907144  0.17491320439883434  1.0000
  C   C407      1.0  0.4770976596688415  0.7811655202604778  0.1291134693235498  1.0000
  C   C408      1.0  0.5177873004790419  0.7991742107698984  0.1432400335387056  1.0000
  H   H317      1.0  0.5074507860880942  0.7378026646181669  0.12082092583911291  1.0000
  H   H318      1.0  0.5376799311140956  0.7514601198210377  0.13085406662560647  1.0000
  H   H319      1.0  0.5196026534151748  0.7636807177770822  0.09692261624667885  1.0000
  H   H320      1.0  0.4913890116942932  0.7787601382320256  0.19144131296284975  1.0000
  H   H321      1.0  0.48900838410730924  0.7471523247750886  0.1754986553344943  1.0000
  H   H322      1.0  0.5203336384916531  0.758583769465039  0.18501610923608017  1.0000
  H   H323      1.0  0.4653439311036692  0.763750710985259  0.12921348493241527  1.0000
  H   H324      1.0  0.47817749534677223  0.7885101075441839  0.10412261774312233  1.0000
  H   H325      1.0  0.46596923640580934  0.7961920024615764  0.14317118528346767  1.0000
  H   H326      1.0  0.5074337320733935  0.8142431346822842  0.15810951261234735  1.0000
  H   H327      1.0  0.5202975938229193  0.8076393993731406  0.11894321770517395  1.0000
  H   H328      1.0  0.5375297746729335  0.7954900960087459  0.15364205635284933  1.0000
  N   N7        1.0  0.8270409099041354  0.4835106063703907  0.04123269152807696  1.0000
  C   C409      1.0  0.8080351692785321  0.49770801697893213  0.062186174595512345  1.0000
  C   C410      1.0  0.829924653902783  0.4980161113180872  0.010903868493742142  1.0000
  C   C411      1.0  0.8177307681117736  0.457646111779156  0.034689302214752304  1.0000
  C   C412      1.0  0.8525523010766877  0.4805582898489869  0.05715035401848123  1.0000
  H   H329      1.0  0.8053001801502476  0.4871449017912424  0.08515557609754709  1.0000
  H   H330      1.0  0.7886342170763575  0.5004929894203002  0.05077384765530968  1.0000
  H   H331      1.0  0.8147134961000321  0.5170854197294832  0.06837413980978879  1.0000
  H   H332      1.0  0.8446503338065524  0.4880919284426173  0.994884131081387  1.0000
  H   H333      1.0  0.8112395779321252  0.4999736567246635  0.9976312001204711  1.0000
  H   H334      1.0  0.8363796821033274  0.5178112831048224  0.015039176120730469  1.0000
  H   H335      1.0  0.8317321418991444  0.44646859883386114  0.01912016998276367  1.0000
  H   H336      1.0  0.7985935188493175  0.45894670452189  0.022486311897637723  1.0000
  H   H337      1.0  0.8155368370993116  0.4460358407901607  0.05701727885286978  1.0000
  H   H338      1.0  0.867615995320288  0.47096600456654875  0.041394103736203114  1.0000
  H   H339      1.0  0.851398755258299  0.4685910604063539  0.07932098026724188  1.0000
  H   H340      1.0  0.8596446142599476  0.49958930447987293  0.06405295601261285  1.0000
  N   N8        1.0  0.35675030709906697  0.8592744083499316  0.8301217591571839  1.0000
  C   C413      1.0  0.33392580577344466  0.8432382735659472  0.8285629038013227  1.0000
  C   C414      1.0  0.36540942656277475  0.8657167768160974  0.7974075662656935  1.0000
  C   C415      1.0  0.3782042037495105  0.8449046425042556  0.847058966903059  1.0000
  C   C416      1.0  0.3494532218989766  0.8833689339864376  0.8473688688699582  1.0000
  H   H341      1.0  0.32680714893005797  0.8380319279676762  0.8528348105227105  1.0000
  H   H342      1.0  0.3387199052528284  0.8249835308715304  0.8155309066537247  1.0000
  H   H343      1.0  0.317456621071627  0.8537486525666311  0.8159019472456959  1.0000
  H   H344      1.0  0.3822641526228925  0.8781867338665219  0.7976876028229303  1.0000
  H   H345      1.0  0.37157961181048255  0.8481179534907596  0.7837404453742921  1.0000
  H   H346      1.0  0.3496921152440716  0.8764213027142529  0.7838411059414218  1.0000
  H   H347      1.0  0.3955900989120826  0.8566876873833612  0.848655951920132  1.0000
  H   H348      1.0  0.38452526111537927  0.826737626352631  0.8345943604086663  1.0000
  H   H349      1.0  0.3724671125686078  0.8396852913691073  0.8718865748555864  1.0000
  H   H350      1.0  0.366242910320208  0.8959990184882549  0.8488400123915554  1.0000
  H   H351      1.0  0.3429045369077651  0.8792844264037275  0.8721974160883895  1.0000
  H   H352      1.0  0.33328346387181973  0.8947231524306711  0.8352075515974068  1.0000
  N   N9        1.0  0.8289505312413209  0.5361137940808836  0.8188585440473851  1.0000
  C   C417      1.0  0.812373083966169  0.5240108861806934  0.8431843454685723  1.0000
  C   C418      1.0  0.8463913949136702  0.5536960423567769  0.834507838587309  1.0000
  C   C419      1.0  0.8122640932030518  0.5509478949044014  0.7958427290060514  1.0000
  C   C420      1.0  0.8447664955544354  0.5157539113120789  0.801967693815183  1.0000
  H   H353      1.0  0.7994114554365069  0.5100558531383457  0.832409993644481  1.0000
  H   H354      1.0  0.7998468649005361  0.5386982977620189  0.8562429820796815  1.0000
  H   H355      1.0  0.8243392603561882  0.5131533399425182  0.86132167081846  1.0000
  H   H356      1.0  0.8590391094861651  0.563433617759378  0.8169161563771412  1.0000
  H   H357      1.0  0.8351304893007936  0.5691011833377715  0.8478943764116003  1.0000
  H   H358      1.0  0.8594263930514291  0.5430270629581827  0.8517959317689213  1.0000
  H   H359      1.0  0.7987736116592988  0.5382207246403966  0.7837516066261648  1.0000
  H   H360      1.0  0.8241246064003332  0.5602840181106717  0.7770520766319109  1.0000
  H   H361      1.0  0.800154612318147  0.5665244331695716  0.8079190441153281  1.0000
  H   H362      1.0  0.8577508481113816  0.5240534695767031  0.7835879375157211  1.0000
  H   H363      1.0  0.8322617520889231  0.5021042038598784  0.7897909288765532  1.0000
  H   H364      1.0  0.8573320128495194  0.503948544713235  0.8187748396787956  1.0000
  N   N10       1.0  0.24598765003049322  0.5698651413456647  0.16193882315611208  1.0000
  C   C421      1.0  0.2727432096590254  0.5788225798456783  0.15980840484858586  1.0000
  C   C422      1.0  0.24654096942919368  0.5418273606935721  0.15549877801438194  1.0000
  C   C423      1.0  0.2294757519554107  0.584155140774912  0.13825011854101704  1.0000
  C   C424      1.0  0.2352126582079135  0.5747681008447658  0.19426538067717553  1.0000
  H   H365      1.0  0.28579299808364206  0.5685369717021316  0.1772747459381839  1.0000
  H   H366      1.0  0.27305682596709574  0.5998250041726918  0.1647222312853181  1.0000
  H   H367      1.0  0.28144267327760564  0.5758318050406966  0.13564847160775761  1.0000
  H   H368      1.0  0.2267789362882853  0.5341971847451715  0.1576825291500083  1.0000
  H   H369      1.0  0.254221397047444  0.5374345302016728  0.13116478325126282  1.0000
  H   H370      1.0  0.25921735278530333  0.5306288910713305  0.1727573699334182  1.0000
  H   H371      1.0  0.20935893344552728  0.5773020377017739  0.1382840767946613  1.0000
  H   H372      1.0  0.23771844718935176  0.5820737321852759  0.1137069467052071  1.0000
  H   H373      1.0  0.22798882605669707  0.6052739088884769  0.1433301863029222  1.0000
  H   H374      1.0  0.2357468009569572  0.5955687141175333  0.20057262538661683  1.0000
  H   H375      1.0  0.24643945316979332  0.5633784135739814  0.21262661452138662  1.0000
  H   H376      1.0  0.21467887332101268  0.5691926278345619  0.19636718800787137  1.0000
  N   N11       1.0  0.0838094165655312  0.7893682184485459  0.6409320472751345  1.0000
  C   C425      1.0  0.08717753000106421  0.7822908120520844  0.6070356432819494  1.0000
  C   C426      1.0  0.06670448847632038  0.771148696194567  0.6570846535843957  1.0000
  C   C427      1.0  0.07190343139909405  0.8159362396739229  0.643102266187327  1.0000
  C   C428      1.0  0.10946659445830975  0.788114754901348  0.6565410793801629  1.0000
  H   H377      1.0  0.10035344031363413  0.7954188848185094  0.5942857740630837  1.0000
  H   H378      1.0  0.06814312403546885  0.7832713911500198  0.5944594447954762  1.0000
  H   H379      1.0  0.09606597788195281  0.7623023179202252  0.6045405090664828  1.0000
  H   H380      1.0  0.04728882682748581  0.7712758461192392  0.645573312331078  1.0000
  H   H381      1.0  0.075351289005537  0.7509813839034081  0.6565343791342146  1.0000
  H   H382      1.0  0.06331004277738606  0.7762723540981338  0.6825343272222023  1.0000
  H   H383      1.0  0.06958865921474322  0.8220285781761287  0.6684034591429997  1.0000
  H   H384      1.0  0.052256876908106875  0.8174366007684852  0.6320146674970699  1.0000
  H   H385      1.0  0.08410451979206957  0.8301268037117221  0.6307215650806585  1.0000
  H   H386      1.0  0.10763088021499057  0.7926166425416119  0.682336547602205  1.0000
  H   H387      1.0  0.12268553989308639  0.8021401504982837  0.6456067403523015  1.0000
  H   H388      1.0  0.11938022798843595  0.7685478265590171  0.6544145049866057  1.0000
  N   N12       1.0  0.3451024772905682  0.3542217096471871  0.1327329155795164  1.0000
  C   C429      1.0  0.3692991601434632  0.36561499489936977  0.12138271966369957  1.0000
  C   C430      1.0  0.34250851251534886  0.3574925178446351  0.16760110387872032  1.0000
  C   C431      1.0  0.34601568736672306  0.3263884794100961  0.12519789139427254  1.0000
  C   C432      1.0  0.3225835680820784  0.3675518951424343  0.11675019099655248  1.0000
  H   H389      1.0  0.37269911111325044  0.3623264572984311  0.0954629710322763  1.0000
  H   H390      1.0  0.38666318155031537  0.35704232026257426  0.13415780827793414  1.0000
  H   H391      1.0  0.3685736138221787  0.38686709480689185  0.12516702964087154  1.0000
  H   H392      1.0  0.32457297355641246  0.3490046498908838  0.17720995544299478  1.0000
  H   H393      1.0  0.3594911939741498  0.34822485462085334  0.1804249425322444  1.0000
  H   H394      1.0  0.34148087345967304  0.37827274354824575  0.17395528771650515  1.0000
  H   H395      1.0  0.3279047721832626  0.31728925879156167  0.1331015932333124  1.0000
  H   H396      1.0  0.3626828451985741  0.3157577934456335  0.1371073013775643  1.0000
  H   H397      1.0  0.3486104747544898  0.32316863138964763  0.09913081943583504  1.0000
  H   H398      1.0  0.30381541561361214  0.36001893492466663  0.12518359598724482  1.0000
  H   H399      1.0  0.32376551759646727  0.3652851954171461  0.09040225599477734  1.0000
  H   H400      1.0  0.3217515502885587  0.38864847797346214  0.12160557331831819  1.0000
  N   N13       1.0  0.8794439060683465  0.2745808918702695  0.5504029540960395  1.0000
  C   C433      1.0  0.8573250756933082  0.28926748681456116  0.5657182546886086  1.0000
  C   C434      1.0  0.898471127441472  0.29269555999948205  0.5379985468422864  1.0000
  C   C435      1.0  0.8697452451407242  0.2594802604661283  0.5238052398851266  1.0000
  C   C436      1.0  0.8921322429147877  0.2568385655185373  0.574151643339072  1.0000
  H   H401      1.0  0.8638937342329785  0.30063626976228425  0.5861953460907462  1.0000
  H   H402      1.0  0.8424990835861129  0.27609456543032096  0.5749607496447104  1.0000
  H   H403      1.0  0.8475053885659335  0.30314234714413896  0.548647661875018  1.0000
  H   H404      1.0  0.9150925380610091  0.28229047378945077  0.5255547276263641  1.0000
  H   H405      1.0  0.8894146883795151  0.3066452316188982  0.5203702101421878  1.0000
  H   H406      1.0  0.9065982082475481  0.3040637374514896  0.5575457456417332  1.0000
  H   H407      1.0  0.8859595010566199  0.24869536378594986  0.5110469194622956  1.0000
  H   H408      1.0  0.8594692982181872  0.2722463146401638  0.5058362935057013  1.0000
  H   H409      1.0  0.8558351724569186  0.245199208289316  0.5324228740711235  1.0000
  H   H410      1.0  0.8782706575176614  0.24282621348556915  0.583850577856211  1.0000
  H   H411      1.0  0.8994764973759023  0.2676832534885963  0.5946970279153907  1.0000
  H   H412      1.0  0.9089919379025397  0.2454848221819312  0.5634943607741809  1.0000
  N   N14       1.0  0.778459304463045  0.9813550037419588  0.5091217717109796  1.0000
  C   C437      1.0  0.7580404677549376  0.9681707234463764  0.4921337816806672  1.0000
  C   C438      1.0  0.7675582686861834  0.991984478427619  0.5393186916261509  1.0000
  C   C439      1.0  0.7877783614460045  0.0025205643846895054  0.48877803485384663  1.0000
  C   C440      1.0  0.8004468298572867  0.9626441606611457  0.5162587657751178  1.0000
  H   H413      1.0  0.7496730735896338  0.9528720820199476  0.5072805769814213  1.0000
  H   H414      1.0  0.7658545120149566  0.9588871392016233  0.46994225981498766  1.0000
  H   H415      1.0  0.7417140183166123  0.9819689769019765  0.48489650167194653  1.0000
  H   H416      1.0  0.760435156949494  0.9763396909259513  0.5551924924027469  1.0000
  H   H417      1.0  0.7824269333518552  0.002006891907324837  0.5529056988372084  1.0000
  H   H418      1.0  0.7508065246144597  0.006079745423646976  0.5349157254712534  1.0000
  H   H419      1.0  0.7962377456772884  0.9949532981859852  0.46594097995554135  1.0000
  H   H420      1.0  0.8030377268060176  0.013115357130686789  0.500823577033618  1.0000
  H   H421      1.0  0.7715614980392365  0.01672936421312987  0.4823515420783986  1.0000
  H   H422      1.0  0.8083707969217329  0.9531057792413661  0.49425783214777086  1.0000
  H   H423      1.0  0.794252507660592  0.9471414985816433  0.5327254132359158  1.0000
  H   H424      1.0  0.8166579322696766  0.9720814601851162  0.5279980303403041  1.0000
  N   N15       1.0  0.8744678175631244  0.840805209351044  0.7154645882047213  1.0000
  C   C441      1.0  0.8611087405976998  0.8665160396825062  0.7198759701381556  1.0000
  C   C442      1.0  0.8820036660894637  0.8375949317463977  0.6815771829391288  1.0000
  C   C443      1.0  0.856651510681991  0.8205599692749828  0.7249123152720566  1.0000
  C   C444      1.0  0.898035217283656  0.8386153912248433  0.7353931971023958  1.0000
  H   H425      1.0  0.853695310038619  0.8691398715896018  0.7447224128874765  1.0000
  H   H426      1.0  0.8441345501487635  0.8693678747536949  0.7037838832795279  1.0000
  H   H427      1.0  0.8742971730045331  0.8822784790933398  0.7145988439942821  1.0000
  H   H428      1.0  0.8913540308498848  0.8180117031602315  0.6772160133555571  1.0000
  H   H429      1.0  0.8648375358739143  0.8402011422379682  0.6656705895488028  1.0000
  H   H430      1.0  0.8960994612236939  0.8520306801641799  0.673980415278694  1.0000
  H   H431      1.0  0.8660152404067294  0.8008324451079473  0.7215636853551383  1.0000
  H   H432      1.0  0.8385249696001619  0.8220824938400074  0.71051200193272  1.0000
  H   H433      1.0  0.8506622465974784  0.8223304551045012  0.7503734438180333  1.0000
  H   H434      1.0  0.9118284908396765  0.8537228849062068  0.7288684981353624  1.0000
  H   H435      1.0  0.908755939553656  0.819573694764755  0.7323374926141091  1.0000
  H   H436      1.0  0.8931299051419241  0.8408058182337815  0.7611341396554963  1.0000
  N   N16       1.0  0.8547594005449429  0.3467835584827755  0.8151161034987483  1.0000
  C   C445      1.0  0.8489263478570194  0.3386549515646833  0.848232991635256  1.0000
  C   C446      1.0  0.8457861399309787  0.37414553047503457  0.8104415719797635  1.0000
  C   C447      1.0  0.8411598981389298  0.33053909041148266  0.7926595071756928  1.0000
  C   C448      1.0  0.8831659715832141  0.343879889085609  0.8090820902355297  1.0000
  H   H437      1.0  0.858564599746454  0.3508362280342125  0.8657941590195218  1.0000
  H   H438      1.0  0.8557010191009196  0.3181583466553613  0.8527351630962507  1.0000
  H   H439      1.0  0.8275992579154156  0.34043656185647975  0.8534562437981157  1.0000
  H   H440      1.0  0.8495162984945585  0.38085424950300295  0.7856058165550667  1.0000
  H   H441      1.0  0.824583489285877  0.37729946602348646  0.8151166232689808  1.0000
  H   H442      1.0  0.8558047939371388  0.3869782869738791  0.826807406687131  1.0000
  H   H443      1.0  0.8450207976326226  0.33632898977585424  0.7674508844161106  1.0000
  H   H444      1.0  0.8196538557400045  0.33208717089505124  0.7967158452664496  1.0000
  H   H445      1.0  0.8478976425350415  0.3098186612197788  0.7951856330614283  1.0000
  H   H446      1.0  0.8882623875091341  0.3505404933658073  0.784580494738735  1.0000
  H   H447      1.0  0.8906044991512929  0.3233216353906714  0.8113882830233079  1.0000
  H   H448      1.0  0.8941254132238012  0.35556544615871943  0.8259089078099742  1.0000
  N   N17       1.0  0.10412030879095235  0.3448944641255103  0.5660686238820493  1.0000
  C   C449      1.0  0.0764276968082176  0.33886359832086405  0.569180896798977  1.0000
  C   C450      1.0  0.10704374735053879  0.37203474418712157  0.5752738556029362  1.0000
  C   C451      1.0  0.11301882135050945  0.3411728867032285  0.5326918174913734  1.0000
  C   C452      1.0  0.11997535588179642  0.32752608571758807  0.5873463219411761  1.0000
  H   H449      1.0  0.07345854221679882  0.31846288018372826  0.5627266763640524  1.0000
  H   H450      1.0  0.06384306404925022  0.3515896858422055  0.5534415775479193  1.0000
  H   H451      1.0  0.06917441894852705  0.3415735484888808  0.5941527551669545  1.0000
  H   H452      1.0  0.10019515215424213  0.3755502035387158  0.6002220618041207  1.0000
  H   H453      1.0  0.1277438483447233  0.37710347587747584  0.5739957949019476  1.0000
  H   H454      1.0  0.09569708845225366  0.38577458620388305  0.559440242907138  1.0000
  H   H455      1.0  0.13401047773365216  0.3449680600746316  0.5297511532247383  1.0000
  H   H456      1.0  0.10198013994256505  0.35445638012034947  0.5159718791100667  1.0000
  H   H457      1.0  0.11057908021049934  0.3210425178632512  0.5247053058056155  1.0000
  H   H458      1.0  0.14097735601546812  0.33176147333220907  0.586116195034523  1.0000
  H   H459      1.0  0.11848985207136575  0.306866888322618  0.5810420205838299  1.0000
  H   H460      1.0  0.11348175341726163  0.3297061358506474  0.6126214402904311  1.0000
  N   N18       1.0  0.3633886321303382  0.7220999860079178  0.040541158903315555  1.0000
  C   C453      1.0  0.3451975094116546  0.742552980010729  0.027444971817767616  1.0000
  C   C454      1.0  0.37831946016310386  0.7093739864834842  0.014228934433734075  1.0000
  C   C455      1.0  0.34849303881963506  0.7026895907105296  0.057962749072318936  1.0000
  C   C456      1.0  0.3815388851014483  0.7338292312510244  0.06248572238143795  1.0000
  H   H461      1.0  0.33142075782470853  0.7344881537078948  0.010394397341108252  1.0000
  H   H462      1.0  0.3558815229914178  0.7577425052954305  0.014580911851295175  1.0000
  H   H463      1.0  0.3333043945483636  0.7521939362227373  0.04667335587947807  1.0000
  H   H464      1.0  0.39182434806347033  0.6934898912531237  0.02330160460615094  1.0000
  H   H465      1.0  0.36514409164881995  0.7009832954277633  0.9966901231981629  1.0000
  H   H466      1.0  0.3902957755600456  0.7233246372672422  0.001026053374438396  1.0000
  H   H467      1.0  0.3616197173404339  0.6874605957118627  0.06925850835390945  1.0000
  H   H468      1.0  0.335221610096403  0.6929297650359696  0.04181957453608476  1.0000
  H   H469      1.0  0.3363973694001144  0.7116774736825424  0.07750513774959626  1.0000
  H   H470      1.0  0.393378078865203  0.7482704823245441  0.04991796199456178  1.0000
  H   H471      1.0  0.39518966893753465  0.7189086705062758  0.07349775273385285  1.0000
  H   H472      1.0  0.37082231537442506  0.7438595404481368  0.08240253006298184  1.0000
  N   N19       1.0  0.8081696896087508  0.788369558216966  0.8408855602203226  1.0000
  C   C457      1.0  0.8130567661590883  0.8159958659480138  0.8358305482470131  1.0000
  C   C458      1.0  0.832599002020796  0.7723823132266009  0.8357971956304935  1.0000
  C   C459      1.0  0.7883657614327395  0.7806207158902654  0.8181378653357282  1.0000
  C   C460      1.0  0.7985617560212577  0.7844076936153555  0.8738419628697714  1.0000
  H   H473      1.0  0.7951083312249528  0.8285681522600288  0.8402717292945795  1.0000
  H   H474      1.0  0.8196302864064791  0.8199379362140823  0.8109481308578896  1.0000
  H   H475      1.0  0.8283125760935055  0.8223045445641276  0.8521914748233264  1.0000
  H   H476      1.0  0.8293246393606136  0.7513582149936028  0.8385387192425842  1.0000
  H   H477      1.0  0.8408305706965474  0.7753225809300741  0.8114545565883916  1.0000
  H   H478      1.0  0.8478121235132026  0.7769196959314916  0.8532751099804825  1.0000
  H   H479      1.0  0.7849022604857353  0.7596287243249327  0.8206916326093482  1.0000
  H   H480      1.0  0.7945608757322968  0.7840534886996438  0.7930061845580396  1.0000
  H   H481      1.0  0.7693310207318259  0.7915213312632292  0.8220942210331965  1.0000
  H   H482      1.0  0.7947785061099306  0.7637943409518525  0.878449357749594  1.0000
  H   H483      1.0  0.7799175062867948  0.7958187444075024  0.8785257229497471  1.0000
  H   H484      1.0  0.8129567624349683  0.7899837206791454  0.8917625855950381  1.0000
  N   N20       1.0  0.8042315798708116  0.12454791647273078  0.5002445098373177  1.0000
  C   C461      1.0  0.7992411509825252  0.13484880743367822  0.5325740196234108  1.0000
  C   C462      1.0  0.780970244761268  0.1299916236520131  0.48035256688193473  1.0000
  C   C463      1.0  0.810045569157905  0.0962989372382157  0.5023051989802874  1.0000
  C   C464      1.0  0.8266878033040589  0.13708111150098046  0.4856972637761866  1.0000
  H   H485      1.0  0.7946078480057781  0.15607805394136265  0.5318293934694087  1.0000
  H   H486      1.0  0.8164703910683145  0.131256909903118  0.5482011990215961  1.0000
  H   H487      1.0  0.7825956483273574  0.1256330667655554  0.5444965754983555  1.0000
  H   H488      1.0  0.7840989800699267  0.12245469661512898  0.45579214663504075  1.0000
  H   H489      1.0  0.7635441431271932  0.12104892949566803  0.4906715784469866  1.0000
  H   H490      1.0  0.7761353960349701  0.15113949755501954  0.47809315662760354  1.0000
  H   H491      1.0  0.8140198477693059  0.08795830767987445  0.47822633742794085  1.0000
  H   H492      1.0  0.7934700244988977  0.08628846571023896  0.5132170279247837  1.0000
  H   H493      1.0  0.8273844077387746  0.09151925705818642  0.5173960341138854  1.0000
  H   H494      1.0  0.8309350060915699  0.1298064034425157  0.46116311847865094  1.0000
  H   H495      1.0  0.8446099460405717  0.13334362910981068  0.5000333421759915  1.0000
  H   H496      1.0  0.8229273171582674  0.15845065944834436  0.48388754137338674  1.0000
  N   N21       1.0  0.14646188097157864  0.22096627270596778  0.43624252374346956  1.0000
  C   C465      1.0  0.17081909580480908  0.2174468831564116  0.41732604751810864  1.0000
  C   C466      1.0  0.14882527380460106  0.24240082456523815  0.4587307737836344  1.0000
  C   C467      1.0  0.14186302905514245  0.19694004196670323  0.45431028998664824  1.0000
  C   C468      1.0  0.12436565577561491  0.22721377937575302  0.41467734401657536  1.0000
  H   H497      1.0  0.17002363475748333  0.20124103513043817  0.400272767503243  1.0000
  H   H498      1.0  0.18801532984046204  0.21338097047539256  0.4329160678158363  1.0000
  H   H499      1.0  0.17469918431223638  0.23519596084263256  0.4032282372454393  1.0000
  H   H500      1.0  0.13059816466889984  0.2462341554610292  0.4728936665795464  1.0000
  H   H501      1.0  0.16526605584453669  0.23851716069668505  0.47550175542198564  1.0000
  H   H502      1.0  0.1527145494685991  0.26056303359002864  0.4457326696860094  1.0000
  H   H503      1.0  0.1582370985445476  0.19174778760658945  0.4707729282431439  1.0000
  H   H504      1.0  0.13992512097439594  0.180342417911169  0.4380608109393835  1.0000
  H   H505      1.0  0.12369028877085267  0.19906613864057415  0.46897148494129476  1.0000
  H   H506      1.0  0.12193603308909742  0.2115635136808713  0.39722797628010853  1.0000
  H   H507      1.0  0.127114683844461  0.2454069629608687  0.4008901709204094  1.0000
  H   H508      1.0  0.1057053556490351  0.23035424250248557  0.4282179968288755  1.0000
  N   N22       1.0  0.953027896880324  0.7031947059821853  0.34917131995992945  1.0000
  C   C469      1.0  0.9625855894884443  0.7262318910281886  0.3326031343396234  1.0000
  C   C470      1.0  0.9658289658127097  0.6999136617848708  0.3804639922394202  1.0000
  C   C471      1.0  0.9591787188342986  0.6800954744557415  0.3295429721745513  1.0000
  C   C472      1.0  0.9245224809866041  0.7065727012703528  0.35397165160338806  1.0000
  H   H509      1.0  0.9544075082929019  0.7285516339687337  0.308264322825981  1.0000
  H   H510      1.0  0.9842080199896586  0.7249836427967581  0.3301276920382245  1.0000
  H   H511      1.0  0.9572048781842112  0.7442205404199779  0.3459530784082987  1.0000
  H   H512      1.0  0.9874375455225315  0.6979356496190129  0.3778360948644052  1.0000
  H   H513      1.0  0.9614048288673889  0.7169921992418458  0.3958621167975839  1.0000
  H   H514      1.0  0.9593839021768206  0.6825674153416729  0.3935864045084781  1.0000
  H   H515      1.0  0.9522223626270173  0.6623081589460139  0.34123003382742967  1.0000
  H   H516      1.0  0.9805506342138516  0.6770802624081989  0.3253581926515848  1.0000
  H   H517      1.0  0.9497413471404422  0.6820442195999504  0.3057282409255105  1.0000
  H   H518      1.0  0.916728749522735  0.6900141579973009  0.3674563735254218  1.0000
  H   H519      1.0  0.9142509792470247  0.7080450233575888  0.3307924128627918  1.0000
  H   H520      1.0  0.9190091843997722  0.724516669045554  0.367434381138455  1.0000
  N   N23       1.0  0.7121113862844044  0.8957927517507308  0.12373537957726384  1.0000
  C   C473      1.0  0.720716757408575  0.8866006223210309  0.09186256817771583  1.0000
  C   C474      1.0  0.6861614793006308  0.8863342602972585  0.13103688135612085  1.0000
  C   C475      1.0  0.7105993380583808  0.9243686777342125  0.12410402413227861  1.0000
  C   C476      1.0  0.7307489418721587  0.8856997768289863  0.14809062034904572  1.0000
  H   H521      1.0  0.7220101716896835  0.8650443193647772  0.09099167605502781  1.0000
  H   H522      1.0  0.7401941429217821  0.8934632816955672  0.08527228436387828  1.0000
  H   H523      1.0  0.7067536345351481  0.8934426414060098  0.0730100022869713  1.0000
  H   H524      1.0  0.6715124594031893  0.8932680726774921  0.11307948482491985  1.0000
  H   H525      1.0  0.6868836881132724  0.8648471012985862  0.1311907723581088  1.0000
  H   H526      1.0  0.6788650548683537  0.8928951095160028  0.1548691511370121  1.0000
  H   H527      1.0  0.7040318774496277  0.9317058582436037  0.1479329332062237  1.0000
  H   H528      1.0  0.6965274440624118  0.9325740756876458  0.106152849459753  1.0000
  H   H529      1.0  0.7298730734735396  0.9322558159967649  0.11871267903766525  1.0000
  H   H530      1.0  0.7505039805467544  0.8928365030775559  0.14385398164849628  1.0000
  H   H531      1.0  0.7325466933545001  0.864167293866951  0.14813434682353663  1.0000
  H   H532      1.0  0.7243238473987854  0.8916518446785677  0.17255998065028016  1.0000
  N   N24       1.0  0.3146922899229255  0.1331643425112285  0.8271769969421796  1.0000
  C   C477      1.0  0.2972125399799611  0.11927877287854176  0.8064358595961776  1.0000
  C   C478      1.0  0.3417084033719298  0.13005391415476544  0.8148352884409936  1.0000
  C   C479      1.0  0.31356481549983883  0.1223815853029293  0.8599282242586442  1.0000
  C   C480      1.0  0.3063549167618346  0.160953868544375  0.8275379066078576  1.0000
  H   H533      1.0  0.2765404709112865  0.12181157438629302  0.8144383664203605  1.0000
  H   H534      1.0  0.3024985024797418  0.09812655381667452  0.806255664455058  1.0000
  H   H535      1.0  0.29818489169431556  0.12637963014314096  0.7812634252375925  1.0000
  H   H536      1.0  0.35529671825088915  0.14116300908433607  0.8291220662556359  1.0000
  H   H537      1.0  0.34903037996312125  0.10943698676260177  0.81517866084801  1.0000
  H   H538      1.0  0.3431479906590909  0.13738385232629602  0.7898457283468713  1.0000
  H   H539      1.0  0.29345100863383267  0.12435898275708036  0.8700235124586589  1.0000
  H   H540      1.0  0.32659712328302604  0.13244331725800507  0.8761285128767637  1.0000
  H   H541      1.0  0.319814536459739  0.10141821455412194  0.8604447504079368  1.0000
  H   H542      1.0  0.3195838336072342  0.1721746978368725  0.8422081928813597  1.0000
  H   H543      1.0  0.2861993594873526  0.1641887016168113  0.8371167340205681  1.0000
  H   H544      1.0  0.3067845887193067  0.16958889333997854  0.8031261632665199  1.0000
  N   N25       1.0  0.9824844245656743  0.7208632768617984  0.7947327950770268  1.0000
  C   C481      1.0  0.958146033826356  0.70877173971297  0.8042271002688922  1.0000
  C   C482      1.0  0.9911144933318334  0.7114556966446505  0.7629752272758884  1.0000
  C   C483      1.0  0.0029669739444868628  0.7142412970021954  0.8183614205085388  1.0000
  C   C484      1.0  0.9776673908415784  0.7492107123846897  0.7932579006568087  1.0000
  H   H545      1.0  0.9423762254457844  0.7134958060528427  0.7867623321558289  1.0000
  H   H546      1.0  0.950832591793361  0.7157299453230599  0.8279238070344408  1.0000
  H   H547      1.0  0.9609513272729711  0.6873438382106744  0.8057853565794388  1.0000
  H   H548      1.0  0.00929913630028501  0.7204680251144915  0.7549852105036019  1.0000
  H   H549      1.0  0.9950660226501814  0.6901216513731929  0.7630990220952928  1.0000
  H   H550      1.0  0.9761056000332462  0.7163048566870022  0.7445451279745704  1.0000
  H   H551      1.0  0.021549759445494084  0.7231709193146412  0.811658307786724  1.0000
  H   H552      1.0  0.00711497362124125  0.6929629727177854  0.8202328437763222  1.0000
  H   H553      1.0  0.9970997631563182  0.7213632292839643  0.8424831611410852  1.0000
  H   H554      1.0  0.995889310924911  0.7591817849137945  0.7882415340294956  1.0000
  H   H555      1.0  0.9694448436844905  0.7569344237410182  0.8161075169495426  1.0000
  H   H556      1.0  0.9638029503501364  0.754873464379661  0.7739551117226646  1.0000
  N   N26       1.0  0.6270392511840464  0.7561685124216799  0.2827167800553938  1.0000
  C   C485      1.0  0.6345432598369816  0.7506126996384554  0.24929642837598878  1.0000
  C   C486      1.0  0.6172614386307377  0.7326337077733874  0.29785490877110976  1.0000
  C   C487      1.0  0.6063360173453967  0.7771966908129389  0.28344630289548095  1.0000
  C   C488      1.0  0.6500541646054432  0.7641455658622124  0.3001565718431969  1.0000
  H   H557      1.0  0.6504079465496772  0.7351132928661991  0.24766219899691896  1.0000
  H   H558      1.0  0.6419098793095841  0.7679833604536241  0.2373429204178447  1.0000
  H   H559      1.0  0.6176938009020401  0.7447775760947238  0.23514342093453314  1.0000
  H   H560      1.0  0.6114159872891473  0.7361077806914235  0.3231405085456548  1.0000
  H   H561      1.0  0.599935086899427  0.7261080140546278  0.2851595820221141  1.0000
  H   H562      1.0  0.6324155619545475  0.7163959414127511  0.2975779404340115  1.0000
  H   H563      1.0  0.6001328830170183  0.782022640422418  0.30825202120644285  1.0000
  H   H564      1.0  0.5887930543325293  0.7719359063741063  0.27015029812942165  1.0000
  H   H565      1.0  0.6129398733799144  0.7952331571830659  0.2719887310527377  1.0000
  H   H566      1.0  0.6662310548688023  0.7488979067080759  0.29952197769522965  1.0000
  H   H567      1.0  0.6452795332141745  0.7684314439943416  0.32553521283262904  1.0000
  H   H568      1.0  0.6580025725031546  0.7818211118864159  0.2893183624381976  1.0000
  N   N27       1.0  0.3936144431737761  0.48599810654780756  0.23141060373908728  1.0000
  C   C489      1.0  0.3964656057588372  0.5127565716310363  0.21966891404190445  1.0000
  C   C490      1.0  0.3661098580108416  0.47947686494967134  0.22889849927446518  1.0000
  C   C491      1.0  0.4016359731609802  0.4838516126087352  0.2651143564560222  1.0000
  C   C492      1.0  0.4101790814108695  0.46783431553882177  0.21199016457837158  1.0000
  H   H569      1.0  0.38372476718307963  0.5269642339043553  0.23327181920621862  1.0000
  H   H570      1.0  0.391076172395442  0.514871603035762  0.19409314971669253  1.0000
  H   H571      1.0  0.4168613037569121  0.5186010510436616  0.2218271671994728  1.0000
  H   H572      1.0  0.3591848617923085  0.48146887138447636  0.2038793571521738  1.0000
  H   H573      1.0  0.36341666803643263  0.4591377262475998  0.23658139586913998  1.0000
  H   H574      1.0  0.35302859017400545  0.4922883446864323  0.24391339694431463  1.0000
  H   H575      1.0  0.4224025241529538  0.4883443771399415  0.26789000472622154  1.0000
  H   H576      1.0  0.3994126936777207  0.46392500115139296  0.27475205896724086  1.0000
  H   H577      1.0  0.3896234552263402  0.49744674523150734  0.2803829096697855  1.0000
  H   H578      1.0  0.4093308781994569  0.44758377366267516  0.22107786811965566  1.0000
  H   H579      1.0  0.43096033931258604  0.4727507141174501  0.21216178009334447  1.0000
  H   H580      1.0  0.4037526850461477  0.4679162662497828  0.18668773797832733  1.0000
  N   N28       1.0  0.22973131312349784  0.815471799754207  0.5099536334332541  1.0000
  C   C493      1.0  0.20470307098981338  0.8170376516585105  0.5277065506548583  1.0000
  C   C494      1.0  0.23568323348011358  0.7885544770260615  0.49972357491488273  1.0000
  C   C495      1.0  0.2507243682114858  0.8236494350250021  0.5306939450363796  1.0000
  C   C496      1.0  0.22777784912929924  0.8326639408788594  0.481610181220783  1.0000
  H   H581      1.0  0.19937627112509357  0.8371301095647121  0.5354555565875807  1.0000
  H   H582      1.0  0.20547608475721876  0.8044323953270236  0.5494370038799514  1.0000
  H   H583      1.0  0.18848957090836382  0.8107316491966109  0.5127705873088454  1.0000
  H   H584      1.0  0.25420347966863516  0.7866568051142468  0.48576002144448976  1.0000
  H   H585      1.0  0.23737455654610606  0.7749887704620573  0.5204905989196744  1.0000
  H   H586      1.0  0.2200975151921027  0.7816990438347734  0.48427393040431027  1.0000
  H   H587      1.0  0.24683768288350333  0.8439383903865042  0.5386863109386637  1.0000
  H   H588      1.0  0.26984783361122777  0.8227307575036527  0.5179145344997886  1.0000
  H   H589      1.0  0.25267209657900425  0.8110815656778078  0.5523925122960124  1.0000
  H   H590      1.0  0.2116756899156781  0.8274327441724953  0.4658564388630984  1.0000
  H   H591      1.0  0.24601039759702617  0.8315146137043974  0.46696076588492547  1.0000
  H   H592      1.0  0.22393281387113598  0.8533052696203768  0.48826446878523994  1.0000
  N   N29       1.0  0.3890187911204556  0.6258631463662353  0.8596719333807696  1.0000
  C   C497      1.0  0.36348998400204696  0.6282585580689201  0.8437604819265799  1.0000
  C   C498      1.0  0.3864726480861372  0.636565747704843  0.8921133142181324  1.0000
  C   C499      1.0  0.4080599522450524  0.6404428629787792  0.8411033274806597  1.0000
  C   C500      1.0  0.3979037121773739  0.5982478014221282  0.8618042311175073  1.0000
  H   H593      1.0  0.3561388020347486  0.6488345872588341  0.841795753261585  1.0000
  H   H594      1.0  0.34860236687084356  0.6175844361801076  0.8572221572252825  1.0000
  H   H595      1.0  0.3646219463912465  0.62032171949798  0.8192368835869479  1.0000
  H   H596      1.0  0.3797493976434449  0.6574056677234231  0.8913850793564543  1.0000
  H   H597      1.0  0.3721956332547633  0.6260201173104627  0.9067886809238034  1.0000
  H   H598      1.0  0.4053655226585474  0.6351097730307342  0.9048498257805041  1.0000
  H   H599      1.0  0.4275630562805845  0.6391624603550997  0.8524542728253462  1.0000
  H   H600      1.0  0.40169309808589604  0.6613809309891763  0.8392827240775026  1.0000
  H   H601      1.0  0.41044292540642746  0.6330121452547032  0.8164026058780207  1.0000
  H   H602      1.0  0.3999956361585155  0.5894664162119831  0.8377621460593028  1.0000
  H   H603      1.0  0.3837064509183795  0.5869006349343792  0.8756927807738409  1.0000
  H   H604      1.0  0.41706077751717047  0.5956117798991155  0.87385263587167  1.0000
  N   N30       1.0  0.22672010645313692  0.6633576874940881  0.40317324669298804  1.0000
  C   C501      1.0  0.2396312656480786  0.6759502186038775  0.42969147302979516  1.0000
  C   C502      1.0  0.23901712691602983  0.670641910517286  0.37255220065978645  1.0000
  C   C503      1.0  0.19879426491963187  0.6718299330112625  0.40290147440315327  1.0000
  C   C504      1.0  0.2293541862580281  0.6349812392146836  0.40753396478823134  1.0000
  H   H605      1.0  0.23034279883302727  0.6715487521819636  0.45312388586242747  1.0000
  H   H606      1.0  0.23829179262505001  0.6973799420288462  0.42691576019913474  1.0000
  H   H607      1.0  0.2606548785479931  0.6697773147317276  0.43101069324207797  1.0000
  H   H608      1.0  0.22939509711136288  0.6618998998963922  0.3519599049780316  1.0000
  H   H609      1.0  0.2374502782383275  0.6919541575422002  0.36851492412391557  1.0000
  H   H610      1.0  0.26007163051527643  0.6644656000319036  0.37162247618617855  1.0000
  H   H611      1.0  0.18835994827693733  0.6628888510775206  0.38308398363580587  1.0000
  H   H612      1.0  0.19614789320540893  0.6930530192946658  0.39927691748424604  1.0000
  H   H613      1.0  0.18885201220093506  0.6671241698585046  0.4257849981165944  1.0000
  H   H614      1.0  0.21972543368082792  0.6249780492265312  0.3878970042600158  1.0000
  H   H615      1.0  0.2202436721835875  0.6288824535471804  0.43043161287441833  1.0000
  H   H616      1.0  0.25018989824713694  0.627886170690061  0.4077696682255866  1.0000
  N   N31       1.0  0.8979763920367614  0.4917765474389368  0.2293945961645461  1.0000
  C   C505      1.0  0.9005675049245371  0.5200804538201977  0.2289235675705236  1.0000
  C   C506      1.0  0.8949507002778707  0.48272944998250605  0.1964477703037279  1.0000
  C   C507      1.0  0.8748624544332692  0.48555650634637454  0.24867032210104617  1.0000
  C   C508      1.0  0.9214652752262946  0.4785978183145486  0.24346887419957022  1.0000
  H   H617      1.0  0.9023133863587137  0.527756781249096  0.25341640452967346  1.0000
  H   H618      1.0  0.8833032695876852  0.5304602944461881  0.21784829744117046  1.0000
  H   H619      1.0  0.9179740774435637  0.5254727069398595  0.21487469473571086  1.0000
  H   H620      1.0  0.9116692131775543  0.4876674219702335  0.1809109264841745  1.0000
  H   H621      1.0  0.8936421171314675  0.4613819010844711  0.19584151170163858  1.0000
  H   H622      1.0  0.8769729085680688  0.49155844720906716  0.18541139776643126  1.0000
  H   H623      1.0  0.8567541807924994  0.49529480398910614  0.23892550539561352  1.0000
  H   H624      1.0  0.8765902762471969  0.4917612670233183  0.27380897529223425  1.0000
  H   H625      1.0  0.8722100523976878  0.46435433451604147  0.24912001906953918  1.0000
  H   H626      1.0  0.919863987150408  0.4571822407983387  0.24426390988808658  1.0000
  H   H627      1.0  0.9244482164964318  0.48493232708148415  0.26833955132319726  1.0000
  H   H628      1.0  0.9392789266335597  0.48249952160429593  0.22931050693257907  1.0000
  N   N32       1.0  0.7578362208087083  0.7515790827711082  0.041557506172475556  1.0000
  C   C509      1.0  0.7539333708437214  0.7262059272077163  0.027124830692470514  1.0000
  C   C510      1.0  0.7831843891209971  0.750541191523543  0.057968411498881725  1.0000
  C   C511      1.0  0.736664419940058  0.7578280743119844  0.06484482418587496  1.0000
  C   C512      1.0  0.757589533886798  0.7716996471598452  0.01620778629908104  1.0000
  H   H629      1.0  0.7541071028132088  0.7104946198649938  0.045499860312535834  1.0000
  H   H630      1.0  0.7696521463768644  0.7209572787321893  0.009455281639785929  1.0000
  H   H631      1.0  0.7350722760145365  0.726319426993866  0.01431441667408806  1.0000
  H   H632      1.0  0.7839250259648354  0.7357096097706404  0.07751163896355721  1.0000
  H   H633      1.0  0.7995789375150969  0.7455087483345084  0.041123681177882565  1.0000
  H   H634      1.0  0.7869766886616105  0.769431546247647  0.06880425687459271  1.0000
  H   H635      1.0  0.7390803414791661  0.7768086469589444  0.07632707372987516  1.0000
  H   H636      1.0  0.7361336078048797  0.7429685000218708  0.08424574625148774  1.0000
  H   H637      1.0  0.7172348262650954  0.7590773719082348  0.053271997348492785  1.0000
  H   H638      1.0  0.7603946690304786  0.7911689500245558  0.02607412221081251  1.0000
  H   H639      1.0  0.7387279552822088  0.772917532880858  0.003292809809500863  1.0000
  H   H640      1.0  0.7732546734617741  0.7675336410306385  0.9981132448126502  1.0000
  N   N33       1.0  0.9033409674624885  0.8748066977600244  0.5293916796167687  1.0000
  C   C513      1.0  0.8925350647964685  0.8716920739526183  0.4972215285357445  1.0000
  C   C514      1.0  0.9316777178898855  0.8681343251283716  0.528596238570053  1.0000
  C   C515      1.0  0.8905226462223395  0.857471444800167  0.5522198915064359  1.0000
  C   C516      1.0  0.8986747726540161  0.9019154941764443  0.5395529601768784  1.0000
  H   H641      1.0  0.8712358055682499  0.8767361577695998  0.49683589973809805  1.0000
  H   H642      1.0  0.895476751690877  0.8513499364494788  0.48903747614148685  1.0000
  H   H643      1.0  0.9019102776232745  0.8842420609306796  0.4792228292273994  1.0000
  H   H644      1.0  0.9420659700342486  0.8812561336012301  0.5122500365934803  1.0000
  H   H645      1.0  0.9403607411785099  0.8693026798440256  0.5527029906879533  1.0000
  H   H646      1.0  0.9359423982423034  0.848086652571408  0.5200754902220599  1.0000
  H   H647      1.0  0.8933904419775028  0.8368923814869493  0.5450763650256183  1.0000
  H   H648      1.0  0.8691843779874578  0.8621386300866216  0.5537904383342064  1.0000
  H   H649      1.0  0.8983234436942747  0.8591076104156168  0.5766855536529337  1.0000
  H   H650      1.0  0.8774736887357526  0.9072925063203978  0.5418790343107628  1.0000
  H   H651      1.0  0.9071974452311885  0.9156379067385991  0.5222689738242772  1.0000
  H   H652      1.0  0.9074290789829723  0.9050841921302015  0.5632571526063258  1.0000
  N   N34       1.0  0.8540314866177913  0.6098903205066134  0.007826017113455652  1.0000
  C   C517      1.0  0.8743760500668095  0.58969291261922  0.9996528364231534  1.0000
  C   C518      1.0  0.8279935340570287  0.5998018655413322  0.0035389520625699333  1.0000
  C   C519      1.0  0.8567816724401603  0.6326084126292737  0.9866327481229029  1.0000
  C   C520      1.0  0.8570094125771325  0.6175213664225859  0.04137582692033326  1.0000
  H   H653      1.0  0.8942383989136187  0.5968274430884242  0.0026091885490355793  1.0000
  H   H654      1.0  0.872876809281731  0.5837195611570294  0.9743919544187365  1.0000
  H   H655      1.0  0.8728987922598699  0.5721756963801703  0.015041112269807533  1.0000
  H   H656      1.0  0.825070131364175  0.582759112286257  0.01931519860926567  1.0000
  H   H657      1.0  0.8122766308638727  0.6147985134985586  0.009143317075421376  1.0000
  H   H658      1.0  0.8252114553854711  0.593711019239753  0.9785018864678828  1.0000
  H   H659      1.0  0.8418764186469176  0.64839215463335  0.9921661189884918  1.0000
  H   H660      1.0  0.8544374990800392  0.6275767313058647  0.9611826669957477  1.0000
  H   H661      1.0  0.8763163293136506  0.6405946656457147  0.9888657909473092  1.0000
  H   H662      1.0  0.854278874851258  0.6011150641151057  0.05824243536750573  1.0000
  H   H663      1.0  0.8426506549346796  0.6334906686988991  0.048070389281739345  1.0000
  H   H664      1.0  0.8767746362542128  0.624431601496964  0.04568468221930733  1.0000
  N   N35       1.0  0.2694985461240505  0.2664916648587783  0.5591749207809091  1.0000
  C   C521      1.0  0.28343989836733846  0.2582277287501289  0.5885375835954443  1.0000
  C   C522      1.0  0.28156662133766536  0.25276848448961603  0.5315462562535628  1.0000
  C   C523      1.0  0.2710862342172925  0.29470486778258215  0.5544634646276944  1.0000
  C   C524      1.0  0.24185153832772585  0.2602927597467683  0.5621877898724317  1.0000
  H   H665      1.0  0.3045524856744881  0.26181250851612853  0.5868351379691699  1.0000
  H   H666      1.0  0.2818973917354671  0.23717491610800712  0.5934494209070634  1.0000
  H   H667      1.0  0.2753752678159536  0.26867447434348146  0.6098085735963856  1.0000
  H   H668      1.0  0.27169828230157744  0.2586643114355832  0.5088890925283971  1.0000
  H   H669      1.0  0.30255131972063715  0.256729371741265  0.5287113213767184  1.0000
  H   H670      1.0  0.280644198787264  0.2314112943820283  0.5342340739111235  1.0000
  H   H671      1.0  0.26114478261513663  0.3015057562209991  0.5321950174814415  1.0000
  H   H672      1.0  0.2916695084892975  0.30020736133039605  0.5528134126828087  1.0000
  H   H673      1.0  0.2614932159117235  0.30564576244519015  0.5745427460743338  1.0000
  H   H674      1.0  0.23080731346808248  0.26602463150912703  0.5402727967649565  1.0000
  H   H675      1.0  0.23207619838843618  0.27069772272960196  0.5825387009316305  1.0000
  H   H676      1.0  0.23987386562076307  0.23923109480513133  0.5664109866646918  1.0000
  N   N36       1.0  0.36457012685231005  0.050955549056948435  0.666999984307052  1.0000
  C   C525      1.0  0.3686634789205326  0.07867798222122757  0.6718425004298558  1.0000
  C   C526      1.0  0.37154944178124416  0.03614580845314985  0.6963301107494774  1.0000
  C   C527      1.0  0.3811465573462841  0.041132950089165954  0.6402923419524934  1.0000
  C   C528      1.0  0.3368926752232537  0.047773488683058085  0.6595981899883592  1.0000
  H   H677      1.0  0.3892429466114164  0.08188306577209481  0.6779226623191955  1.0000
  H   H678      1.0  0.3561525954825677  0.08664825720257774  0.6916136663242319  1.0000
  H   H679      1.0  0.3637879387775144  0.09051277061853491  0.650155154058019  1.0000
  H   H680      1.0  0.3692457406045019  0.015097225238208889  0.6933583201535074  1.0000
  H   H681      1.0  0.3920629192107457  0.038599865031557545  0.7033043715692322  1.0000
  H   H682      1.0  0.3588489934319987  0.04229892857846784  0.7166643011261146  1.0000
  H   H683      1.0  0.37835385045583037  0.020239749450257527  0.6360790963816976  1.0000
  H   H684      1.0  0.40217161656933426  0.04301262152052776  0.645268677184497  1.0000
  H   H685      1.0  0.37653296639828737  0.05184489178434393  0.6177315138111007  1.0000
  H   H686      1.0  0.3330022984464014  0.027077617199420922  0.6561296852676308  1.0000
  H   H687      1.0  0.3309113606252521  0.058631922126682445  0.637613859941333  1.0000
  H   H688      1.0  0.32383219501692495  0.054978801634373076  0.6792572601501383  1.0000
  N   N37       1.0  0.7218366265417883  0.2472575084429173  0.619029743353805  1.0000
  C   C529      1.0  0.7499717208067678  0.24409093045597055  0.6260226039808775  1.0000
  C   C530      1.0  0.7171351817547603  0.26936511775812716  0.5967911686169097  1.0000
  C   C531      1.0  0.7070691069568905  0.2521277852997642  0.6490277459966828  1.0000
  C   C532      1.0  0.7131480341577073  0.22346514581992952  0.6042751258555261  1.0000
  H   H689      1.0  0.7542983901079142  0.22707954628618507  0.6419502198584977  1.0000
  H   H690      1.0  0.7569948633410876  0.2613296248373436  0.6381388078196157  1.0000
  H   H691      1.0  0.7618947876674806  0.2411698423232249  0.6039228671492992  1.0000
  H   H692      1.0  0.6960973837923653  0.27230017852714766  0.5909475517056173  1.0000
  H   H693      1.0  0.7234697934008212  0.28765813745713514  0.6071306097963398  1.0000
  H   H694      1.0  0.7280296947628793  0.26623971004193625  0.5738997725226577  1.0000
  H   H695      1.0  0.685743152724577  0.254522255826955  0.6447651134584165  1.0000
  H   H696      1.0  0.713127310374646  0.2698613237956299  0.6609658524164895  1.0000
  H   H697      1.0  0.7101895193588862  0.23575343461038972  0.6662930689070885  1.0000
  H   H698      1.0  0.7172099277335807  0.20617913826662346  0.6198954149637419  1.0000
  H   H699      1.0  0.7231777164174287  0.21963403831102574  0.5810687049530147  1.0000
  H   H700      1.0  0.6918305188789531  0.22481980162317214  0.5997595935827396  1.0000
  N   N38       1.0  0.2932121471414376  0.4942406436389457  0.005364430522587282  1.0000
  C   C533      1.0  0.2833506118317206  0.49099020892016476  0.038336629243189035  1.0000
  C   C534      1.0  0.32003700338046515  0.48251738439693603  0.00278632628096509  1.0000
  C   C535      1.0  0.2931990689866951  0.5220830197356896  0.9970439685692697  1.0000
  C   C536      1.0  0.2762435114428395  0.48126714437887236  0.9831517232490222  1.0000
  H   H701      1.0  0.2957850397144053  0.5003153861220616  0.05587994518608452  1.0000
  H   H702      1.0  0.28301831852783715  0.4701791737318724  0.04517728351811612  1.0000
  H   H703      1.0  0.26307704643142976  0.49942496842058487  0.041110061718139024  1.0000
  H   H704      1.0  0.32804004781613333  0.4845496252938897  0.978145787418701  1.0000
  H   H705      1.0  0.3334519264469934  0.4916966523983987  0.019299601983811643  1.0000
  H   H706      1.0  0.3207095143338235  0.4614401099253275  0.008682284956850861  1.0000
  H   H707      1.0  0.30074600930690426  0.5251533869078421  0.9723644951156655  1.0000
  H   H708      1.0  0.305661362947751  0.5326028017827275  0.013427797666807129  1.0000
  H   H709      1.0  0.27318027469798356  0.5314267397945326  0.9980838511839701  1.0000
  H   H710      1.0  0.28291850797296403  0.4837122320534619  0.9580799712689279  1.0000
  H   H711      1.0  0.25572799613168046  0.48928236975398803  0.9845240871982915  1.0000
  H   H712      1.0  0.27622221617558135  0.4601337971298277  0.9882727355422914  1.0000
  N   N39       1.0  0.7971398843711395  0.24278849986310297  0.7816058113652987  1.0000
  C   C537      1.0  0.7986915857972232  0.2251595444649217  0.8096130046257232  1.0000
  C   C538      1.0  0.8043655185393263  0.22815402459058454  0.752500618453365  1.0000
  C   C539      1.0  0.8152058326844195  0.26366433350945284  0.7857817398278992  1.0000
  C   C540      1.0  0.7702890637830081  0.25420560699707945  0.7786316759844096  1.0000
  H   H713      1.0  0.8187539347516892  0.21632737254504592  0.8127299023818867  1.0000
  H   H714      1.0  0.7854647770211668  0.2090552576147375  0.807218849926008  1.0000
  H   H715      1.0  0.7928854992600978  0.235414594111773  0.8319741080864557  1.0000
  H   H716      1.0  0.8041179974545052  0.24090044800714602  0.7309469549779246  1.0000
  H   H717      1.0  0.8242504878547474  0.2187799151192924  0.7543275390648715  1.0000
  H   H718      1.0  0.7908201066641495  0.21254630760165613  0.7483554646724391  1.0000
  H   H719      1.0  0.8152629868954149  0.2768423869294836  0.7646077538010432  1.0000
  H   H720      1.0  0.835578021136227  0.25569906691703836  0.78908708259301  1.0000
  H   H721      1.0  0.8096198350745487  0.2755923432350237  0.8069630610177505  1.0000
  H   H722      1.0  0.7684779661827543  0.26811519301398  0.758250838023696  1.0000
  H   H723      1.0  0.7640598154388605  0.2649150215777597  0.8004719695241805  1.0000
  H   H724      1.0  0.7561318435963069  0.23907662037358376  0.7750863627248096  1.0000
  N   N40       1.0  0.8292697537234565  0.7692206413763055  0.22032361075631307  1.0000
  C   C541      1.0  0.8024829579408833  0.7804863929496951  0.22530141643544674  1.0000
  C   C542      1.0  0.8303070795389229  0.741548379179009  0.2292726051810618  1.0000
  C   C543      1.0  0.8475854893105981  0.7827264628883819  0.24032705257269749  1.0000
  C   C544      1.0  0.8367654783059681  0.771830052495081  0.18634279010459406  1.0000
  H   H725      1.0  0.8009498628458477  0.8014604747518392  0.21907434065025505  1.0000
  H   H726      1.0  0.7959721763443889  0.778326698488754  0.25056259898651473  1.0000
  H   H727      1.0  0.7882719535257573  0.7707734662137699  0.2103473721369209  1.0000
  H   H728      1.0  0.8176472769862984  0.7305864172244865  0.2137536415076468  1.0000
  H   H729      1.0  0.8503926979111172  0.7326372950960093  0.22660880902572492  1.0000
  H   H730      1.0  0.8238137189007518  0.7385040307582305  0.2543641237073427  1.0000
  H   H731      1.0  0.8679911306299868  0.7747306540367659  0.23684908258482773  1.0000
  H   H732      1.0  0.8428076218536036  0.7805591950785152  0.26616907618674535  1.0000
  H   H733      1.0  0.8471959211655541  0.8037765575624533  0.2345622104414965  1.0000
  H   H734      1.0  0.8568032050901376  0.7632208975762519  0.18178557546264315  1.0000
  H   H735      1.0  0.8362757426769377  0.792453074907051  0.17853972320764175  1.0000
  H   H736      1.0  0.8233858341380281  0.7615610505219175  0.1707117823085774  1.0000
  N   N41       1.0  0.6644539986914905  0.8896483263384943  0.7841092708175862  1.0000
  C   C545      1.0  0.6828847094875615  0.906407749439955  0.7677033175251484  1.0000
  C   C546      1.0  0.6782890898339813  0.8650376940754525  0.7936246154428587  1.0000
  C   C547      1.0  0.6429699407649716  0.8842113325054651  0.7625139515262157  1.0000
  C   C548      1.0  0.6536941031753343  0.9028350864973427  0.8128052689274294  1.0000
  H   H737      1.0  0.6730840253324384  0.925037406713622  0.7597195698179072  1.0000
  H   H738      1.0  0.6920085098655193  0.8968411941797336  0.7463936915970231  1.0000
  H   H739      1.0  0.6989840980552219  0.9111737606690951  0.783804625199183  1.0000
  H   H740      1.0  0.6648820968984788  0.8517564445257205  0.8056991646646947  1.0000
  H   H741      1.0  0.687219196361011  0.8547640644934515  0.772727191247423  1.0000
  H   H742      1.0  0.694196856639857  0.8684352649209226  0.8105014382743085  1.0000
  H   H743      1.0  0.6288398160704656  0.8715353329029287  0.7744651665680342  1.0000
  H   H744      1.0  0.6503956429013773  0.8741698624801761  0.7406508409966311  1.0000
  H   H745      1.0  0.6319687613986951  0.902327991158624  0.7549216514073432  1.0000
  H   H746      1.0  0.6398608835275684  0.8906062206927295  0.8259313254879744  1.0000
  H   H747      1.0  0.6430277383151339  0.9214654948504741  0.8066086197099952  1.0000
  H   H748      1.0  0.669440081558329  0.9072341303200709  0.8296284657510835  1.0000
  N   N42       1.0  0.20910864066938772  0.4633253481272644  0.8308167463095767  1.0000
  C   C549      1.0  0.1919783651737822  0.4506003133111336  0.8084840516809272  1.0000
  C   C550      1.0  0.19758360760881374  0.48924029334198466  0.8388998729005166  1.0000
  C   C551      1.0  0.23494510224081994  0.46600119139906304  0.8157020970127672  1.0000
  C   C552      1.0  0.21200141465253602  0.4474665246204803  0.860252101267121  1.0000
  H   H749      1.0  0.19997017008185947  0.4308152686413216  0.8024749249543137  1.0000
  H   H750      1.0  0.18980490732487804  0.46163659662018175  0.7856254056992823  1.0000
  H   H751      1.0  0.17219352001226057  0.4485290850026294  0.8188815985447826  1.0000
  H   H752      1.0  0.21025732466716776  0.49929792708731535  0.8556214074407905  1.0000
  H   H753      1.0  0.1950594363038104  0.5017509680911194  0.8172536587814118  1.0000
  H   H754      1.0  0.1781742813424058  0.48799215188294787  0.8506412748580866  1.0000
  H   H755      1.0  0.24421325775596506  0.44682308371857926  0.8091744156707759  1.0000
  H   H756      1.0  0.24842002859999376  0.4754338723615181  0.8320060993278031  1.0000
  H   H757      1.0  0.2335181935083635  0.47792070665876335  0.7934635142466806  1.0000
  H   H758      1.0  0.19286804332009164  0.44449339120217296  0.8719625100854113  1.0000
  H   H759      1.0  0.22444557575139995  0.4566468868032033  0.877891694298037  1.0000
  H   H760      1.0  0.2212266971769818  0.428022410505666  0.8552048789938421  1.0000
  N   N43       1.0  0.8109206165616405  0.8251035796759483  0.4003262485343949  1.0000
  C   C553      1.0  0.83591984958824  0.8329225106727688  0.4131253265482871  1.0000
  C   C554      1.0  0.7892637748742051  0.8417405978553316  0.4136974257557053  1.0000
  C   C555      1.0  0.8073226169853516  0.7978353908337773  0.40930482955581393  1.0000
  C   C556      1.0  0.8112993671463778  0.8277215290041681  0.3651713163036269  1.0000
  H   H761      1.0  0.852536691797106  0.8205985114841148  0.40351407419729285  1.0000
  H   H762      1.0  0.8363117632245589  0.8314005538164825  0.43962627465141846  1.0000
  H   H763      1.0  0.8395275360018628  0.8533316920388503  0.4067769068622141  1.0000
  H   H764      1.0  0.7700884777800825  0.8364406993271144  0.4044708886791325  1.0000
  H   H765      1.0  0.7886548151253902  0.8405850298032674  0.44022717918132453  1.0000
  H   H766      1.0  0.7912833918528229  0.8623897064706842  0.4071813403683898  1.0000
  H   H767      1.0  0.7887102089167444  0.7911873934502229  0.3999355079040992  1.0000
  H   H768      1.0  0.8070487130910444  0.7951426059970302  0.4356819731419943  1.0000
  H   H769      1.0  0.8234677376320131  0.7848254173870752  0.3996214185819529  1.0000
  H   H770      1.0  0.792523502945884  0.8225049643469808  0.35470803166638815  1.0000
  H   H771      1.0  0.8272902612468751  0.8152144147306347  0.3543367143670272  1.0000
  H   H772      1.0  0.8142908687021895  0.8479730452459178  0.35744573447388217  1.0000
  N   N44       1.0  0.2890108205154545  0.7466565959565925  0.7650731992352949  1.0000
  C   C557      1.0  0.291177673281383  0.7744247023681092  0.7574259660912752  1.0000
  C   C558      1.0  0.2684551440928169  0.7436394039273513  0.7895610469918972  1.0000
  C   C559      1.0  0.31411416367911915  0.7355762949200412  0.7774058430669053  1.0000
  C   C560      1.0  0.28226322006897825  0.7329209841216281  0.7358685064936513  1.0000
  H   H773      1.0  0.30598783613455616  0.7774117299964595  0.7383384293758618  1.0000
  H   H774      1.0  0.29656378066290157  0.785477782532051  0.7786803455995426  1.0000
  H   H775      1.0  0.272428573020292  0.7833886222399407  0.7484613970783803  1.0000
  H   H776      1.0  0.26673942588860644  0.7229651327567415  0.7963949368901284  1.0000
  H   H777      1.0  0.27247924252553485  0.7542962395514484  0.8116598023078739  1.0000
  H   H778      1.0  0.24902976039608857  0.7509152695861724  0.7807812560303834  1.0000
  H   H779      1.0  0.3131219924375425  0.714568421230178  0.7830935558118411  1.0000
  H   H780      1.0  0.3196530542152665  0.7451574161994429  0.7997711177674497  1.0000
  H   H781      1.0  0.33017187265664705  0.7376790572184063  0.7597147903628023  1.0000
  H   H782      1.0  0.2796243777091246  0.7120295847042439  0.740734460191793  1.0000
  H   H783      1.0  0.2974819814741231  0.7343878794465475  0.7169746763026158  1.0000
  H   H784      1.0  0.26368485759327687  0.741116475740766  0.7255556262828724  1.0000
  N   N45       1.0  0.2809893650448098  0.9138757398561748  0.6527921726202127  1.0000
  C   C561      1.0  0.29004752947304724  0.9155193493673279  0.6192728072431766  1.0000
  C   C562      1.0  0.30341068362634194  0.915412567991349  0.6742711745615994  1.0000
  C   C563      1.0  0.2686636377184588  0.8890661058544244  0.6583227923362919  1.0000
  C   C564      1.0  0.26187628716212985  0.9355846717124529  0.6594304571339432  1.0000
  H   H785      1.0  0.27371312379241564  0.9142273555423072  0.6022924828692583  1.0000
  H   H786      1.0  0.3048462186156522  0.8996649805990042  0.6135562716005846  1.0000
  H   H787      1.0  0.29925444371727805  0.9341136892323332  0.6142431840380076  1.0000
  H   H788      1.0  0.3183085478645649  0.8993551095936803  0.6699986047599483  1.0000
  H   H789      1.0  0.3131393869995893  0.9339173238189846  0.6707720634779697  1.0000
  H   H790      1.0  0.2972677641884058  0.9143859773628538  0.6997888274518947  1.0000
  H   H791      1.0  0.26186494446002856  0.8870859163635149  0.6835053774916873  1.0000
  H   H792      1.0  0.28251483480639644  0.8722360970228746  0.6533875865144151  1.0000
  H   H793      1.0  0.2514763471452773  0.8872778279853946  0.6427892705268705  1.0000
  H   H794      1.0  0.27068054903824007  0.9545874073300729  0.6556822067753731  1.0000
  H   H795      1.0  0.2546829903121066  0.9348779306758807  0.6845802610923692  1.0000
  H   H796      1.0  0.24467001621587725  0.935166289898409  0.6436128653251395  1.0000
  N   N46       1.0  0.633623602944077  0.3045645365089344  0.9524253564516079  1.0000
  C   C565      1.0  0.6309706105520929  0.29557617049800566  0.9858487006452972  1.0000
  C   C566      1.0  0.607731848767506  0.313174735729557  0.9400238803110773  1.0000
  C   C567      1.0  0.6447357858791324  0.28312391205627074  0.93281561404535  1.0000
  C   C568      1.0  0.6511325671915799  0.3262467596913643  0.9508224403313968  1.0000
  H   H797      1.0  0.6500882926371457  0.288478532637238  0.9956724340812535  1.0000
  H   H798      1.0  0.6178434564816392  0.27922990886176896  0.9878914748469062  1.0000
  H   H799      1.0  0.6230442577457534  0.311345044702151  0.0015531982609453543  1.0000
  H   H800      1.0  0.598771451245004  0.32955319321443005  0.9539741141545618  1.0000
  H   H801      1.0  0.609017626480348  0.31964173238538446  0.9146265256587865  1.0000
  H   H802      1.0  0.5940813217680303  0.2972165003253204  0.9410482525877171  1.0000
  H   H803      1.0  0.6460063217082419  0.2889073862748472  0.9072100805489784  1.0000
  H   H804      1.0  0.632910876605984  0.2658337694723555  0.9347679348852043  1.0000
  H   H805      1.0  0.6647468011096798  0.2769835585186091  0.9403543721945796  1.0000
  H   H806      1.0  0.6540235731976953  0.3330077768426873  0.9257630260027182  1.0000
  H   H807      1.0  0.6707669948754438  0.3203396309223935  0.960300883642696  1.0000
  H   H808      1.0  0.643290147177282  0.34300354429716834  0.9649814870748905  1.0000
  N   N47       1.0  0.669798941544059  0.2702262447621069  0.2778532109784605  1.0000
  C   C569      1.0  0.6483214042111202  0.2646841248447881  0.3001603135587471  1.0000
  C   C570      1.0  0.6669339971003634  0.25551327819336545  0.24831839274096407  1.0000
  C   C571      1.0  0.6950857209793138  0.26246611342583526  0.29261288083687564  1.0000
  C   C572      1.0  0.668817650701853  0.2981920788049993  0.2700509043354468  1.0000
  H   H809      1.0  0.629021689465783  0.270238990024306  0.28946172509089785  1.0000
  H   H810      1.0  0.6497612168060605  0.275541074244183  0.32273949756675435  1.0000
  H   H811      1.0  0.6485475265226764  0.2437021225594156  0.3064246271805902  1.0000
  H   H812      1.0  0.6828109157608258  0.2593885614996407  0.23100890573408728  1.0000
  H   H813      1.0  0.6676560572019604  0.23429477313843056  0.25309052045662456  1.0000
  H   H814      1.0  0.6481103306497353  0.26084171386217675  0.23640161891641415  1.0000
  H   H815      1.0  0.711673945018082  0.2669789809620754  0.2765537038250713  1.0000
  H   H816      1.0  0.6969166027998155  0.24124985635783291  0.29769040870725877  1.0000
  H   H817      1.0  0.697738773721295  0.27264090858280127  0.31544370251274667  1.0000
  H   H818      1.0  0.6502333678830833  0.304512063259488  0.25804238919612454  1.0000
  H   H819      1.0  0.684972901658064  0.3030048587884597  0.25350099257328346  1.0000
  H   H820      1.0  0.6704492355988997  0.31004479773532123  0.2917882282113619  1.0000
  N   N48       1.0  0.359975708852483  0.33003355209318963  0.9566229585949003  1.0000
  C   C573      1.0  0.3641218495056759  0.30180692159615213  0.9617843681099035  1.0000
  C   C574      1.0  0.38009480744684326  0.34358269846172285  0.9736374866079532  1.0000
  C   C575      1.0  0.33397361446832163  0.33879361108682804  0.9689678607707156  1.0000
  C   C576      1.0  0.3617133136058399  0.33608344952517766  0.9221487915196863  1.0000
  H   H821      1.0  0.34898823639504983  0.2910108103691591  0.9497587686406455  1.0000
  H   H822      1.0  0.3637173461544384  0.2965726081409681  0.9876150413480987  1.0000
  H   H823      1.0  0.3833458959540829  0.29446498286478645  0.9521422643377992  1.0000
  H   H824      1.0  0.37919394119238164  0.3397370437319373  0.9997446746436423  1.0000
  H   H825      1.0  0.4000393673173519  0.33745197503355534  0.9650533742150147  1.0000
  H   H826      1.0  0.3776113959295175  0.3649109986376264  0.9700021225621538  1.0000
  H   H827      1.0  0.3306620944101892  0.3601347540797695  0.9663488176012707  1.0000
  H   H828      1.0  0.3317919246385732  0.3341047862319854  0.9947886502202233  1.0000
  H   H829      1.0  0.3181431983874561  0.32972716193197005  0.9559985204186712  1.0000
  H   H830      1.0  0.3470048275913146  0.3260844430290446  0.9083474924319914  1.0000
  H   H831      1.0  0.3812811760357355  0.33018884108334695  0.9121900021090908  1.0000
  H   H832      1.0  0.3584726199268003  0.35719984899556156  0.9173982217947236  1.0000
  N   N49       1.0  0.20567160205488602  0.7042795348123073  0.9653278644912692  1.0000
  C   C577      1.0  0.19361371022416884  0.6855893635977021  0.9444689839943702  1.0000
  C   C578      1.0  0.18584436627632023  0.7243809902436553  0.9753798014912635  1.0000
  C   C579      1.0  0.22676199520481283  0.7165423910644599  0.947595153417192  1.0000
  C   C580      1.0  0.21664253638039774  0.6906085871730114  0.9937298463981972  1.0000
  H   H833      1.0  0.20816455656776117  0.6702901291620894  0.9362013094421971  1.0000
  H   H834      1.0  0.18547018963048395  0.6952245983850257  0.9225421499923718  1.0000
  H   H835      1.0  0.17757846418221698  0.6758573154492477  0.9569143300940722  1.0000
  H   H836      1.0  0.16957041949384744  0.7158018635460709  0.9887992483423528  1.0000
  H   H837      1.0  0.19440117297885967  0.7387784020835633  0.9911166820043805  1.0000
  H   H838      1.0  0.177336607474917  0.735107879866143  0.9544203636353146  1.0000
  H   H839      1.0  0.23651909107802027  0.7307444553012957  0.9624480812318409  1.0000
  H   H840      1.0  0.21947604384065533  0.7266003598275942  0.9255300267423213  1.0000
  H   H841      1.0  0.24197418980392763  0.7018048745571921  0.9400785966451989  1.0000
  H   H842      1.0  0.22647457754600916  0.7040465101385401  0.009618363456948886  1.0000
  H   H843      1.0  0.23157442385441465  0.6752270545158727  0.986839899050438  1.0000
  H   H844      1.0  0.20134295305517522  0.6812821429965913  0.00804194352089116  1.0000
  N   N50       1.0  0.8564076874876206  0.07979148634981514  0.707807383971655  1.0000
  C   C581      1.0  0.8794290895082013  0.08631908501653385  0.7262389131425793  1.0000
  C   C582      1.0  0.8563480261163173  0.05143588714768322  0.704037028436006  1.0000
  C   C583      1.0  0.8573696767649954  0.09240006408918014  0.6760234364494124  1.0000
  C   C584      1.0  0.832476739637568  0.08911329707186642  0.7249355551490456  1.0000
  H   H845      1.0  0.879920997220928  0.10764217908113105  0.7295035459948286  1.0000
  H   H846      1.0  0.8978765752015988  0.07976060544644344  0.7139431632292276  1.0000
  H   H847      1.0  0.8793633471256563  0.07715111828042981  0.7503844311337596  1.0000
  H   H848      1.0  0.8742840132933597  0.0436153518011051  0.6916339801692282  1.0000
  H   H849      1.0  0.8549475457494085  0.04123867199095677  0.7274748699996  1.0000
  H   H850      1.0  0.8394849974749334  0.045965474761020315  0.6897015104405965  1.0000
  H   H851      1.0  0.8400409531793169  0.08837807126008702  0.6616571714853463  1.0000
  H   H852      1.0  0.874927908482106  0.08551696900393026  0.6621732308891045  1.0000
  H   H853      1.0  0.8578699294262989  0.11377634089694415  0.6780129136641786  1.0000
  H   H854      1.0  0.8146899228818754  0.08467604387908327  0.7116325804327299  1.0000
  H   H855      1.0  0.8319927545024167  0.11045540073673289  0.7283363297553219  1.0000
  H   H856      1.0  0.8310054822288746  0.07988138093434914  0.7489454514056618  1.0000
  N   N51       1.0  0.3449676195092844  0.7648268222455445  0.25036549859119445  1.0000
  C   C585      1.0  0.34263529599382114  0.7434360411587826  0.22773294981048542  1.0000
  C   C586      1.0  0.3379477065467373  0.7897474574115514  0.23421209460315692  1.0000
  C   C587      1.0  0.37208987879333383  0.7648281957511096  0.2617077462642218  1.0000
  C   C588      1.0  0.32716585101173246  0.7613254366646486  0.27781820280169073  1.0000
  H   H857      1.0  0.34781278218514705  0.7243392607895326  0.239167911491529  1.0000
  H   H858      1.0  0.35569341433089496  0.74547135620609  0.20662680565545719  1.0000
  H   H859      1.0  0.3223456623826819  0.7426715737723802  0.21891624719265376  1.0000
  H   H860      1.0  0.3403822739508177  0.8064078998721965  0.25033010214730245  1.0000
  H   H861      1.0  0.35040460566531617  0.7926387575942977  0.2127452683978153  1.0000
  H   H862      1.0  0.3173228826512967  0.790737625379402  0.22631256018575727  1.0000
  H   H863      1.0  0.3747807329714894  0.7812422420142271  0.2780893053018364  1.0000
  H   H864      1.0  0.38608500833949444  0.7666995440985469  0.24150227594205062  1.0000
  H   H865      1.0  0.37787293643475856  0.746539526822553  0.2746295408419702  1.0000
  H   H866      1.0  0.3284213703963049  0.7771366224169121  0.2954037806972705  1.0000
  H   H867      1.0  0.3316433307114559  0.742548251461727  0.2903723898509357  1.0000
  H   H868      1.0  0.3065214910760432  0.7611668314893232  0.2700553126086743  1.0000
  N   N52       1.0  0.9539113496940054  0.2625906686654488  0.3585591014381169  1.0000
  C   C589      1.0  0.9415550192629545  0.28128622230419315  0.3356353769792421  1.0000
  C   C590      1.0  0.9819010768699294  0.2585401644496305  0.3505072873352605  1.0000
  C   C591      1.0  0.9410576342130041  0.23780498463776895  0.35697078276348715  1.0000
  C   C592      1.0  0.9511334894326302  0.2728664074801407  0.3911905107225795  1.0000
  H   H869      1.0  0.920374586876854  0.28476490632292806  0.34086059434471344  1.0000
  H   H870      1.0  0.9435006226469267  0.27425890909012224  0.3107241002376367  1.0000
  H   H871      1.0  0.9506621172949842  0.30032128510661454  0.33638133312660684  1.0000
  H   H872      1.0  0.9919912251308303  0.24478962354711928  0.36749659080246894  1.0000
  H   H873      1.0  0.9848537030401863  0.2507998513185478  0.3260316293844046  1.0000
  H   H874      1.0  0.9919563119903433  0.2770730107612606  0.3514613966930882  1.0000
  H   H875      1.0  0.9498579089090795  0.22321639510526026  0.3739585206681898  1.0000
  H   H876      1.0  0.9425578307262916  0.22951775439667982  0.3326233312419074  1.0000
  H   H877      1.0  0.9199068878610587  0.24036443272417582  0.3631490172476283  1.0000
  H   H878      1.0  0.9303128488995072  0.2762083071555161  0.3981781018192455  1.0000
  H   H879      1.0  0.9605075574368136  0.2916014147213713  0.393162803504408  1.0000
  H   H880      1.0  0.960296966429875  0.25935355753759715  0.4091565476665617  1.0000
  N   N53       1.0  0.4025464089703629  0.8758667355816696  0.4413188798171263  1.0000
  C   C593      1.0  0.41902233426330365  0.884640353853212  0.4146139044742286  1.0000
  C   C594      1.0  0.41704869390554805  0.8554536447480208  0.4598865252954562  1.0000
  C   C595      1.0  0.37865821003361744  0.8654317777639039  0.4285585710260821  1.0000
  C   C596      1.0  0.39535331902630266  0.8979695064659439  0.4622233914841587  1.0000
  H   H881      1.0  0.40885700015474263  0.9005451160991125  0.4007050580835773  1.0000
  H   H882      1.0  0.4240665505290975  0.8687248228805204  0.3976303026918654  1.0000
  H   H883      1.0  0.4374997716364402  0.8921359075142293  0.42325666672677403  1.0000
  H   H884      1.0  0.40514680116188906  0.8486127966657743  0.48036201282653834  1.0000
  H   H885      1.0  0.4225852381336761  0.8384144370524039  0.4448349993404968  1.0000
  H   H886      1.0  0.43524830375927553  0.8626460269781272  0.4698074274514366  1.0000
  H   H887      1.0  0.3659863403387825  0.8580842425212268  0.4479668316132296  1.0000
  H   H888      1.0  0.3831978221331174  0.8493728858512651  0.4116227731365455  1.0000
  H   H889      1.0  0.36690655180990744  0.8806208707147376  0.41539391897619415  1.0000
  H   H890      1.0  0.41280703481302  0.906238257714785  0.4726617048583126  1.0000
  H   H891      1.0  0.382527992279925  0.8921825561198604  0.4823586721631033  1.0000
  H   H892      1.0  0.3846142602946316  0.9138224027287785  0.4488144510430266  1.0000
  N   N54       1.0  0.2619100134040861  0.30855782348191835  0.7603964717182456  1.0000
  C   C597      1.0  0.2663365851213238  0.30364939431522736  0.7260482905063953  1.0000
  C   C598      1.0  0.2701188394600997  0.2851163798961783  0.778977601516405  1.0000
  C   C599      1.0  0.2339433542757176  0.31500686628256414  0.7663639637212657  1.0000
  C   C600      1.0  0.27712378917542346  0.3304635993425419  0.7701952922437829  1.0000
  H   H893      1.0  0.26105811072219454  0.32116519982415115  0.7113299084130761  1.0000
  H   H894      1.0  0.25437251657843535  0.28785044653636865  0.7176247404073082  1.0000
  H   H895      1.0  0.2870875140803597  0.2978100927086088  0.7207885582836436  1.0000
  H   H896      1.0  0.25893603414678035  0.26829907042489815  0.7719574001821835  1.0000
  H   H897      1.0  0.2911586641184211  0.2796356377462929  0.775078483810102  1.0000
  H   H898      1.0  0.26688767055069007  0.28806860350192937  0.8049965506043674  1.0000
  H   H899      1.0  0.2269647660523242  0.3323115402957668  0.7522739969603307  1.0000
  H   H900      1.0  0.2298674185211629  0.319207330960761  0.7919535398920158  1.0000
  H   H901      1.0  0.22183553647619084  0.2988456668826595  0.7596584500439983  1.0000
  H   H902      1.0  0.2739671081365729  0.33489611960230825  0.795930365436531  1.0000
  H   H903      1.0  0.27132397075346626  0.3484044105389125  0.7564733533977671  1.0000
  H   H904      1.0  0.2983815794570652  0.3263170737573675  0.7662279595690455  1.0000
  N   N55       1.0  0.581628062277207  0.824199637353011  0.9773819800182625  1.0000
  C   C601      1.0  0.587642595922983  0.8383304373180468  0.9475879689788553  1.0000
  C   C602      1.0  0.6061872346824704  0.8156590055801871  0.9932984901530773  1.0000
  C   C603      1.0  0.5669099480507341  0.8013671370066096  0.9698742222115853  1.0000
  C   C604      1.0  0.5658297324336291  0.8414741083054396  0.9987439099647152  1.0000
  H   H905      1.0  0.5992415154476505  0.8554197647505981  0.9522664523368037  1.0000
  H   H906      1.0  0.5695947923747325  0.8452773372482846  0.9349683810140094  1.0000
  H   H907      1.0  0.5991892971419149  0.8257451877442401  0.9307437472464054  1.0000
  H   H908      1.0  0.6178142358303123  0.8324212629854635  0.9991224769734963  1.0000
  H   H909      1.0  0.6024863919930654  0.8050320680547306  0.015963775045220396  1.0000
  H   H910      1.0  0.6186447919790983  0.8026877623495325  0.9777529319617269  1.0000
  H   H911      1.0  0.5613162821759416  0.7906345483307088  0.9918117151683161  1.0000
  H   H912      1.0  0.5784487371301195  0.7876334673063219  0.9543137068505865  1.0000
  H   H913      1.0  0.5486740457939335  0.8069941381391962  0.9569248109324762  1.0000
  H   H914      1.0  0.5607341390217553  0.831432700817036  0.02141999548224449  1.0000
  H   H915      1.0  0.5471550763404943  0.8482654851224306  0.9874228456213333  1.0000
  H   H916      1.0  0.576476702316013  0.85886070678587  0.00491986452050952  1.0000
  N   N56       1.0  0.33883105457771656  0.011474233373305776  0.3626056410056334  1.0000
  C   C605      1.0  0.3603921353824395  0.004390298964805028  0.3846126831518715  1.0000
  C   C606      1.0  0.348253435774803  0.0287619785408757  0.3371888756777037  1.0000
  C   C607      1.0  0.3172621879066941  0.024985981518330425  0.38043179521046405  1.0000
  C   C608      1.0  0.32950150265114825  0.987815179118105  0.34821273560283283  1.0000
  H   H917      1.0  0.3536656347486462  0.9924776635311109  0.40507953842919364  1.0000
  H   H918      1.0  0.36889491981762085  0.0218205060962664  0.39448677538764737  1.0000
  H   H919      1.0  0.37640195825201256  0.9928303769454109  0.3724256761189149  1.0000
  H   H920      1.0  0.36464549040673055  0.01917354637211033  0.3234098709353078  1.0000
  H   H921      1.0  0.3325047575432937  0.034512595206957375  0.3200997104607685  1.0000
  H   H922      1.0  0.3554058695252299  0.04684261463828565  0.3473072813262747  1.0000
  H   H923      1.0  0.32352885271452364  0.043235763105424097  0.39090739421412096  1.0000
  H   H924      1.0  0.31016988983369825  0.012826912073946595  0.40049328065705314  1.0000
  H   H925      1.0  0.30034544009393405  0.030077500139153113  0.3648291530551387  1.0000
  H   H926      1.0  0.3133292298441757  0.9923389613395424  0.3312962211914104  1.0000
  H   H927      1.0  0.3222220066501438  0.9743852382219184  0.3667421503398924  1.0000
  H   H928      1.0  0.34541368206272804  0.9768451922053414  0.33505926709382083  1.0000
  N   N57       1.0  0.4856275761492012  0.20595040261197559  0.24084843512167814  1.0000
  C   C609      1.0  0.5069633980962343  0.19084976889355393  0.2245087673400817  1.0000
  C   C610      1.0  0.49564401419813015  0.23012757760729932  0.2529837651405516  1.0000
  C   C611      1.0  0.4753632138234831  0.19071464962045925  0.26779030608671667  1.0000
  C   C612      1.0  0.4644847691790173  0.21222547368175845  0.21799560726097936  1.0000
  H   H929      1.0  0.5150848402683752  0.20210380332592667  0.20418189750958352  1.0000
  H   H930      1.0  0.5000806625263012  0.1726000536947117  0.21468806856112124  1.0000
  H   H931      1.0  0.5232853775164803  0.185643210324791  0.24100081436374124  1.0000
  H   H932      1.0  0.5029552395018398  0.2424251918598319  0.2331493437787204  1.0000
  H   H933      1.0  0.48020194803587857  0.2417771736540235  0.2660769902919187  1.0000
  H   H934      1.0  0.5120495051970133  0.22612109238848202  0.26972420180412754  1.0000
  H   H935      1.0  0.4906662923447145  0.1858005527157293  0.2857706995481127  1.0000
  H   H936      1.0  0.4676810769734604  0.17229572543122884  0.2595437723627835  1.0000
  H   H937      1.0  0.4590103775017004  0.20162696631638685  0.2803046498831295  1.0000
  H   H938      1.0  0.45606912251618387  0.19450178959585118  0.20873239386995388  1.0000
  H   H939      1.0  0.4715218926582787  0.2234589477004014  0.1971362291713624  1.0000
  H   H940      1.0  0.44827175504017036  0.22395717773568172  0.2293544792437869  1.0000
  N   N58       1.0  0.4995740922552446  0.27666354149987366  0.061556806217557096  1.0000
  C   C613      1.0  0.4843123633422294  0.2991815748388575  0.04809549700401616  1.0000
  C   C614      1.0  0.5145626280657327  0.2632733304221919  0.035736788212475945  1.0000
  C   C615      1.0  0.4816669344484401  0.25865104252726046  0.07660228866602765  1.0000
  C   C616      1.0  0.5176386678653225  0.28550746825855544  0.08579328559170527  1.0000
  H   H941      1.0  0.4720312881200636  0.3092833154846795  0.06669721078609325  1.0000
  H   H942      1.0  0.47103644172373005  0.2931478050183306  0.02917035919278454  1.0000
  H   H943      1.0  0.4971367300327373  0.3135273353163361  0.037115336425878054  1.0000
  H   H944      1.0  0.5014457076119812  0.25621848345837767  0.017130166241595024  1.0000
  H   H945      1.0  0.5281162529942987  0.27634040993387765  0.02358581897474865  1.0000
  H   H946      1.0  0.5263708689411553  0.2461939662609272  0.04505900049492273  1.0000
  H   H947      1.0  0.492525074139424  0.24189486304408567  0.08816460405736416  1.0000
  H   H948      1.0  0.46827654075212294  0.25094810799356476  0.058811534047103854  1.0000
  H   H949      1.0  0.469418567173906  0.26841622597039394  0.09541403228366742  1.0000
  H   H950      1.0  0.5296025845290685  0.2689893238772946  0.09629587432128475  1.0000
  H   H951      1.0  0.5068905206267027  0.29523374831974  0.10593671777592742  1.0000
  H   H952      1.0  0.5312840911457704  0.2993906125851797  0.07550327378208779  1.0000
  N   N59       1.0  0.771119867718611  0.07991240602283914  0.3099765822898873  1.0000
  C   C617      1.0  0.7564893676243875  0.09861775013715184  0.33065818069571745  1.0000
  C   C618      1.0  0.7666217734746739  0.05328723652045286  0.32104876630501833  1.0000
  C   C619      1.0  0.7992443364918257  0.08433823005578489  0.31145305934206235  1.0000
  C   C620      1.0  0.762103367981892  0.08354186214535139  0.27679544533875566  1.0000
  H   H953      1.0  0.758968218997154  0.11884973337906918  0.32248071270691075  1.0000
  H   H954      1.0  0.7632740645951928  0.09702338657583018  0.35568263141337103  1.0000
  H   H955      1.0  0.7352166762443314  0.0956548599210037  0.3307245275617962  1.0000
  H   H956      1.0  0.7774516710886118  0.0385887091744539  0.3060989055232996  1.0000
  H   H957      1.0  0.7732085475838081  0.05002087836703107  0.34601569800493365  1.0000
  H   H958      1.0  0.7455938431648219  0.049256018504801435  0.32051566016565386  1.0000
  H   H959      1.0  0.8066592609136354  0.08191193878223721  0.3362270088327491  1.0000
  H   H960      1.0  0.8033527918901904  0.10428511778819408  0.30338013842261996  1.0000
  H   H961      1.0  0.8109677444171631  0.07049651291399245  0.2962514996996322  1.0000
  H   H962      1.0  0.7728037233249235  0.06987604522487148  0.2603648099759572  1.0000
  H   H963      1.0  0.7650217317752507  0.10359178235741952  0.26794615332281496  1.0000
  H   H964      1.0  0.7409337594747382  0.08039051508085306  0.2748994338946331  1.0000
  N   N60       1.0  0.020320110386205847  0.3486265932199177  0.7634318773513782  1.0000
  C   C621      1.0  0.029563168133675433  0.3228150109467716  0.7519657527829855  1.0000
  C   C622      1.0  0.007207387284563049  0.3633636554447283  0.73720850838665  1.0000
  C   C623      1.0  0.04277899477059166  0.3627021580885118  0.7742345123570429  1.0000
  C   C624      1.0  0.0017521252179988345  0.3456463803704147  0.7902069965647031  1.0000
  H   H965      1.0  0.03878633219829486  0.31074141254340354  0.7713127310844727  1.0000
  H   H966      1.0  0.04430259341879195  0.3244285647737646  0.7325662297459017  1.0000
  H   H967      1.0  0.01329574359854413  0.3120030425380536  0.7422787469039831  1.0000
  H   H968      1.0  0.9989095874664268  0.3825197084786262  0.7453318421539736  1.0000
  H   H969      1.0  0.020883142311199032  0.366915061386892  0.7171394964401788  1.0000
  H   H970      1.0  0.9908035407532413  0.3528053022000425  0.7275721006896984  1.0000
  H   H971      1.0  0.05321507113018109  0.35210513286442746  0.7939573466353479  1.0000
  H   H972      1.0  0.036465165718484016  0.3823148184719211  0.7829262974723743  1.0000
  H   H973      1.0  0.05713342251679032  0.36522502533925605  0.7544435837741557  1.0000
  H   H974      1.0  0.9940753262964758  0.3647816592250644  0.799173377217797  1.0000
  H   H975      1.0  0.010919206884802746  0.33467064574058975  0.8105048601543461  1.0000
  H   H976      1.0  0.9845848089470136  0.33513925029576663  0.782680001269632  1.0000
  N   N61       1.0  0.5285643875723789  0.23334214063207045  0.8177626788226097  1.0000
  C   C625      1.0  0.5287636673646927  0.23445045907553833  0.782538642469111  1.0000
  C   C626      1.0  0.5222025345986686  0.259484448533713  0.8302302401616957  1.0000
  C   C627      1.0  0.5544851728327047  0.22394842472830487  0.8294005166272695  1.0000
  C   C628      1.0  0.5087116458026243  0.21565586263657135  0.8290206559717147  1.0000
  H   H977      1.0  0.5334762900809957  0.21504565507325638  0.7721964476357703  1.0000
  H   H978      1.0  0.5434183132075356  0.24778957514026026  0.7732966671060536  1.0000
  H   H979      1.0  0.5093618966968486  0.24155414408613637  0.7732704039389355  1.0000
  H   H980      1.0  0.5370484457025599  0.2732777021499951  0.8228702284174905  1.0000
  H   H981      1.0  0.5030679419352041  0.26754027208977627  0.8214156899416016  1.0000
  H   H982      1.0  0.5211632261483216  0.25916296255025223  0.8567205530605925  1.0000
  H   H983      1.0  0.5546949482331386  0.2226399287681197  0.8559511818465599  1.0000
  H   H984      1.0  0.5698573062834822  0.23724726921180386  0.822091540886664  1.0000
  H   H985      1.0  0.5602421886832237  0.2044053933439043  0.8201162508059662  1.0000
  H   H986      1.0  0.5082327865554774  0.21420041276988397  0.855527228606116  1.0000
  H   H987      1.0  0.5125990070245164  0.195797873599757  0.8196676147940279  1.0000
  H   H988      1.0  0.4888072681252118  0.22254271284925745  0.821279413521426  1.0000
  N   N62       1.0  0.7646329588571615  0.34896501331636215  0.012934646549417117  1.0000
  C   C629      1.0  0.7595534958445116  0.3285554505849249  0.03680912972597672  1.0000
  C   C630      1.0  0.7417450727015357  0.35316852149543015  0.9921035902064442  1.0000
  C   C631      1.0  0.7877148674045474  0.34082954098944757  0.993443367355908  1.0000
  C   C632      1.0  0.7694829927596823  0.37331182493642634  0.02933508510418692  1.0000
  H   H989      1.0  0.7418483476562063  0.33374226257913275  0.0513982053098867  1.0000
  H   H990      1.0  0.7760987745219654  0.3253671506041093  0.05353316231074408  1.0000
  H   H991      1.0  0.7563723226078154  0.3097717989278691  0.025199723750050973  1.0000
  H   H992      1.0  0.7447906873419191  0.3687292304490725  0.9740504898114654  1.0000
  H   H993      1.0  0.737757721417681  0.3352930577295684  0.9789265074926394  1.0000
  H   H994      1.0  0.7238907165479467  0.3588906168279946  0.006145311656716724  1.0000
  H   H995      1.0  0.7922938643055585  0.355931291000933  0.9754145246887334  1.0000
  H   H996      1.0  0.7844928164464177  0.3227714814619913  0.9802368956489255  1.0000
  H   H997      1.0  0.805284087295557  0.3372428498112115  0.008476635978632352  1.0000
  H   H998      1.0  0.773870387763342  0.3889456137746559  0.011900400081771068  1.0000
  H   H999      1.0  0.7863554718902921  0.3708053529059141  0.04575753972090446  1.0000
  H   H1000     1.0  0.7522272383358466  0.3802236189472473  0.043786508201383745  1.0000
  N   N63       1.0  0.33070717764926455  0.1149007359164962  0.5301267374913795  1.0000
  C   C633      1.0  0.3042734409950338  0.12003933403388986  0.5171782020928108  1.0000
  C   C634      1.0  0.3362892915129187  0.086702105080726  0.5336683066003447  1.0000
  C   C635      1.0  0.33226172533765724  0.12728754163545253  0.5615715883085589  1.0000
  C   C636      1.0  0.34998826471744215  0.1256809153237244  0.5079991877427169  1.0000
  H   H1001     1.0  0.29956481414867986  0.14121519434307062  0.5142055771725697  1.0000
  H   H1002     1.0  0.28916127719803836  0.11207709512234659  0.5331227343395779  1.0000
  H   H1003     1.0  0.3024375106822741  0.11117669805579235  0.4933611433294994  1.0000
  H   H1004     1.0  0.3560931873939715  0.08225692101044099  0.5434286755351847  1.0000
  H   H1005     1.0  0.3218805848364084  0.07775484278767256  0.549761175269938  1.0000
  H   H1006     1.0  0.33552713901548786  0.07684037890919337  0.5103014225643339  1.0000
  H   H1007     1.0  0.35216982851646417  0.12464925037936232  0.5717416769772441  1.0000
  H   H1008     1.0  0.3183275869109991  0.11933736468625998  0.579109754367211  1.0000
  H   H1009     1.0  0.3275575565099593  0.14848529458091128  0.5597595871282043  1.0000
  H   H1010     1.0  0.3700888766453823  0.12349355324037459  0.5176214546746374  1.0000
  H   H1011     1.0  0.34545020201095683  0.14661505201063335  0.5033179371687799  1.0000
  H   H1012     1.0  0.35025611812469354  0.11596091324069699  0.4845161594898814  1.0000
  N   N64       1.0  0.32270417540820273  0.2566365247704998  0.3249696746610475  1.0000
  C   C637      1.0  0.32255101980345025  0.22945715431434574  0.31464428545158046  1.0000
  C   C638      1.0  0.3037672144073068  0.2609539498093845  0.35140205112279277  1.0000
  C   C639      1.0  0.3154332108155701  0.2740422719363695  0.29790112787116246  1.0000
  C   C640      1.0  0.34907141288212906  0.2620540602388684  0.33584946152318196  1.0000
  H   H1013     1.0  0.3292955624137813  0.2158094254988614  0.3339831244328439  1.0000
  H   H1014     1.0  0.3355337650962132  0.2258246312257243  0.29362129089263594  1.0000
  H   H1015     1.0  0.30263102749321324  0.22416274629042124  0.308066291715502  1.0000
  H   H1016     1.0  0.28363443892172063  0.2573818670635968  0.34380164794057116  1.0000
  H   H1017     1.0  0.3082514969556827  0.2476152050004022  0.3718619104880132  1.0000
  H   H1018     1.0  0.30366458331470914  0.28109220545777847  0.36033518261041003  1.0000
  H   H1019     1.0  0.31520950209972265  0.2947367273961286  0.30487441120344017  1.0000
  H   H1020     1.0  0.2957038681141949  0.2703192873123539  0.2889361277739779  1.0000
  H   H1021     1.0  0.32945143587671666  0.27134616929917904  0.27758401343861416  1.0000
  H   H1022     1.0  0.3498823795598181  0.2822059004368141  0.3444938376490024  1.0000
  H   H1023     1.0  0.36367677531563497  0.2595015536828726  0.3162103137311346  1.0000
  H   H1024     1.0  0.3555651093395311  0.24878335134294052  0.355707457599041  1.0000
