data_image0
_chemical_formula_structural       S2HFeCSHSCH2C2HCHCHNCSCHCSH3FeHFeHSC3H3C2HCH2SH2C2HC2HFeSCFeS2FeSFeHS2CSH7SH4CFeS2FeS2FeSFeS3HCH3CSHC6HCH3CHSCHCH2C3H2C3H2C6H4CH2CHCH2NC2H6NC4H12NCHC2H3FeC2H8CH3CH2C3HNH4CH3CHFeS2FeS2FeSFeS3HCH3SCH3CFeS2FeS2FeSFeS3HCH2C6H4C8H4C2H2CHC3H2CFeSH2C3H2CHCHFeH2C2HCSH2CNHNC4H13CH3SCH2NCHNH2C2H4SHCHC3H2NH5C3H3CHCHCFeNHCHSNHCHNC2H4SH7CH4SCSH3FeSHFeH2FeCSH2C2HSC4HFeS2FeS2FeSFeS3C2H2CH2C6H4CHCSC2H6CHCNHCFeC6H4SHCH3CSH5C2HNH7SCH2CH2CH2CFeH2FeHCHC2H3SNH3FeH2CNH4SH3C2H5CHCH4CHC2H2CHCSH3SHCH2CH5CNHCSH2S2H3FeS2FeS2FeSFeS3NSHFeH2NHFeHSNHS2NCH5SC2H6C4H2C6H2SH5SCH2NHFeC7H4C2FeH4CH2CH2CNCH2CHSCH2C2H4CHCHCH2CSFeCHCH2CHCSC3H3C2HCH5CH4CH2C2H2CH2C2HFeHCFeS2FeS2FeSFeS6FeCHSFeS2FeSHFeSFeHS2CHSHC6HCH2C4HCFeCH2C6H5CHCHCHC6H5C2SFeH7SH2C2H2SH5CH3C4H5FeSH2NC3H8NCH4SCH2CHCH8C2SHC2H9NH2C2H3NCHCHNHC2HC2H5CSNCHCHCHCH7CFeS2FeS2FeSFeHS3H2SH3FeS2FeS2FeSFeS4C7HC6H7C6H3C7HCH2C6H4C3H4NHC2H3CHC2H5C2H2C4HSH4FeCSNH2CSHSH2FeCH5CH4NC4H12NFeC2H2CH5CH4C2H3NH3CSHSH2CHFeHCH3CH4CFeS2FeS2FeSFeS3FeS2FeSCFeCFeSHSC7H4C4H2C6H4C2H2CH2C6H7SNH5CH2CN2HCHCH3SHCH3C2H5CHCH3CH2SH3SH3CHNCHCH2CH2CH5CH4CHS2FeS2FeS2FeSFeS3HFeS2FeS2FeSFeS3C2HSH7C4H4NHFeHC7H3C6H4C2HC6H4CH2CNSNC4H5C2H5FeCHNH3CH3CHC2H2NC4H13CH7CH2CSCH3C2H2C2H2CHCH4SC2H2SH2CH3FeS2FeS2FeHFeS3FeH2CS2FeS2FeS2FeSFeS3C2HCH2FeHC3H3SC6H5C7H6CHC2SHNHNH4C2HNSHC2HNC4H19CH5FeC2H9SHFeCHNCHCH2CHC3HC2HNH2NHC3HC2SH2FeHCSHCSHCHCHCSCH2C4SFeSFeS2FeS2FeSFeS4FeS2FeS2FeSFeS3CH5C3H2CHC6H4C6H5CHCH2C2H3NH3C3H2C2H2FeHC2H4SCHC2HFeCH2FeHCH5NC4H6CH6CHNHCHC2HCNHSH3NH4CH2CS2CH2CHCHCH4CH3CHSCH3C2HFeCHC2HC2H2NH3C2H3CHS2FeSFe2HFeS2FeSHFeSFe2S3FeS2FeS2FeSFeS3HNSC2HCH4C2H3C7FeH3C6H4SHCHSH2SC6H5CFeSCH2CSH5NCHCH2C2H5CH2CHCN2H2CSH7CHCH3FeCHC2H11CSC2HSHCH2CH5C2NC3HCHCHNHCH2CH3CHSC3SHSFeS2FeS2FeSFeS3FeSCFeS2Fe2S2FeSCSHC2FeHC3H2C6H4C2HC7H4N2C3H11SH2CNH3CHSHCSH4SHSHC3SHC2HCHCH2CHCHSC3H6CSCH2CHCHFeH8FeHSH2CHCH2CHSH5CHSHCH2CHSCHC2S2HCFeCH4C3HNHCFeCH2SHCHCHNC2HC4H2FeH6FeSCHSCHSCFeHCSHCSHFeHFeCH2CH2CHCH4CH3SC6H4SFeHC2H2CHNFeHCSFeSH4FeHCHCH3CH3CH3CNH2CH2C2SHNC3H4C2H4CH2NCHC3SH5FeCSCHS2NCNCFeCSH3CSCSFeSC6H4SH5CSCHCHCH2SH3CH2C2HFeHCHCH9N2FeH2C3H2FeH4CH4CSH3CH3CNH2C2HSCHC2HSCH2C2H2SC2FeHCH2SCH2CH5FeS2FeS2FeSFeS3HFeSHFeS2FeSFeHSHC2H4C6H4C3HNH3C3H3CH2C2HNC2H6CFeCHSH2CNH3CH2CHCHSH3SHNC4H2CH14CH3C2SCHCH5CHCHC2H5FeCH2CHSH2CFeS2FeS2FeSFeS3HFeS2FeS2FeSFeS3H2C2NH3CH2C2NC7H4C6H4C2HCH6C2HCH2CSHC2H2SH2NCHCH3CHC2H3CHCHFeCH4CHCHCNCHCHCH8CH2NH3CH2CH6C5HNH2SH2CH2SHSHFeS2FeSHFeSFeHS2NCFeHC2HC7H2CH4FeH3C2H3C2SHSHCH2NH2C2FeSHFeS2FeSFeS3HCSH3S2H3NCH4C4HCH4CH2CHCH3NC4HCHFeH2C2H2CSH2CH2CH2C4HCH2CH5C2HC3SCSFeCS2HSH3C2H3NHC2HCH2NCH4Fe2CHCH2FeCH3CH3CS2H3FeSH2CHC3H2CSH2CH5NH4NHCHC2HNC2HCSHCH7C
_chemical_formula_sum              "S384 H1536 Fe192 C960 N96"
_cell_length_a       57.8259
_cell_length_b       57.5927
_cell_length_c       89.1822
_cell_angle_alpha    90.2665
_cell_angle_beta     90.2901
_cell_angle_gamma    116.67

_space_group_name_H-M_alt    "P 1"
_space_group_IT_number       1

loop_
  _space_group_symop_operation_xyz
  'x, y, z'

loop_
  _atom_site_type_symbol
  _atom_site_label
  _atom_site_symmetry_multiplicity
  _atom_site_fract_x
  _atom_site_fract_y
  _atom_site_fract_z
  _atom_site_occupancy
  S   S1        1.0  0.31859  0.48824  0.02694  1.0000
  S   S2        1.0  0.26756  0.47685  0.99308  1.0000
  H   H1        1.0  0.25102  0.49231  0.19157  1.0000
  Fe  Fe1       1.0  0.30883  0.49569  0.00322  1.0000
  C   C1        1.0  0.32109  0.42214  0.45125  1.0000
  S   S3        1.0  0.27236  0.48434  0.46359  1.0000
  H   H2        1.0  0.32093  0.39758  0.47683  1.0000
  S   S4        1.0  0.31364  0.47746  0.42774  1.0000
  C   C2        1.0  0.30555  0.40409  0.47564  1.0000
  H   H3        1.0  0.29969  0.45354  0.45819  1.0000
  H   H4        1.0  0.28823  0.38772  0.47055  1.0000
  C   C3        1.0  0.23198  0.48274  0.48080  1.0000
  C   C4        1.0  0.29361  0.43584  0.46517  1.0000
  H   H5        1.0  0.30412  0.40647  0.44548  1.0000
  C   C5        1.0  0.24535  0.49083  0.46715  1.0000
  H   H6        1.0  0.28821  0.44060  0.47633  1.0000
  C   C6        1.0  0.21048  0.48736  0.48412  1.0000
  H   H7        1.0  0.27579  0.42048  0.45990  1.0000
  N   N1        1.0  0.31443  0.42772  0.46638  1.0000
  C   C7        1.0  0.01606  0.44429  0.50710  1.0000
  S   S5        1.0  0.04745  0.46742  0.50081  1.0000
  C   C8        1.0  0.99390  0.44186  0.49916  1.0000
  H   H8        1.0  0.02919  0.42953  0.52568  1.0000
  C   C9        1.0  0.01250  0.42819  0.51948  1.0000
  S   S6        1.0  0.12148  0.47242  0.51261  1.0000
  H   H9        1.0  0.23813  0.47263  0.48886  1.0000
  H   H10       1.0  0.20029  0.48073  0.49458  1.0000
  H   H11       1.0  0.99618  0.45380  0.48944  1.0000
  Fe  Fe2       1.0  0.09065  0.48603  0.50815  1.0000
  H   H12       1.0  0.30018  0.40755  0.48711  1.0000
  Fe  Fe3       1.0  0.10284  0.48704  0.93607  1.0000
  H   H13       1.0  0.02757  0.47364  0.96281  1.0000
  S   S7        1.0  0.06383  0.45154  0.94146  1.0000
  C   C10       1.0  0.02151  0.45411  0.92718  1.0000
  C   C11       1.0  0.03012  0.44204  0.93794  1.0000
  C   C12       1.0  0.01134  0.42155  0.94627  1.0000
  H   H14       1.0  0.01760  0.41193  0.95460  1.0000
  H   H15       1.0  0.03552  0.46962  0.92048  1.0000
  H   H16       1.0  0.18868  0.46999  0.96746  1.0000
  C   C13       1.0  0.22359  0.47356  0.97861  1.0000
  C   C14       1.0  0.20800  0.48323  0.97119  1.0000
  H   H17       1.0  0.20262  0.47540  0.90064  1.0000
  C   C15       1.0  0.24881  0.49033  0.98372  1.0000
  H   H18       1.0  0.21598  0.45291  0.98050  1.0000
  H   H19       1.0  0.01829  0.49095  0.97641  1.0000
  S   S8        1.0  0.14034  0.48713  0.92811  1.0000
  H   H20       1.0  0.19299  0.48409  0.93391  1.0000
  H   H21       1.0  0.21333  0.47030  0.92699  1.0000
  C   C16       1.0  0.99469  0.44568  0.92476  1.0000
  C   C17       1.0  0.21278  0.48888  0.92979  1.0000
  H   H22       1.0  0.18142  0.48839  0.90719  1.0000
  C   C18       1.0  0.20181  0.49356  0.90416  1.0000
  C   C19       1.0  0.02440  0.49119  0.96458  1.0000
  H   H23       1.0  0.00798  0.48895  0.95716  1.0000
  Fe  Fe4       1.0  0.16295  0.72465  0.00707  1.0000
  S   S9        1.0  0.18134  0.70507  0.02105  1.0000
  C   C20       1.0  0.20744  0.66923  0.09579  1.0000
  Fe  Fe5       1.0  0.10907  0.69255  0.02283  1.0000
  S   S10       1.0  0.12516  0.67122  0.03737  1.0000
  S   S11       1.0  0.06866  0.68955  0.02789  1.0000
  Fe  Fe6       1.0  0.15969  0.70997  0.04074  1.0000
  S   S12       1.0  0.18090  0.72855  0.06264  1.0000
  Fe  Fe7       1.0  0.14513  0.66831  0.01634  1.0000
  H   H24       1.0  0.28367  0.56208  0.18150  1.0000
  S   S13       1.0  0.14323  0.73198  0.02705  1.0000
  S   S14       1.0  0.12709  0.68718  0.00147  1.0000
  C   C21       1.0  0.29136  0.79549  0.20519  1.0000
  S   S15       1.0  0.30708  0.54974  0.15584  1.0000
  H   H25       1.0  0.31868  0.76151  0.14736  1.0000
  H   H26       1.0  0.14984  0.63946  0.23232  1.0000
  H   H27       1.0  0.12858  0.65464  0.23251  1.0000
  H   H28       1.0  0.30231  0.55989  0.19686  1.0000
  H   H29       1.0  0.28053  0.57402  0.19956  1.0000
  H   H30       1.0  0.27680  0.82383  0.22334  1.0000
  H   H31       1.0  0.23686  0.53505  0.18033  1.0000
  S   S16       1.0  0.27322  0.59351  0.16193  1.0000
  H   H32       1.0  0.32063  0.80204  0.13498  1.0000
  H   H33       1.0  0.29749  0.85153  0.16951  1.0000
  H   H34       1.0  0.31436  0.51466  0.06333  1.0000
  H   H35       1.0  0.31610  0.83981  0.99886  1.0000
  C   C22       1.0  0.27465  0.80501  0.22791  1.0000
  Fe  Fe8       1.0  0.24164  0.75517  0.16503  1.0000
  S   S17       1.0  0.25713  0.73075  0.17661  1.0000
  S   S18       1.0  0.26116  0.79806  0.16923  1.0000
  Fe  Fe9       1.0  0.19860  0.70966  0.14877  1.0000
  S   S19       1.0  0.21002  0.68134  0.15992  1.0000
  S   S20       1.0  0.16702  0.69185  0.13088  1.0000
  Fe  Fe10      1.0  0.21540  0.70440  0.18128  1.0000
  S   S21       1.0  0.20780  0.68517  0.20417  1.0000
  Fe  Fe11      1.0  0.25043  0.71028  0.15447  1.0000
  S   S22       1.0  0.27928  0.70110  0.14242  1.0000
  S   S23       1.0  0.19987  0.73010  0.17080  1.0000
  S   S24       1.0  0.23898  0.73739  0.14234  1.0000
  H   H36       1.0  0.29913  0.77791  0.16609  1.0000
  C   C23       1.0  0.20771  0.70064  0.22136  1.0000
  H   H37       1.0  0.24632  0.50858  0.21670  1.0000
  H   H38       1.0  0.22868  0.77428  0.21552  1.0000
  H   H39       1.0  0.16090  0.59380  0.99637  1.0000
  C   C24       1.0  0.19858  0.71936  0.22236  1.0000
  S   S25       1.0  0.18575  0.75000  0.98707  1.0000
  H   H40       1.0  0.19237  0.72550  0.21231  1.0000
  C   C25       1.0  0.27401  0.62265  0.15572  1.0000
  C   C26       1.0  0.29136  0.63743  0.14465  1.0000
  C   C27       1.0  0.29257  0.66135  0.14038  1.0000
  C   C28       1.0  0.27684  0.67074  0.14741  1.0000
  C   C29       1.0  0.25964  0.65606  0.15854  1.0000
  C   C30       1.0  0.25799  0.63188  0.16255  1.0000
  H   H41       1.0  0.30603  0.67273  0.13182  1.0000
  C   C31       1.0  0.25249  0.81839  0.99369  1.0000
  H   H42       1.0  0.24785  0.66340  0.16425  1.0000
  H   H43       1.0  0.24471  0.62060  0.17122  1.0000
  H   H44       1.0  0.25133  0.75365  0.23097  1.0000
  C   C32       1.0  0.99197  0.66519  0.03560  1.0000
  H   H45       1.0  0.30999  0.79933  0.21078  1.0000
  S   S26       1.0  0.15077  0.63291  0.01061  1.0000
  C   C33       1.0  0.99441  0.62827  0.02426  1.0000
  H   H46       1.0  0.28068  0.52829  0.21733  1.0000
  C   C34       1.0  0.23706  0.53118  0.19257  1.0000
  H   H47       1.0  0.22367  0.78916  0.00780  1.0000
  H   H48       1.0  0.18972  0.66832  0.98979  1.0000
  C   C35       1.0  0.30581  0.75878  0.11855  1.0000
  C   C36       1.0  0.26635  0.51217  0.18908  1.0000
  C   C37       1.0  0.21509  0.69241  0.23455  1.0000
  H   H49       1.0  0.29276  0.80895  0.23420  1.0000
  H   H50       1.0  0.29045  0.75819  0.12624  1.0000
  C   C38       1.0  0.03435  0.66892  0.02851  1.0000
  C   C39       1.0  0.01898  0.67970  0.03459  1.0000
  C   C40       1.0  0.02190  0.64293  0.02338  1.0000
  H   H51       1.0  0.02803  0.69965  0.03849  1.0000
  H   H52       1.0  0.03335  0.63421  0.01865  1.0000
  C   C41       1.0  0.17156  0.70177  0.11185  1.0000
  C   C42       1.0  0.19183  0.72543  0.10753  1.0000
  C   C43       1.0  0.19447  0.73305  0.09240  1.0000
  C   C44       1.0  0.17721  0.71698  0.08134  1.0000
  C   C45       1.0  0.15732  0.69296  0.08558  1.0000
  C   C46       1.0  0.15431  0.68561  0.10080  1.0000
  H   H53       1.0  0.20507  0.73822  0.11590  1.0000
  H   H54       1.0  0.20986  0.75170  0.08926  1.0000
  H   H55       1.0  0.14418  0.68011  0.07720  1.0000
  H   H56       1.0  0.13862  0.66720  0.10403  1.0000
  C   C47       1.0  0.24545  0.78106  0.20779  1.0000
  H   H57       1.0  0.22071  0.51178  0.19481  1.0000
  H   H58       1.0  0.24715  0.79907  0.20226  1.0000
  C   C48       1.0  0.30822  0.84030  0.16848  1.0000
  H   H59       1.0  0.25950  0.54300  0.22012  1.0000
  C   C49       1.0  0.26683  0.76099  0.22238  1.0000
  H   H60       1.0  0.23320  0.54606  0.19857  1.0000
  H   H61       1.0  0.11769  0.63630  0.98682  1.0000
  N   N2        1.0  0.26957  0.78563  0.21582  1.0000
  C   C50       1.0  0.14867  0.59828  0.98889  1.0000
  C   C51       1.0  0.29507  0.81322  0.16772  1.0000
  H   H62       1.0  0.21267  0.66550  0.08435  1.0000
  H   H63       1.0  0.24070  0.76612  0.19878  1.0000
  H   H64       1.0  0.28528  0.51273  0.19218  1.0000
  H   H65       1.0  0.30334  0.76678  0.10766  1.0000
  H   H66       1.0  0.26171  0.74549  0.21366  1.0000
  H   H67       1.0  0.21326  0.69042  0.09675  1.0000
  N   N3        1.0  0.10273  0.72191  0.07072  1.0000
  C   C52       1.0  0.11328  0.74194  0.05899  1.0000
  C   C53       1.0  0.07522  0.71527  0.07320  1.0000
  C   C54       1.0  0.11774  0.73193  0.08477  1.0000
  C   C55       1.0  0.10478  0.69840  0.06581  1.0000
  H   H68       1.0  0.13417  0.74769  0.05703  1.0000
  H   H69       1.0  0.11160  0.75983  0.06212  1.0000
  H   H70       1.0  0.10284  0.73472  0.04810  1.0000
  H   H71       1.0  0.06362  0.70767  0.06268  1.0000
  H   H72       1.0  0.06658  0.69999  0.08189  1.0000
  H   H73       1.0  0.07285  0.73254  0.07690  1.0000
  H   H74       1.0  0.11063  0.71720  0.09384  1.0000
  H   H75       1.0  0.11666  0.74969  0.08886  1.0000
  H   H76       1.0  0.13860  0.73712  0.08309  1.0000
  H   H77       1.0  0.09810  0.68319  0.07461  1.0000
  H   H78       1.0  0.12511  0.70304  0.06311  1.0000
  H   H79       1.0  0.09292  0.68970  0.05556  1.0000
  N   N4        1.0  0.21989  0.66058  0.10757  1.0000
  C   C56       1.0  0.21213  0.66577  0.12248  1.0000
  H   H80       1.0  0.31717  0.64450  0.17496  1.0000
  C   C57       1.0  0.21168  0.63241  0.10586  1.0000
  C   C58       1.0  0.24833  0.67492  0.10622  1.0000
  H   H81       1.0  0.21766  0.68679  0.12407  1.0000
  H   H82       1.0  0.22152  0.65989  0.13164  1.0000
  H   H83       1.0  0.19078  0.65516  0.12403  1.0000
  Fe  Fe12      1.0  0.30918  0.58945  0.15643  1.0000
  C   C59       1.0  0.30917  0.79883  0.16650  1.0000
  C   C60       1.0  0.14036  0.61676  0.99322  1.0000
  H   H84       1.0  0.21730  0.62776  0.09474  1.0000
  H   H85       1.0  0.19030  0.62101  0.10685  1.0000
  H   H86       1.0  0.22069  0.62529  0.11464  1.0000
  H   H87       1.0  0.25492  0.67194  0.09499  1.0000
  H   H88       1.0  0.25827  0.66846  0.11478  1.0000
  H   H89       1.0  0.25524  0.69617  0.10796  1.0000
  H   H90       1.0  0.28805  0.78135  0.19590  1.0000
  H   H91       1.0  0.18596  0.65897  0.09663  1.0000
  C   C61       1.0  0.22986  0.79500  0.99642  1.0000
  H   H92       1.0  0.26337  0.83027  0.00309  1.0000
  H   H93       1.0  0.29386  0.81399  0.19994  1.0000
  H   H94       1.0  0.30226  0.73832  0.11664  1.0000
  C   C62       1.0  0.28306  0.55824  0.19370  1.0000
  H   H95       1.0  0.22204  0.67784  0.23391  1.0000
  H   H96       1.0  0.30376  0.63042  0.13933  1.0000
  C   C63       1.0  0.31974  0.52519  0.08687  1.0000
  C   C64       1.0  0.32464  0.51804  0.23521  1.0000
  C   C65       1.0  0.26208  0.52784  0.21357  1.0000
  H   H97       1.0  0.32259  0.69836  0.16664  1.0000
  N   N5        1.0  0.26211  0.53233  0.19725  1.0000
  H   H98       1.0  0.28503  0.76348  0.22800  1.0000
  H   H99       1.0  0.20199  0.70315  0.98990  1.0000
  H   H100      1.0  0.26647  0.51492  0.17673  1.0000
  H   H101      1.0  0.32020  0.65002  0.19480  1.0000
  C   C66       1.0  0.31922  0.65886  0.18391  1.0000
  H   H102      1.0  0.30498  0.50653  0.09049  1.0000
  H   H103      1.0  0.30122  0.66137  0.18373  1.0000
  H   H104      1.0  0.13138  0.65007  0.47613  1.0000
  C   C67       1.0  0.29599  0.76364  0.30345  1.0000
  H   H105      1.0  0.11348  0.77490  0.45731  1.0000
  Fe  Fe13      1.0  0.13526  0.71251  0.42382  1.0000
  S   S27       1.0  0.12161  0.73323  0.44066  1.0000
  S   S28       1.0  0.15629  0.73054  0.40212  1.0000
  Fe  Fe14      1.0  0.12704  0.66899  0.44530  1.0000
  S   S29       1.0  0.11332  0.68623  0.46363  1.0000
  S   S30       1.0  0.13071  0.63145  0.44566  1.0000
  Fe  Fe15      1.0  0.08946  0.69307  0.44569  1.0000
  S   S31       1.0  0.04883  0.68440  0.45417  1.0000
  Fe  Fe16      1.0  0.14621  0.72503  0.45749  1.0000
  S   S32       1.0  0.17086  0.75022  0.47724  1.0000
  S   S33       1.0  0.10143  0.67330  0.42755  1.0000
  S   S34       1.0  0.16159  0.70679  0.44050  1.0000
  H   H106      1.0  0.02693  0.66500  0.42408  1.0000
  C   C68       1.0  0.31530  0.67884  0.30974  1.0000
  H   H107      1.0  0.08695  0.53564  0.47012  1.0000
  H   H108      1.0  0.25182  0.66239  0.30359  1.0000
  H   H109      1.0  0.26893  0.64522  0.28370  1.0000
  S   S35       1.0  0.25722  0.57236  0.31819  1.0000
  C   C69       1.0  0.29641  0.57352  0.35018  1.0000
  H   H110      1.0  0.20849  0.51737  0.45184  1.0000
  H   H111      1.0  0.30664  0.87503  0.46817  1.0000
  H   H112      1.0  0.15247  0.63279  0.27334  1.0000
  C   C70       1.0  0.22381  0.82660  0.47137  1.0000
  Fe  Fe17      1.0  0.23707  0.71274  0.31486  1.0000
  S   S36       1.0  0.23287  0.69969  0.29087  1.0000
  S   S37       1.0  0.27551  0.73001  0.32687  1.0000
  Fe  Fe18      1.0  0.17975  0.69100  0.32022  1.0000
  S   S38       1.0  0.17006  0.67601  0.29643  1.0000
  S   S39       1.0  0.14672  0.68076  0.33681  1.0000
  Fe  Fe19      1.0  0.20072  0.66279  0.29915  1.0000
  S   S40       1.0  0.19620  0.62662  0.28711  1.0000
  Fe  Fe20      1.0  0.20262  0.71367  0.28917  1.0000
  S   S41       1.0  0.19836  0.73202  0.26736  1.0000
  S   S42       1.0  0.20775  0.67416  0.32341  1.0000
  S   S43       1.0  0.20957  0.73047  0.31277  1.0000
  H   H113      1.0  0.28153  0.82070  0.48234  1.0000
  C   C71       1.0  0.20327  0.72063  0.24973  1.0000
  H   H114      1.0  0.21885  0.69591  0.25866  1.0000
  H   H115      1.0  0.08112  0.57516  0.47478  1.0000
  C   C72       1.0  0.23894  0.58600  0.30955  1.0000
  C   C73       1.0  0.22663  0.59728  0.31837  1.0000
  C   C74       1.0  0.21336  0.60976  0.31155  1.0000
  C   C75       1.0  0.21170  0.61023  0.29591  1.0000
  C   C76       1.0  0.22312  0.59803  0.28712  1.0000
  C   C77       1.0  0.23710  0.58630  0.29392  1.0000
  H   H116      1.0  0.22784  0.59690  0.33046  1.0000
  H   H117      1.0  0.20425  0.61886  0.31837  1.0000
  H   H118      1.0  0.22167  0.59819  0.27503  1.0000
  H   H119      1.0  0.24618  0.57722  0.28708  1.0000
  C   C78       1.0  0.13636  0.58514  0.47811  1.0000
  C   C79       1.0  0.29659  0.69609  0.29132  1.0000
  C   C80       1.0  0.15327  0.71589  0.38416  1.0000
  C   C81       1.0  0.12981  0.69612  0.37890  1.0000
  C   C82       1.0  0.12811  0.68570  0.36436  1.0000
  C   C83       1.0  0.14986  0.69469  0.35497  1.0000
  C   C84       1.0  0.17337  0.71426  0.36028  1.0000
  C   C85       1.0  0.17497  0.72494  0.37474  1.0000
  H   H120      1.0  0.11281  0.68934  0.38588  1.0000
  H   H121      1.0  0.10978  0.67073  0.36030  1.0000
  H   H122      1.0  0.19022  0.72149  0.35315  1.0000
  H   H123      1.0  0.19313  0.74045  0.37861  1.0000
  C   C86       1.0  0.19717  0.78206  0.47954  1.0000
  C   C87       1.0  0.30093  0.75268  0.31627  1.0000
  H   H124      1.0  0.23887  0.55982  0.36664  1.0000
  H   H125      1.0  0.08801  0.73108  0.46796  1.0000
  C   C88       1.0  0.28704  0.65082  0.29033  1.0000
  H   H126      1.0  0.05229  0.57256  0.48358  1.0000
  C   C89       1.0  0.15792  0.64047  0.26178  1.0000
  C   C90       1.0  0.27804  0.54838  0.37246  1.0000
  C   C91       1.0  0.31667  0.78145  0.29496  1.0000
  H   H127      1.0  0.28275  0.80612  0.45649  1.0000
  H   H128      1.0  0.28371  0.54839  0.46639  1.0000
  C   C92       1.0  0.23693  0.50373  0.45686  1.0000
  Fe  Fe21      1.0  0.30367  0.49985  0.44541  1.0000
  S   S44       1.0  0.17357  0.50465  0.47666  1.0000
  H   H129      1.0  0.16303  0.62662  0.25558  1.0000
  H   H130      1.0  0.13824  0.56732  0.47858  1.0000
  C   C93       1.0  0.13295  0.61903  0.46335  1.0000
  C   C94       1.0  0.13486  0.59562  0.46414  1.0000
  C   C95       1.0  0.25276  0.56340  0.35733  1.0000
  H   H131      1.0  0.24510  0.54570  0.35004  1.0000
  H   H132      1.0  0.13532  0.58562  0.45393  1.0000
  C   C96       1.0  0.28895  0.59402  0.37200  1.0000
  H   H133      1.0  0.31963  0.69563  0.31742  1.0000
  C   C97       1.0  0.30108  0.85746  0.46095  1.0000
  H   H134      1.0  0.14968  0.68260  0.26327  1.0000
  Fe  Fe22      1.0  0.29243  0.57854  0.30493  1.0000
  H   H135      1.0  0.10700  0.61163  0.26559  1.0000
  H   H136      1.0  0.05621  0.52026  0.46061  1.0000
  C   C98       1.0  0.01671  0.66431  0.44728  1.0000
  C   C99       1.0  0.20167  0.49973  0.47368  1.0000
  H   H137      1.0  0.26571  0.64915  0.31709  1.0000
  C   C100      1.0  0.99583  0.65564  0.45736  1.0000
  S   S45       1.0  0.30750  0.54897  0.30391  1.0000
  H   H138      1.0  0.27625  0.75867  0.30018  1.0000
  H   H139      1.0  0.29002  0.61062  0.36519  1.0000
  C   C101      1.0  0.26962  0.66655  0.31022  1.0000
  N   N6        1.0  0.05532  0.53669  0.48220  1.0000
  H   H140      1.0  0.14162  0.77623  0.46663  1.0000
  N   N7        1.0  0.15789  0.64774  0.40046  1.0000
  C   C102      1.0  0.15274  0.66787  0.40788  1.0000
  C   C103      1.0  0.13455  0.62246  0.40135  1.0000
  C   C104      1.0  0.17973  0.64602  0.40820  1.0000
  C   C105      1.0  0.16445  0.65473  0.38457  1.0000
  H   H141      1.0  0.16966  0.68742  0.40722  1.0000
  H   H142      1.0  0.14822  0.66342  0.41991  1.0000
  H   H143      1.0  0.13593  0.66931  0.40270  1.0000
  H   H144      1.0  0.12906  0.61681  0.41324  1.0000
  H   H145      1.0  0.11765  0.62325  0.39576  1.0000
  H   H146      1.0  0.13765  0.60670  0.39588  1.0000
  H   H147      1.0  0.18419  0.63093  0.40299  1.0000
  H   H148      1.0  0.17524  0.64093  0.42025  1.0000
  H   H149      1.0  0.19755  0.66490  0.40783  1.0000
  H   H150      1.0  0.16933  0.64046  0.37867  1.0000
  H   H151      1.0  0.18122  0.67432  0.38348  1.0000
  H   H152      1.0  0.14801  0.65538  0.37837  1.0000
  H   H153      1.0  0.31676  0.53006  0.33571  1.0000
  C   C106      1.0  0.31537  0.52084  0.35926  1.0000
  H   H154      1.0  0.09676  0.62085  0.24852  1.0000
  H   H155      1.0  0.05080  0.56025  0.46485  1.0000
  H   H156      1.0  0.22846  0.84134  0.46287  1.0000
  S   S46       1.0  0.30228  0.59052  0.28099  1.0000
  C   C107      1.0  0.01124  0.65823  0.43204  1.0000
  H   H157      1.0  0.27634  0.59194  0.38180  1.0000
  H   H158      1.0  0.31644  0.57828  0.35397  1.0000
  N   N8        1.0  0.10862  0.76619  0.48085  1.0000
  C   C108      1.0  0.12473  0.78043  0.46800  1.0000
  H   H159      1.0  0.27953  0.84710  0.46080  1.0000
  N   N9        1.0  0.29215  0.67308  0.30040  1.0000
  H   H160      1.0  0.29611  0.50485  0.35849  1.0000
  H   H161      1.0  0.17584  0.65912  0.26282  1.0000
  C   C109      1.0  0.09936  0.73797  0.47857  1.0000
  C   C110      1.0  0.21315  0.70253  0.24863  1.0000
  H   H162      1.0  0.99967  0.66032  0.46915  1.0000
  H   H163      1.0  0.11628  0.60379  0.24781  1.0000
  H   H164      1.0  0.27281  0.68272  0.31809  1.0000
  H   H165      1.0  0.26491  0.54481  0.38218  1.0000
  S   S47       1.0  0.31968  0.53536  0.26282  1.0000
  H   H166      1.0  0.25274  0.57939  0.35036  1.0000
  C   C111      1.0  0.06578  0.52373  0.47181  1.0000
  H   H167      1.0  0.30297  0.65549  0.28219  1.0000
  C   C112      1.0  0.20393  0.80124  0.46855  1.0000
  C   C113      1.0  0.30297  0.83226  0.48206  1.0000
  C   C114      1.0  0.30504  0.55654  0.46797  1.0000
  H   H168      1.0  0.19358  0.79670  0.45795  1.0000
  H   H169      1.0  0.27976  0.69225  0.28386  1.0000
  N   N10       1.0  0.31229  0.84064  0.46669  1.0000
  H   H170      1.0  0.31101  0.82308  0.44518  1.0000
  H   H171      1.0  0.07380  0.76532  0.47170  1.0000
  H   H172      1.0  0.11657  0.66722  0.25707  1.0000
  H   H173      1.0  0.31283  0.79024  0.28517  1.0000
  H   H174      1.0  0.24678  0.50995  0.44627  1.0000
  C   C115      1.0  0.08612  0.77178  0.48201  1.0000
  C   C116      1.0  0.11315  0.61895  0.25402  1.0000
  C   C117      1.0  0.06003  0.56225  0.47608  1.0000
  H   H175      1.0  0.27103  0.52986  0.36599  1.0000
  H   H176      1.0  0.31277  0.66184  0.31665  1.0000
  H   H177      1.0  0.30764  0.86419  0.44937  1.0000
  C   C118      1.0  0.13264  0.63193  0.47661  1.0000
  H   H178      1.0  0.28939  0.55575  0.34300  1.0000
  C   C119      1.0  0.23755  0.83311  0.48510  1.0000
  H   H179      1.0  0.18859  0.74320  0.23723  1.0000
  C   C120      1.0  0.13194  0.66359  0.26258  1.0000
  Fe  Fe23      1.0  0.32171  0.56444  0.28074  1.0000
  N   N11       1.0  0.27903  0.56981  0.36300  1.0000
  H   H180      1.0  0.06284  0.50451  0.47620  1.0000
  C   C121      1.0  0.02723  0.52028  0.48403  1.0000
  H   H181      1.0  0.28502  0.63348  0.29673  1.0000
  S   S48       1.0  0.31312  0.53427  0.43064  1.0000
  N   N12       1.0  0.31239  0.56030  0.48402  1.0000
  H   H182      1.0  0.29974  0.71304  0.29856  1.0000
  C   C122      1.0  0.30424  0.81752  0.45688  1.0000
  H   H183      1.0  0.12576  0.65736  0.27429  1.0000
  N   N13       1.0  0.13686  0.64398  0.25427  1.0000
  C   C123      1.0  0.21516  0.50793  0.46006  1.0000
  C   C124      1.0  0.19633  0.72926  0.23650  1.0000
  H   H184      1.0  0.13252  0.80183  0.46948  1.0000
  H   H185      1.0  0.01671  0.51680  0.47312  1.0000
  H   H186      1.0  0.11580  0.73297  0.47800  1.0000
  H   H187      1.0  0.31442  0.57509  0.46166  1.0000
  S   S49       1.0  0.31151  0.50974  0.38931  1.0000
  H   H188      1.0  0.31227  0.80436  0.46098  1.0000
  H   H189      1.0  0.29750  0.55272  0.37708  1.0000
  H   H190      1.0  0.31108  0.54272  0.46261  1.0000
  H   H191      1.0  0.29756  0.58956  0.34283  1.0000
  H   H192      1.0  0.09231  0.79294  0.48356  1.0000
  H   H193      1.0  0.32001  0.50002  0.24098  1.0000
  H   H194      1.0  0.16138  0.67235  0.23859  1.0000
  C   C125      1.0  0.14443  0.65290  0.23874  1.0000
  H   H195      1.0  0.30880  0.59934  0.37639  1.0000
  H   H196      1.0  0.25856  0.79815  0.23617  1.0000
  H   H197      1.0  0.31397  0.70198  0.28413  1.0000
  H   H198      1.0  0.31096  0.59688  0.48532  1.0000
  S   S50       1.0  0.31183  0.79359  0.67521  1.0000
  C   C126      1.0  0.22113  0.52845  0.68455  1.0000
  S   S51       1.0  0.16422  0.53442  0.51440  1.0000
  H   H199      1.0  0.30029  0.66103  0.66234  1.0000
  H   H200      1.0  0.27522  0.79834  0.62508  1.0000
  H   H201      1.0  0.29849  0.76956  0.59450  1.0000
  Fe  Fe24      1.0  0.13116  0.54337  0.50949  1.0000
  S   S52       1.0  0.13679  0.58489  0.50907  1.0000
  H   H202      1.0  0.27460  0.81840  0.58585  1.0000
  Fe  Fe25      1.0  0.29394  0.88214  0.50637  1.0000
  H   H203      1.0  0.26681  0.53133  0.67708  1.0000
  H   H204      1.0  0.20976  0.60983  0.53956  1.0000
  Fe  Fe26      1.0  0.31542  0.83383  0.67683  1.0000
  C   C127      1.0  0.13590  0.59800  0.49137  1.0000
  S   S53       1.0  0.30086  0.91216  0.52466  1.0000
  H   H205      1.0  0.19310  0.52049  0.57661  1.0000
  H   H206      1.0  0.17248  0.54064  0.71862  1.0000
  C   C128      1.0  0.29331  0.56025  0.65142  1.0000
  C   C129      1.0  0.27095  0.68417  0.67033  1.0000
  H   H207      1.0  0.29440  0.77059  0.61438  1.0000
  S   S54       1.0  0.25834  0.75712  0.64496  1.0000
  C   C130      1.0  0.25418  0.77226  0.60014  1.0000
  C   C131      1.0  0.21284  0.60206  0.73005  1.0000
  C   C132      1.0  0.24176  0.54424  0.70863  1.0000
  C   C133      1.0  0.31214  0.87860  0.57981  1.0000
  H   H208      1.0  0.29104  0.61573  0.60742  1.0000
  Fe  Fe27      1.0  0.19371  0.57491  0.63078  1.0000
  S   S55       1.0  0.20502  0.61451  0.64111  1.0000
  S   S56       1.0  0.15830  0.55754  0.61539  1.0000
  Fe  Fe28      1.0  0.24045  0.57178  0.64397  1.0000
  S   S57       1.0  0.25592  0.61099  0.65460  1.0000
  S   S58       1.0  0.26022  0.54623  0.64664  1.0000
  Fe  Fe29      1.0  0.21526  0.59912  0.66202  1.0000
  S   S59       1.0  0.21676  0.61612  0.68534  1.0000
  Fe  Fe30      1.0  0.24466  0.62328  0.63319  1.0000
  S   S60       1.0  0.27344  0.66052  0.62289  1.0000
  S   S61       1.0  0.20006  0.55850  0.65262  1.0000
  S   S62       1.0  0.23312  0.58502  0.62164  1.0000
  C   C134      1.0  0.20874  0.59967  0.70271  1.0000
  C   C135      1.0  0.21898  0.61405  0.71594  1.0000
  H   H209      1.0  0.15005  0.55094  0.54787  1.0000
  H   H210      1.0  0.13774  0.57064  0.53873  1.0000
  C   C136      1.0  0.19207  0.57309  0.70372  1.0000
  H   H211      1.0  0.23181  0.63463  0.71528  1.0000
  H   H212      1.0  0.18360  0.56193  0.69363  1.0000
  C   C137      1.0  0.26268  0.73057  0.63842  1.0000
  C   C138      1.0  0.28734  0.73313  0.63518  1.0000
  C   C139      1.0  0.29024  0.71180  0.62958  1.0000
  C   C140      1.0  0.26874  0.68753  0.62800  1.0000
  C   C141      1.0  0.24407  0.68495  0.63122  1.0000
  C   C142      1.0  0.24102  0.70654  0.63623  1.0000
  H   H213      1.0  0.28341  0.54453  0.69440  1.0000
  H   H214      1.0  0.12542  0.62403  0.73174  1.0000
  H   H215      1.0  0.22729  0.66643  0.62971  1.0000
  H   H216      1.0  0.22187  0.70449  0.63865  1.0000
  C   C143      1.0  0.18566  0.56114  0.71790  1.0000
  H   H217      1.0  0.25638  0.51260  0.69383  1.0000
  C   C144      1.0  0.19051  0.59263  0.53862  1.0000
  S   S63       1.0  0.29443  0.83115  0.65489  1.0000
  C   C145      1.0  0.12315  0.60378  0.73160  1.0000
  C   C146      1.0  0.14787  0.56910  0.54900  1.0000
  H   H218      1.0  0.31400  0.59470  0.62133  1.0000
  H   H219      1.0  0.13379  0.63153  0.50078  1.0000
  H   H220      1.0  0.29858  0.59956  0.65330  1.0000
  H   H221      1.0  0.18207  0.59343  0.52748  1.0000
  H   H222      1.0  0.19370  0.57492  0.53860  1.0000
  H   H223      1.0  0.24426  0.58014  0.68855  1.0000
  C   C147      1.0  0.13411  0.62144  0.49057  1.0000
  H   H224      1.0  0.24841  0.75990  0.61037  1.0000
  C   C148      1.0  0.30520  0.54393  0.65292  1.0000
  N   N14       1.0  0.28075  0.79351  0.60167  1.0000
  H   H225      1.0  0.24135  0.81837  0.50660  1.0000
  C   C149      1.0  0.06832  0.54046  0.49695  1.0000
  Fe  Fe31      1.0  0.31226  0.88683  0.53917  1.0000
  C   C150      1.0  0.15619  0.51802  0.56991  1.0000
  C   C151      1.0  0.13569  0.52313  0.57428  1.0000
  C   C152      1.0  0.13659  0.53517  0.58823  1.0000
  C   C153      1.0  0.15794  0.54223  0.59798  1.0000
  C   C154      1.0  0.17833  0.53695  0.59365  1.0000
  C   C155      1.0  0.17732  0.52471  0.57976  1.0000
  H   H226      1.0  0.29960  0.87032  0.61743  1.0000
  H   H227      1.0  0.12055  0.53883  0.59156  1.0000
  H   H228      1.0  0.19469  0.54189  0.60110  1.0000
  H   H229      1.0  0.29420  0.52327  0.65086  1.0000
  S   S64       1.0  0.30227  0.85574  0.52142  1.0000
  H   H230      1.0  0.17196  0.58875  0.57505  1.0000
  C   C156      1.0  0.23113  0.81378  0.49597  1.0000
  H   H231      1.0  0.21193  0.50800  0.68850  1.0000
  H   H232      1.0  0.30781  0.82558  0.58881  1.0000
  H   H233      1.0  0.20591  0.77402  0.50189  1.0000
  C   C157      1.0  0.29907  0.78239  0.60400  1.0000
  S   S65       1.0  0.10475  0.51612  0.52671  1.0000
  H   H234      1.0  0.01869  0.52939  0.49185  1.0000
  H   H235      1.0  0.26026  0.55546  0.71484  1.0000
  H   H236      1.0  0.06174  0.55109  0.50495  1.0000
  H   H237      1.0  0.23985  0.78003  0.59852  1.0000
  H   H238      1.0  0.27624  0.58344  0.69226  1.0000
  C   C158      1.0  0.16968  0.61581  0.55068  1.0000
  C   C159      1.0  0.28199  0.80996  0.61470  1.0000
  H   H239      1.0  0.28993  0.66139  0.68947  1.0000
  N   N15       1.0  0.29852  0.69284  0.67416  1.0000
  H   H240      1.0  0.23257  0.52420  0.71323  1.0000
  H   H241      1.0  0.20379  0.60733  0.56752  1.0000
  H   H242      1.0  0.30419  0.75149  0.63690  1.0000
  H   H243      1.0  0.07361  0.76142  0.49164  1.0000
  H   H244      1.0  0.26000  0.66258  0.66980  1.0000
  H   H245      1.0  0.32254  0.66180  0.62932  1.0000
  H   H246      1.0  0.26105  0.57153  0.67444  1.0000
  S   S66       1.0  0.15644  0.50345  0.55233  1.0000
  C   C160      1.0  0.31030  0.63136  0.60416  1.0000
  H   H247      1.0  0.22885  0.55331  0.71129  1.0000
  H   H248      1.0  0.30273  0.62820  0.63330  1.0000
  C   C161      1.0  0.18483  0.59017  0.56547  1.0000
  H   H249      1.0  0.24627  0.77087  0.73093  1.0000
  H   H250      1.0  0.16106  0.61762  0.53979  1.0000
  C   C162      1.0  0.30769  0.58694  0.65417  1.0000
  H   H251      1.0  0.31710  0.93539  0.55520  1.0000
  H   H252      1.0  0.13489  0.56674  0.55864  1.0000
  C   C163      1.0  0.21094  0.78858  0.49325  1.0000
  Fe  Fe32      1.0  0.14773  0.50348  0.49660  1.0000
  H   H253      1.0  0.30593  0.53688  0.50375  1.0000
  H   H254      1.0  0.11286  0.76392  0.50471  1.0000
  Fe  Fe33      1.0  0.29431  0.79216  0.65258  1.0000
  H   H255      1.0  0.11897  0.51742  0.56700  1.0000
  C   C164      1.0  0.29859  0.87450  0.59336  1.0000
  H   H256      1.0  0.30810  0.58105  0.50304  1.0000
  C   C165      1.0  0.26396  0.53265  0.68933  1.0000
  C   C166      1.0  0.31602  0.85263  0.72969  1.0000
  H   H257      1.0  0.15650  0.61571  0.55977  1.0000
  H   H258      1.0  0.18814  0.57257  0.56584  1.0000
  H   H259      1.0  0.22379  0.52790  0.67219  1.0000
  S   S67       1.0  0.29634  0.87976  0.56296  1.0000
  N   N16       1.0  0.17326  0.59197  0.55096  1.0000
  H   H260      1.0  0.18842  0.63352  0.55217  1.0000
  H   H261      1.0  0.27906  0.87250  0.59328  1.0000
  H   H262      1.0  0.02326  0.50093  0.48870  1.0000
  Fe  Fe34      1.0  0.13679  0.50463  0.53024  1.0000
  H   H263      1.0  0.28127  0.56913  0.49007  1.0000
  H   H264      1.0  0.31167  0.86903  0.72905  1.0000
  C   C167      1.0  0.31231  0.72156  0.67423  1.0000
  N   N17       1.0  0.24607  0.54408  0.69231  1.0000
  H   H265      1.0  0.26122  0.69112  0.67871  1.0000
  H   H266      1.0  0.26970  0.82006  0.61298  1.0000
  H   H267      1.0  0.28708  0.79767  0.57784  1.0000
  H   H268      1.0  0.26875  0.69168  0.65927  1.0000
  S   S68       1.0  0.11588  0.51451  0.49078  1.0000
  H   H269      1.0  0.25244  0.75938  0.59042  1.0000
  H   H270      1.0  0.30922  0.71385  0.62685  1.0000
  H   H271      1.0  0.24362  0.80069  0.73297  1.0000
  C   C168      1.0  0.31010  0.87304  0.60705  1.0000
  C   C169      1.0  0.25741  0.57101  0.68668  1.0000
  H   H272      1.0  0.30792  0.64936  0.60260  1.0000
  H   H273      1.0  0.20721  0.53662  0.68641  1.0000
  H   H274      1.0  0.14146  0.56839  0.73472  1.0000
  H   H275      1.0  0.30976  0.68994  0.65152  1.0000
  H   H276      1.0  0.13161  0.79570  0.49690  1.0000
  C   C170      1.0  0.28782  0.80942  0.58793  1.0000
  H   H277      1.0  0.13275  0.60142  0.72130  1.0000
  C   C171      1.0  0.30080  0.53489  0.49162  1.0000
  H   H278      1.0  0.29194  0.69059  0.69792  1.0000
  H   H279      1.0  0.27930  0.52543  0.49067  1.0000
  H   H280      1.0  0.32103  0.68894  0.69235  1.0000
  H   H281      1.0  0.14147  0.77060  0.49417  1.0000
  C   C172      1.0  0.31038  0.68258  0.66295  1.0000
  H   H282      1.0  0.30386  0.73013  0.68246  1.0000
  C   C173      1.0  0.12426  0.77450  0.49479  1.0000
  C   C174      1.0  0.30048  0.68301  0.68916  1.0000
  H   H283      1.0  0.06457  0.52158  0.50214  1.0000
  H   H284      1.0  0.31542  0.62592  0.59313  1.0000
  C   C175      1.0  0.32254  0.64251  0.63005  1.0000
  H   H285      1.0  0.08958  0.55173  0.49587  1.0000
  C   C176      1.0  0.19599  0.57558  0.73114  1.0000
  S   S69       1.0  0.26224  0.86562  0.48812  1.0000
  H   H286      1.0  0.31132  0.72954  0.66303  1.0000
  H   H287      1.0  0.30214  0.82496  0.61694  1.0000
  H   H288      1.0  0.08662  0.72646  0.48783  1.0000
  S   S70       1.0  0.30833  0.84897  0.69912  1.0000
  H   H289      1.0  0.30802  0.84925  0.48960  1.0000
  C   C177      1.0  0.30277  0.57763  0.49094  1.0000
  H   H290      1.0  0.27427  0.80054  0.73541  1.0000
  H   H291      1.0  0.10212  0.59037  0.73056  1.0000
  C   C178      1.0  0.31549  0.83885  0.71653  1.0000
  H   H292      1.0  0.30746  0.52124  0.48654  1.0000
  H   H293      1.0  0.31179  0.82037  0.48703  1.0000
  H   H294      1.0  0.31625  0.96611  0.55649  1.0000
  H   H295      1.0  0.32055  0.80674  0.70752  1.0000
  H   H296      1.0  0.31934  0.79793  0.60519  1.0000
  C   C179      1.0  0.32121  0.81774  0.71749  1.0000
  N   N18       1.0  0.04808  0.51524  0.96125  1.0000
  H   H297      1.0  0.08776  0.53451  0.96866  1.0000
  C   C180      1.0  0.26185  0.76948  0.75931  1.0000
  S   S71       1.0  0.29800  0.79587  0.82472  1.0000
  H   H298      1.0  0.22243  0.54416  0.91149  1.0000
  H   H299      1.0  0.24306  0.70958  0.82673  1.0000
  S   S72       1.0  0.23491  0.77028  0.79933  1.0000
  S   S73       1.0  0.30130  0.83066  0.79475  1.0000
  H   H300      1.0  0.25234  0.81705  0.95562  1.0000
  H   H301      1.0  0.17144  0.61241  0.75603  1.0000
  H   H302      1.0  0.23203  0.68107  0.83829  1.0000
  Fe  Fe35      1.0  0.18791  0.62506  0.78635  1.0000
  S   S74       1.0  0.20795  0.62409  0.80762  1.0000
  S   S75       1.0  0.17000  0.65162  0.78140  1.0000
  Fe  Fe36      1.0  0.19680  0.58234  0.77100  1.0000
  S   S76       1.0  0.21778  0.57709  0.79121  1.0000
  S   S77       1.0  0.18712  0.55997  0.74876  1.0000
  Fe  Fe37      1.0  0.18695  0.58050  0.80549  1.0000
  S   S78       1.0  0.16049  0.55477  0.82399  1.0000
  Fe  Fe38      1.0  0.23712  0.62093  0.79220  1.0000
  S   S79       1.0  0.27855  0.65121  0.79202  1.0000
  S   S80       1.0  0.16446  0.58192  0.78502  1.0000
  S   S81       1.0  0.21851  0.62557  0.77118  1.0000
  N   N19       1.0  0.21971  0.50654  0.91680  1.0000
  S   S82       1.0  0.30579  0.90004  0.93724  1.0000
  H   H303      1.0  0.30390  0.71122  0.84166  1.0000
  Fe  Fe39      1.0  0.27812  0.78938  0.80239  1.0000
  H   H304      1.0  0.20634  0.50650  0.89422  1.0000
  H   H305      1.0  0.17488  0.64396  0.96569  1.0000
  N   N20       1.0  0.13444  0.59835  0.74524  1.0000
  H   H306      1.0  0.20898  0.77886  0.75173  1.0000
  Fe  Fe40      1.0  0.12824  0.54516  0.94064  1.0000
  H   H307      1.0  0.14842  0.57184  0.97153  1.0000
  S   S83       1.0  0.11765  0.57731  0.94712  1.0000
  N   N21       1.0  0.29838  0.93597  0.89849  1.0000
  H   H308      1.0  0.25804  0.76497  0.77142  1.0000
  S   S84       1.0  0.16692  0.55037  0.93302  1.0000
  S   S85       1.0  0.10728  0.51988  0.92082  1.0000
  N   N22       1.0  0.24811  0.78407  0.75372  1.0000
  C   C181      1.0  0.11725  0.60974  0.96950  1.0000
  H   H309      1.0  0.10510  0.61427  0.96200  1.0000
  H   H310      1.0  0.12673  0.52406  0.87450  1.0000
  H   H311      1.0  0.12352  0.62186  0.75963  1.0000
  H   H312      1.0  0.27874  0.89822  0.90857  1.0000
  H   H313      1.0  0.23572  0.70487  0.97196  1.0000
  S   S86       1.0  0.12308  0.51265  0.95606  1.0000
  C   C182      1.0  0.27775  0.90886  0.89838  1.0000
  C   C183      1.0  0.12603  0.59166  0.96506  1.0000
  H   H314      1.0  0.31130  0.97021  0.91246  1.0000
  H   H315      1.0  0.12326  0.53263  0.84747  1.0000
  H   H316      1.0  0.26046  0.52334  0.92158  1.0000
  H   H317      1.0  0.15560  0.66025  0.96125  1.0000
  H   H318      1.0  0.29755  0.94039  0.92243  1.0000
  H   H319      1.0  0.28507  0.72446  0.81287  1.0000
  C   C184      1.0  0.24634  0.81105  0.96700  1.0000
  C   C185      1.0  0.05527  0.51458  0.94543  1.0000
  C   C186      1.0  0.22358  0.78779  0.96974  1.0000
  C   C187      1.0  0.30191  0.64661  0.80229  1.0000
  H   H320      1.0  0.21233  0.77625  0.96034  1.0000
  H   H321      1.0  0.21546  0.76504  0.76821  1.0000
  C   C188      1.0  0.16438  0.55083  0.84357  1.0000
  C   C189      1.0  0.18865  0.55824  0.85027  1.0000
  C   C190      1.0  0.19052  0.55285  0.86557  1.0000
  C   C191      1.0  0.16826  0.54053  0.87449  1.0000
  C   C192      1.0  0.14405  0.53372  0.86789  1.0000
  C   C193      1.0  0.14215  0.53860  0.85252  1.0000
  H   H322      1.0  0.20592  0.56740  0.84357  1.0000
  H   H323      1.0  0.20936  0.55810  0.87048  1.0000
  S   S87       1.0  0.30316  0.86293  0.90038  1.0000
  H   H324      1.0  0.23070  0.54067  0.93067  1.0000
  H   H325      1.0  0.06121  0.55655  0.96142  1.0000
  H   H326      1.0  0.27694  0.60717  0.80867  1.0000
  H   H327      1.0  0.25313  0.80574  0.77419  1.0000
  H   H328      1.0  0.28542  0.72912  0.84006  1.0000
  S   S88       1.0  0.28959  0.85685  0.97631  1.0000
  C   C194      1.0  0.29898  0.84666  0.87114  1.0000
  H   H329      1.0  0.07296  0.49963  0.96983  1.0000
  H   H330      1.0  0.12949  0.59794  0.76915  1.0000
  N   N23       1.0  0.26936  0.69255  0.82828  1.0000
  H   H331      1.0  0.10018  0.58811  0.75845  1.0000
  Fe  Fe41      1.0  0.16066  0.51546  0.94693  1.0000
  C   C195      1.0  0.24653  0.51342  0.91226  1.0000
  C   C196      1.0  0.21792  0.73697  0.79480  1.0000
  C   C197      1.0  0.23007  0.72071  0.79385  1.0000
  C   C198      1.0  0.21554  0.69427  0.78987  1.0000
  C   C199      1.0  0.18898  0.68429  0.78668  1.0000
  C   C200      1.0  0.17711  0.70071  0.78748  1.0000
  C   C201      1.0  0.19145  0.72682  0.79163  1.0000
  H   H332      1.0  0.25054  0.72844  0.79616  1.0000
  H   H333      1.0  0.22488  0.68170  0.78909  1.0000
  H   H334      1.0  0.15663  0.69312  0.78508  1.0000
  H   H335      1.0  0.18192  0.73923  0.79239  1.0000
  C   C202      1.0  0.14157  0.58577  0.97484  1.0000
  C   C203      1.0  0.21999  0.76864  0.75607  1.0000
  Fe  Fe42      1.0  0.31435  0.87877  0.95594  1.0000
  H   H336      1.0  0.29428  0.83378  0.84803  1.0000
  H   H337      1.0  0.27714  0.94972  0.88424  1.0000
  H   H338      1.0  0.03789  0.53931  0.97557  1.0000
  H   H339      1.0  0.28321  0.78077  0.75799  1.0000
  C   C204      1.0  0.31482  0.86496  0.88184  1.0000
  H   H340      1.0  0.25233  0.52677  0.90249  1.0000
  H   H341      1.0  0.25559  0.75066  0.75325  1.0000
  C   C205      1.0  0.30680  0.84795  0.85612  1.0000
  H   H342      1.0  0.22618  0.68798  0.95425  1.0000
  H   H343      1.0  0.28041  0.83141  0.87448  1.0000
  C   C206      1.0  0.25824  0.51701  0.98118  1.0000
  N   N24       1.0  0.19471  0.68560  0.96793  1.0000
  C   C207      1.0  0.31609  0.61979  0.81677  1.0000
  H   H344      1.0  0.28805  0.66772  0.83029  1.0000
  H   H345      1.0  0.19777  0.70945  0.94878  1.0000
  C   C208      1.0  0.28382  0.70918  0.84109  1.0000
  H   H346      1.0  0.25815  0.65689  0.84044  1.0000
  S   S89       1.0  0.19905  0.52347  0.95903  1.0000
  C   C209      1.0  0.29579  0.94979  0.91191  1.0000
  H   H347      1.0  0.20878  0.72699  0.96619  1.0000
  H   H348      1.0  0.24803  0.82091  0.75783  1.0000
  C   C210      1.0  0.26829  0.66657  0.83000  1.0000
  C   C211      1.0  0.29617  0.94927  0.88482  1.0000
  H   H349      1.0  0.11056  0.55698  0.74378  1.0000
  H   H350      1.0  0.27150  0.69293  0.80420  1.0000
  H   H351      1.0  0.27426  0.70100  0.85192  1.0000
  H   H352      1.0  0.07207  0.53299  0.94220  1.0000
  C   C212      1.0  0.21773  0.53041  0.92103  1.0000
  H   H353      1.0  0.16862  0.68261  0.98568  1.0000
  C   C213      1.0  0.21504  0.77955  0.98445  1.0000
  H   H354      1.0  0.27955  0.89769  0.88859  1.0000
  C   C214      1.0  0.17543  0.66174  0.96046  1.0000
  H   H355      1.0  0.22179  0.67000  0.97131  1.0000
  H   H356      1.0  0.02773  0.53770  0.95631  1.0000
  C   C215      1.0  0.29630  0.62302  0.80928  1.0000
  S   S90       1.0  0.17187  0.53257  0.89343  1.0000
  Fe  Fe43      1.0  0.14609  0.52225  0.91434  1.0000
  C   C216      1.0  0.24267  0.52667  0.97375  1.0000
  H   H357      1.0  0.03907  0.51152  0.93763  1.0000
  C   C217      1.0  0.26094  0.82672  0.97897  1.0000
  H   H358      1.0  0.27676  0.95023  0.91213  1.0000
  H   H359      1.0  0.23151  0.67810  0.81826  1.0000
  C   C218      1.0  0.12446  0.62233  0.98352  1.0000
  H   H360      1.0  0.06083  0.49873  0.94341  1.0000
  C   C219      1.0  0.28259  0.70428  0.81414  1.0000
  S   S91       1.0  0.30304  0.77397  0.79140  1.0000
  C   C220      1.0  0.12122  0.60164  0.75865  1.0000
  C   C221      1.0  0.22079  0.68720  0.96627  1.0000
  C   C222      1.0  0.16226  0.61664  0.74615  1.0000
  H   H361      1.0  0.19776  0.52578  0.92453  1.0000
  H   H362      1.0  0.25026  0.54735  0.97197  1.0000
  H   H363      1.0  0.30220  0.70512  0.81363  1.0000
  C   C223      1.0  0.25739  0.80897  0.76200  1.0000
  C   C224      1.0  0.24283  0.69023  0.82792  1.0000
  H   H364      1.0  0.27868  0.82074  0.76094  1.0000
  C   C225      1.0  0.19404  0.70860  0.96103  1.0000
  H   H365      1.0  0.22117  0.61339  0.74007  1.0000
  H   H366      1.0  0.32318  0.61654  0.76251  1.0000
  H   H367      1.0  0.25792  0.65360  0.82045  1.0000
  H   H368      1.0  0.31201  0.60136  0.82190  1.0000
  H   H369      1.0  0.06494  0.51824  0.98319  1.0000
  C   C226      1.0  0.18856  0.68489  0.98402  1.0000
  H   H370      1.0  0.16549  0.63712  0.74739  1.0000
  H   H371      1.0  0.25815  0.90797  0.89799  1.0000
  H   H372      1.0  0.22629  0.49794  0.93940  1.0000
  H   H373      1.0  0.17970  0.66119  0.94835  1.0000
  C   C227      1.0  0.04344  0.53818  0.96376  1.0000
  H   H374      1.0  0.17490  0.70852  0.96268  1.0000
  H   H375      1.0  0.13960  0.56664  0.75469  1.0000
  C   C228      1.0  0.06936  0.51698  0.97118  1.0000
  C   C229      1.0  0.21739  0.50993  0.96875  1.0000
  H   H376      1.0  0.31159  0.96971  0.88452  1.0000
  H   H377      1.0  0.21241  0.74933  0.75041  1.0000
  C   C230      1.0  0.13128  0.57141  0.74455  1.0000
  H   H378      1.0  0.29799  0.93924  0.87451  1.0000
  H   H379      1.0  0.27750  0.53024  0.98502  1.0000
  C   C231      1.0  0.32316  0.84602  0.74357  1.0000
  C   C232      1.0  0.25323  0.78923  0.73755  1.0000
  H   H380      1.0  0.17280  0.61531  0.73604  1.0000
  Fe  Fe44      1.0  0.32373  0.83587  0.81643  1.0000
  H   H381      1.0  0.24874  0.49583  0.90905  1.0000
  C   C233      1.0  0.32391  0.93594  0.89879  1.0000
  Fe  Fe45      1.0  0.56272  0.38440  0.17396  1.0000
  S   S92       1.0  0.52425  0.35992  0.16272  1.0000
  S   S93       1.0  0.57293  0.40468  0.19685  1.0000
  Fe  Fe46      1.0  0.59273  0.37788  0.14766  1.0000
  S   S94       1.0  0.55735  0.35219  0.13449  1.0000
  S   S95       1.0  0.63104  0.38406  0.13838  1.0000
  Fe  Fe47      1.0  0.54229  0.38034  0.14115  1.0000
  S   S96       1.0  0.52089  0.39330  0.12409  1.0000
  Fe  Fe48      1.0  0.54202  0.33361  0.15656  1.0000
  S   S97       1.0  0.51860  0.29052  0.15820  1.0000
  S   S98       1.0  0.57918  0.40781  0.15295  1.0000
  S   S99       1.0  0.57888  0.35627  0.16920  1.0000
  S   S100      1.0  0.58182  0.22705  0.17079  1.0000
  S   S101      1.0  0.33982  0.48640  0.99337  1.0000
  S   S102      1.0  0.37214  0.46061  0.02775  1.0000
  Fe  Fe49      1.0  0.63735  0.17776  0.01350  1.0000
  C   C234      1.0  0.64545  0.33936  0.15589  1.0000
  H   H382      1.0  0.63477  0.37369  0.17068  1.0000
  S   S103      1.0  0.64198  0.15134  0.03047  1.0000
  Fe  Fe50      1.0  0.45711  0.38197  0.01342  1.0000
  S   S104      1.0  0.48656  0.40176  0.03182  1.0000
  S   S105      1.0  0.42415  0.38967  0.00388  1.0000
  Fe  Fe51      1.0  0.48429  0.34901  0.00258  1.0000
  S   S106      1.0  0.51586  0.36693  0.01992  1.0000
  H   H383      1.0  0.63735  0.33476  0.19361  1.0000
  Fe  Fe52      1.0  0.48441  0.36232  0.03615  1.0000
  S   S107      1.0  0.48808  0.34463  0.05836  1.0000
  Fe  Fe53      1.0  0.51625  0.40508  0.01461  1.0000
  H   H384      1.0  0.55696  0.40890  0.03832  1.0000
  S   S108      1.0  0.45239  0.34171  0.01908  1.0000
  S   S109      1.0  0.48737  0.38811  0.99603  1.0000
  C   C235      1.0  0.61582  0.24361  0.20992  1.0000
  H   H385      1.0  0.56838  0.24815  0.99529  1.0000
  S   S110      1.0  0.64360  0.19385  0.12074  1.0000
  H   H386      1.0  0.55019  0.04136  0.98938  1.0000
  C   C236      1.0  0.38692  0.44149  0.02060  1.0000
  C   C237      1.0  0.38223  0.43106  0.00606  1.0000
  C   C238      1.0  0.39401  0.41555  0.00111  1.0000
  C   C239      1.0  0.41087  0.41049  0.01052  1.0000
  C   C240      1.0  0.41599  0.42141  0.02494  1.0000
  C   C241      1.0  0.40392  0.43659  0.02997  1.0000
  H   H387      1.0  0.36897  0.43430  0.99878  1.0000
  C   C242      1.0  0.58807  0.17979  0.99307  1.0000
  H   H388      1.0  0.42875  0.41763  0.03236  1.0000
  H   H389      1.0  0.64495  0.45462  0.00056  1.0000
  C   C243      1.0  0.44155  0.28364  0.12312  1.0000
  C   C244      1.0  0.63196  0.06699  0.01202  1.0000
  C   C245      1.0  0.62058  0.06263  0.02622  1.0000
  C   C246      1.0  0.60661  0.03699  0.03163  1.0000
  H   H390      1.0  0.61393  0.21516  0.23419  1.0000
  C   C247      1.0  0.61332  0.01960  0.00830  1.0000
  Fe  Fe54      1.0  0.65310  0.22336  0.13984  1.0000
  C   C248      1.0  0.55408  0.02991  0.99818  1.0000
  H   H391      1.0  0.54353  0.00162  0.02304  1.0000
  H   H392      1.0  0.63792  0.28929  0.09200  1.0000
  C   C249      1.0  0.51283  0.38037  0.10561  1.0000
  C   C250      1.0  0.50004  0.38999  0.09584  1.0000
  C   C251      1.0  0.49270  0.37964  0.08122  1.0000
  C   C252      1.0  0.49799  0.35943  0.07628  1.0000
  C   C253      1.0  0.51062  0.34973  0.08610  1.0000
  C   C254      1.0  0.51823  0.36029  0.10060  1.0000
  H   H393      1.0  0.49550  0.40533  0.09965  1.0000
  H   H394      1.0  0.48234  0.38681  0.07395  1.0000
  H   H395      1.0  0.51462  0.33396  0.08243  1.0000
  H   H396      1.0  0.52809  0.35270  0.10793  1.0000
  H   H397      1.0  0.40768  0.44443  0.04125  1.0000
  C   C255      1.0  0.59632  0.21770  0.23178  1.0000
  H   H398      1.0  0.59885  0.03395  0.04286  1.0000
  C   C256      1.0  0.62791  0.04524  0.00307  1.0000
  H   H399      1.0  0.43274  0.47999  0.00847  1.0000
  C   C257      1.0  0.56630  0.45468  0.99622  1.0000
  H   H400      1.0  0.63367  0.43309  0.14882  1.0000
  C   C258      1.0  0.53718  0.27384  0.16154  1.0000
  C   C259      1.0  0.52485  0.24871  0.16730  1.0000
  C   C260      1.0  0.53890  0.23475  0.17010  1.0000
  C   C261      1.0  0.56529  0.24553  0.16685  1.0000
  C   C262      1.0  0.57781  0.27067  0.16095  1.0000
  C   C263      1.0  0.56376  0.28496  0.15842  1.0000
  H   H401      1.0  0.50437  0.24004  0.16970  1.0000
  H   H402      1.0  0.52916  0.21533  0.17463  1.0000
  H   H403      1.0  0.59818  0.27898  0.15833  1.0000
  H   H404      1.0  0.57329  0.30429  0.15379  1.0000
  H   H405      1.0  0.38113  0.46581  0.06337  1.0000
  C   C264      1.0  0.53739  0.36737  0.21560  1.0000
  C   C265      1.0  0.56159  0.38892  0.21427  1.0000
  S   S111      1.0  0.63925  0.21223  0.16366  1.0000
  Fe  Fe55      1.0  0.35213  0.48325  0.01695  1.0000
  H   H406      1.0  0.52564  0.35908  0.20568  1.0000
  H   H407      1.0  0.43861  0.26324  0.12421  1.0000
  H   H408      1.0  0.50368  0.01908  0.99636  1.0000
  H   H409      1.0  0.42380  0.28443  0.12728  1.0000
  H   H410      1.0  0.56199  0.46105  0.23457  1.0000
  H   H411      1.0  0.54818  0.40595  0.07955  1.0000
  H   H412      1.0  0.44444  0.29541  0.15244  1.0000
  S   S112      1.0  0.65554  0.27441  0.16959  1.0000
  H   H413      1.0  0.62609  0.33779  0.15287  1.0000
  H   H414      1.0  0.57464  0.39985  0.05177  1.0000
  C   C266      1.0  0.63282  0.32900  0.18163  1.0000
  C   C267      1.0  0.58699  0.45085  0.05462  1.0000
  H   H415      1.0  0.51281  0.01964  0.01575  1.0000
  H   H416      1.0  0.62352  0.17262  0.09173  1.0000
  S   S113      1.0  0.59769  0.17596  0.01124  1.0000
  H   H417      1.0  0.63041  0.24588  0.08364  1.0000
  H   H418      1.0  0.61432  0.24591  0.19761  1.0000
  H   H419      1.0  0.52242  0.41769  0.06081  1.0000
  H   H420      1.0  0.44418  0.22958  0.99310  1.0000
  H   H421      1.0  0.33604  0.48150  0.06833  1.0000
  C   C268      1.0  0.50962  0.19524  0.99305  1.0000
  H   H422      1.0  0.51791  0.23723  0.01018  1.0000
  H   H423      1.0  0.57133  0.02748  0.99465  1.0000
  H   H424      1.0  0.50878  0.34099  0.23080  1.0000
  C   C269      1.0  0.56567  0.42312  0.07557  1.0000
  C   C270      1.0  0.50889  0.00841  0.00506  1.0000
  C   C271      1.0  0.60300  0.01525  0.02277  1.0000
  C   C272      1.0  0.56209  0.16563  0.98865  1.0000
  H   H425      1.0  0.53893  0.43932  0.04583  1.0000
  H   H426      1.0  0.58246  0.41892  0.07747  1.0000
  H   H427      1.0  0.64305  0.28136  0.11076  1.0000
  H   H428      1.0  0.64408  0.17519  0.06700  1.0000
  H   H429      1.0  0.63155  0.30925  0.18022  1.0000
  Fe  Fe56      1.0  0.62123  0.23929  0.16110  1.0000
  S   S114      1.0  0.55403  0.44206  0.01406  1.0000
  H   H430      1.0  0.45570  0.27571  0.99923  1.0000
  H   H431      1.0  0.56173  0.21531  0.99109  1.0000
  N   N25       1.0  0.46478  0.30185  0.13151  1.0000
  C   C273      1.0  0.48780  0.30020  0.12555  1.0000
  C   C274      1.0  0.46798  0.32864  0.12980  1.0000
  C   C275      1.0  0.46189  0.29493  0.14758  1.0000
  H   H432      1.0  0.50558  0.31364  0.13169  1.0000
  H   H433      1.0  0.49074  0.30537  0.11346  1.0000
  H   H434      1.0  0.48633  0.28036  0.12688  1.0000
  H   H435      1.0  0.44324  0.28834  0.11094  1.0000
  H   H436      1.0  0.45120  0.33083  0.13437  1.0000
  H   H437      1.0  0.47008  0.33453  0.11781  1.0000
  H   H438      1.0  0.48560  0.34293  0.13581  1.0000
  H   H439      1.0  0.47894  0.30863  0.15425  1.0000
  N   N26       1.0  0.56306  0.42845  0.05960  1.0000
  C   C276      1.0  0.55860  0.40534  0.05045  1.0000
  H   H440      1.0  0.38970  0.40710  0.98997  1.0000
  H   H441      1.0  0.56643  0.22591  0.20077  1.0000
  H   H442      1.0  0.58844  0.19853  0.19518  1.0000
  H   H443      1.0  0.55189  0.20647  0.21687  1.0000
  S   S115      1.0  0.65259  0.09889  0.00523  1.0000
  C   C277      1.0  0.56942  0.22365  0.21291  1.0000
  H   H444      1.0  0.59533  0.41605  0.22638  1.0000
  H   H445      1.0  0.54035  0.38817  0.05367  1.0000
  C   C278      1.0  0.54094  0.43450  0.05770  1.0000
  H   H446      1.0  0.62314  0.07901  0.03317  1.0000
  C   C279      1.0  0.59094  0.19709  0.20748  1.0000
  H   H447      1.0  0.60859  0.19427  0.20907  1.0000
  H   H448      1.0  0.53217  0.26074  0.99552  1.0000
  H   H449      1.0  0.36579  0.46552  0.08090  1.0000
  H   H450      1.0  0.54318  0.45135  0.06478  1.0000
  H   H451      1.0  0.60410  0.44696  0.05581  1.0000
  H   H452      1.0  0.56834  0.43983  0.08292  1.0000
  H   H453      1.0  0.65501  0.23536  0.08600  1.0000
  H   H454      1.0  0.40469  0.47511  0.98595  1.0000
  C   C280      1.0  0.65282  0.28929  0.09994  1.0000
  C   C281      1.0  0.65592  0.18506  0.07663  1.0000
  S   S116      1.0  0.63191  0.24755  0.13705  1.0000
  H   H455      1.0  0.59089  0.46865  0.06127  1.0000
  C   C282      1.0  0.65306  0.43534  0.14733  1.0000
  C   C283      1.0  0.57652  0.39950  0.22731  1.0000
  H   H456      1.0  0.58552  0.45534  0.04260  1.0000
  H   H457      1.0  0.46043  0.27518  0.14938  1.0000
  H   H458      1.0  0.63667  0.04824  0.99210  1.0000
  H   H459      1.0  0.54842  0.15154  0.99620  1.0000
  H   H460      1.0  0.63410  0.24211  0.21197  1.0000
  H   H461      1.0  0.64197  0.11473  0.07451  1.0000
  H   H462      1.0  0.61322  0.32737  0.17917  1.0000
  H   H463      1.0  0.57036  0.24113  0.21881  1.0000
  H   H464      1.0  0.59382  0.49184  0.00506  1.0000
  N   N27       1.0  0.59313  0.22052  0.21552  1.0000
  H   H465      1.0  0.55962  0.04178  0.00867  1.0000
  H   H466      1.0  0.51603  0.18159  0.98778  1.0000
  C   C284      1.0  0.65347  0.37381  0.17378  1.0000
  C   C285      1.0  0.55392  0.22753  0.99674  1.0000
  H   H467      1.0  0.49954  0.23588  0.99370  1.0000
  H   H468      1.0  0.50701  0.19074  0.00522  1.0000
  H   H469      1.0  0.40053  0.30283  0.98793  1.0000
  N   N28       1.0  0.65249  0.34792  0.17162  1.0000
  C   C286      1.0  0.65535  0.20631  0.22504  1.0000
  H   H470      1.0  0.61123  0.00324  0.00142  1.0000
  C   C287      1.0  0.58642  0.48002  0.99506  1.0000
  H   H471      1.0  0.63694  0.23701  0.10191  1.0000
  N   N29       1.0  0.53143  0.00447  0.00049  1.0000
  H   H472      1.0  0.61786  0.26172  0.21552  1.0000
  C   C288      1.0  0.52786  0.35717  0.22987  1.0000
  C   C289      1.0  0.65706  0.41450  0.14213  1.0000
  H   H473      1.0  0.64471  0.31999  0.15382  1.0000
  C   C290      1.0  0.64428  0.18375  0.09066  1.0000
  C   C291      1.0  0.51919  0.23992  0.99781  1.0000
  H   H474      1.0  0.35046  0.47751  0.05137  1.0000
  H   H475      1.0  0.49024  0.19077  0.98821  1.0000
  H   H476      1.0  0.57413  0.17923  0.21144  1.0000
  H   H477      1.0  0.55271  0.22300  0.00892  1.0000
  H   H478      1.0  0.41664  0.33644  0.99351  1.0000
  C   C292      1.0  0.35252  0.49144  0.06056  1.0000
  S   S117      1.0  0.65516  0.16563  0.99478  1.0000
  N   N30       1.0  0.52840  0.22260  0.99045  1.0000
  C   C293      1.0  0.64612  0.24692  0.09128  1.0000
  H   H479      1.0  0.43514  0.31923  0.98898  1.0000
  C   C294      1.0  0.38144  0.47808  0.07317  1.0000
  H   H480      1.0  0.40027  0.48424  0.07911  1.0000
  C   C295      1.0  0.46295  0.27098  0.98911  1.0000
  H   H481      1.0  0.64060  0.18641  0.22586  1.0000
  C   C296      1.0  0.65123  0.12059  0.06334  1.0000
  H   H482      1.0  0.63640  0.10970  0.05463  1.0000
  H   H483      1.0  0.62559  0.20936  0.98682  1.0000
  H   H484      1.0  0.64398  0.49572  0.99424  1.0000
  H   H485      1.0  0.65244  0.07627  0.05452  1.0000
  H   H486      1.0  0.65798  0.38059  0.18561  1.0000
  H   H487      1.0  0.65658  0.14156  0.06194  1.0000
  H   H488      1.0  0.65689  0.08028  0.07449  1.0000
  C   C297      1.0  0.41772  0.32167  0.98580  1.0000
  Fe  Fe57      1.0  0.46434  0.33879  0.44555  1.0000
  S   S118      1.0  0.50512  0.37057  0.44537  1.0000
  S   S119      1.0  0.46495  0.29933  0.44834  1.0000
  Fe  Fe58      1.0  0.44320  0.37858  0.43703  1.0000
  S   S120      1.0  0.48309  0.41203  0.43654  1.0000
  S   S121      1.0  0.40872  0.38504  0.42900  1.0000
  Fe  Fe59      1.0  0.49426  0.38436  0.42417  1.0000
  S   S122      1.0  0.52281  0.39671  0.40480  1.0000
  Fe  Fe60      1.0  0.48975  0.39458  0.45761  1.0000
  H   H489      1.0  0.55634  0.15636  0.34900  1.0000
  S   S123      1.0  0.45422  0.35161  0.42351  1.0000
  S   S124      1.0  0.44910  0.36228  0.45897  1.0000
  S   S125      1.0  0.61956  0.15508  0.43464  1.0000
  H   H490      1.0  0.59292  0.22766  0.34173  1.0000
  H   H491      1.0  0.53120  0.46113  0.27115  1.0000
  S   S126      1.0  0.61790  0.20195  0.46834  1.0000
  H   H492      1.0  0.56248  0.19598  0.32426  1.0000
  H   H493      1.0  0.56204  0.16472  0.32159  1.0000
  H   H494      1.0  0.59664  0.46851  0.26273  1.0000
  Fe  Fe61      1.0  0.53963  0.37670  0.31740  1.0000
  S   S127      1.0  0.53753  0.39888  0.29708  1.0000
  S   S128      1.0  0.50844  0.36388  0.33550  1.0000
  Fe  Fe62      1.0  0.58860  0.37527  0.30622  1.0000
  S   S129      1.0  0.59094  0.39751  0.28526  1.0000
  S   S130      1.0  0.62262  0.36728  0.31089  1.0000
  Fe  Fe63      1.0  0.58036  0.42226  0.30032  1.0000
  S   S131      1.0  0.59972  0.46551  0.29778  1.0000
  Fe  Fe64      1.0  0.54828  0.37242  0.28327  1.0000
  S   S132      1.0  0.52873  0.35628  0.26074  1.0000
  S   S133      1.0  0.58182  0.40257  0.32161  1.0000
  S   S134      1.0  0.54646  0.34769  0.30325  1.0000
  S   S135      1.0  0.60190  0.24990  0.30938  1.0000
  C   C298      1.0  0.56728  0.38884  0.24153  1.0000
  C   C299      1.0  0.54985  0.45998  0.27191  1.0000
  C   C300      1.0  0.54556  0.14312  0.47310  1.0000
  C   C301      1.0  0.53244  0.15551  0.48015  1.0000
  C   C302      1.0  0.40602  0.06718  0.48479  1.0000
  C   C303      1.0  0.46675  0.24308  0.47564  1.0000
  C   C304      1.0  0.64671  0.46423  0.30093  1.0000
  H   H495      1.0  0.63642  0.44362  0.29865  1.0000
  C   C305      1.0  0.61639  0.33454  0.31047  1.0000
  C   C306      1.0  0.59110  0.31457  0.31095  1.0000
  C   C307      1.0  0.58667  0.28852  0.31072  1.0000
  C   C308      1.0  0.60751  0.28246  0.30978  1.0000
  C   C309      1.0  0.63281  0.30245  0.30923  1.0000
  C   C310      1.0  0.63724  0.32845  0.30976  1.0000
  H   H496      1.0  0.57495  0.31911  0.31165  1.0000
  H   H497      1.0  0.56709  0.27310  0.31113  1.0000
  H   H498      1.0  0.39205  0.06483  0.47560  1.0000
  H   H499      1.0  0.49309  0.44571  0.38377  1.0000
  H   H500      1.0  0.46123  0.09805  0.46466  1.0000
  H   H501      1.0  0.53568  0.12241  0.47094  1.0000
  H   H502      1.0  0.57902  0.39698  0.25144  1.0000
  C   C311      1.0  0.61383  0.06322  0.44369  1.0000
  C   C312      1.0  0.60408  0.04260  0.45402  1.0000
  C   C313      1.0  0.58965  0.01645  0.44923  1.0000
  C   C314      1.0  0.58526  0.01031  0.43393  1.0000
  C   C315      1.0  0.59500  0.03094  0.42359  1.0000
  C   C316      1.0  0.60885  0.05715  0.42841  1.0000
  H   H503      1.0  0.47823  0.33276  0.47562  1.0000
  H   H504      1.0  0.57861  0.17955  0.36207  1.0000
  H   H505      1.0  0.59196  0.02662  0.41173  1.0000
  C   C317      1.0  0.60449  0.21656  0.34193  1.0000
  C   C318      1.0  0.40190  0.41172  0.43309  1.0000
  C   C319      1.0  0.38174  0.41395  0.42528  1.0000
  C   C320      1.0  0.37564  0.43473  0.42819  1.0000
  C   C321      1.0  0.38942  0.45341  0.43915  1.0000
  C   C322      1.0  0.40963  0.45122  0.44690  1.0000
  C   C323      1.0  0.41597  0.43067  0.44384  1.0000
  H   H506      1.0  0.37068  0.39943  0.41694  1.0000
  C   C324      1.0  0.56896  0.17746  0.35093  1.0000
  H   H507      1.0  0.42044  0.46550  0.45542  1.0000
  H   H508      1.0  0.43149  0.42930  0.44999  1.0000
  C   C325      1.0  0.51810  0.38761  0.38552  1.0000
  C   C326      1.0  0.53961  0.39747  0.37596  1.0000
  C   C327      1.0  0.53702  0.39045  0.36064  1.0000
  C   C328      1.0  0.51282  0.37343  0.35470  1.0000
  C   C329      1.0  0.49128  0.36356  0.36428  1.0000
  C   C330      1.0  0.49386  0.37060  0.37960  1.0000
  H   H509      1.0  0.55845  0.41065  0.38041  1.0000
  H   H510      1.0  0.55373  0.39823  0.35342  1.0000
  H   H511      1.0  0.47249  0.35037  0.35978  1.0000
  H   H512      1.0  0.47710  0.36278  0.38676  1.0000
  C   C331      1.0  0.52782  0.35910  0.48263  1.0000
  C   C332      1.0  0.55277  0.44986  0.46681  1.0000
  C   C333      1.0  0.60462  0.17500  0.33829  1.0000
  H   H513      1.0  0.58866  0.19377  0.31500  1.0000
  H   H514      1.0  0.33359  0.45295  0.48510  1.0000
  H   H515      1.0  0.54453  0.44083  0.45614  1.0000
  H   H516      1.0  0.64895  0.29787  0.30854  1.0000
  N   N31       1.0  0.55577  0.45027  0.25778  1.0000
  H   H517      1.0  0.65683  0.34382  0.30958  1.0000
  C   C334      1.0  0.58468  0.18398  0.47201  1.0000
  C   C335      1.0  0.57164  0.15731  0.46903  1.0000
  H   H518      1.0  0.46685  0.42918  0.37084  1.0000
  H   H519      1.0  0.58177  0.14755  0.46381  1.0000
  H   H520      1.0  0.61979  0.22539  0.33332  1.0000
  C   C336      1.0  0.64128  0.40478  0.34468  1.0000
  H   H521      1.0  0.42886  0.09204  0.45948  1.0000
  C   C337      1.0  0.47025  0.26021  0.46358  1.0000
  C   C338      1.0  0.45988  0.27817  0.46396  1.0000
  H   H522      1.0  0.37252  0.49329  0.31087  1.0000
  H   H523      1.0  0.52950  0.37872  0.48006  1.0000
  H   H524      1.0  0.46212  0.46162  0.40619  1.0000
  H   H525      1.0  0.58259  0.00099  0.45737  1.0000
  H   H526      1.0  0.45195  0.38986  0.38636  1.0000
  C   C339      1.0  0.42843  0.42062  0.39029  1.0000
  C   C340      1.0  0.58856  0.48285  0.48120  1.0000
  H   H527      1.0  0.41465  0.04440  0.46050  1.0000
  H   H528      1.0  0.61632  0.07258  0.42025  1.0000
  C   C341      1.0  0.33754  0.44883  0.47345  1.0000
  C   C342      1.0  0.54258  0.36805  0.24293  1.0000
  C   C343      1.0  0.57138  0.19647  0.47880  1.0000
  C   C344      1.0  0.53861  0.44074  0.47996  1.0000
  H   H529      1.0  0.61417  0.21979  0.35309  1.0000
  S   S136      1.0  0.63393  0.09566  0.45046  1.0000
  H   H530      1.0  0.35418  0.44403  0.47379  1.0000
  H   H531      1.0  0.47484  0.22941  0.47513  1.0000
  H   H532      1.0  0.60783  0.04685  0.46586  1.0000
  H   H533      1.0  0.51570  0.42371  0.25369  1.0000
  Fe  Fe65      1.0  0.63741  0.18452  0.45314  1.0000
  C   C345      1.0  0.47251  0.44100  0.38136  1.0000
  S   S137      1.0  0.50723  0.41466  0.47960  1.0000
  N   N32       1.0  0.45558  0.42687  0.39395  1.0000
  H   H534      1.0  0.52445  0.34828  0.47181  1.0000
  H   H535      1.0  0.42019  0.03022  0.47720  1.0000
  C   C346      1.0  0.46377  0.44324  0.40764  1.0000
  S   S138      1.0  0.38174  0.47921  0.44416  1.0000
  H   H536      1.0  0.47779  0.40653  0.39957  1.0000
  S   S139      1.0  0.63570  0.20837  0.29785  1.0000
  H   H537      1.0  0.53830  0.41643  0.24350  1.0000
  H   H538      1.0  0.56537  0.47961  0.27496  1.0000
  Fe  Fe66      1.0  0.64560  0.13778  0.44272  1.0000
  C   C347      1.0  0.63327  0.47935  0.30111  1.0000
  H   H539      1.0  0.48420  0.44842  0.41072  1.0000
  H   H540      1.0  0.62019  0.18367  0.32979  1.0000
  H   H541      1.0  0.32813  0.43964  0.44401  1.0000
  H   H542      1.0  0.45154  0.43299  0.41739  1.0000
  H   H543      1.0  0.58640  0.44300  0.24883  1.0000
  C   C348      1.0  0.54527  0.18228  0.48280  1.0000
  H   H544      1.0  0.64213  0.38582  0.34443  1.0000
  H   H545      1.0  0.47162  0.45958  0.37911  1.0000
  H   H546      1.0  0.36011  0.43611  0.42207  1.0000
  H   H547      1.0  0.63551  0.40774  0.35612  1.0000
  N   N33       1.0  0.50895  0.31505  0.40771  1.0000
  C   C349      1.0  0.52444  0.33143  0.42035  1.0000
  C   C350      1.0  0.52386  0.32377  0.39368  1.0000
  C   C351      1.0  0.48467  0.31745  0.40626  1.0000
  C   C352      1.0  0.50274  0.28762  0.41058  1.0000
  H   H548      1.0  0.51366  0.32543  0.43110  1.0000
  H   H549      1.0  0.52937  0.35229  0.41857  1.0000
  H   H550      1.0  0.54293  0.33012  0.42181  1.0000
  H   H551      1.0  0.51259  0.31221  0.38382  1.0000
  H   H552      1.0  0.52902  0.34452  0.39135  1.0000
  H   H553      1.0  0.54223  0.32202  0.39428  1.0000
  H   H554      1.0  0.47284  0.30613  0.39651  1.0000
  H   H555      1.0  0.48874  0.33805  0.40469  1.0000
  H   H556      1.0  0.47253  0.31028  0.41646  1.0000
  H   H557      1.0  0.49092  0.27468  0.40130  1.0000
  H   H558      1.0  0.49144  0.28060  0.42113  1.0000
  H   H559      1.0  0.52059  0.28500  0.41179  1.0000
  N   N34       1.0  0.58819  0.18862  0.33886  1.0000
  Fe  Fe67      1.0  0.63807  0.24749  0.30274  1.0000
  C   C353      1.0  0.44568  0.27854  0.47656  1.0000
  C   C354      1.0  0.57467  0.18551  0.32432  1.0000
  H   H560      1.0  0.62557  0.40274  0.33677  1.0000
  H   H561      1.0  0.42155  0.40828  0.38002  1.0000
  C   C355      1.0  0.57768  0.47087  0.46745  1.0000
  H   H562      1.0  0.42603  0.43852  0.38845  1.0000
  H   H563      1.0  0.64872  0.45032  0.33288  1.0000
  H   H564      1.0  0.34410  0.46722  0.46707  1.0000
  H   H565      1.0  0.61424  0.17599  0.34929  1.0000
  H   H566      1.0  0.48104  0.25945  0.45389  1.0000
  C   C356      1.0  0.53501  0.42396  0.25440  1.0000
  H   H567      1.0  0.41522  0.40975  0.39958  1.0000
  H   H568      1.0  0.59315  0.15409  0.33536  1.0000
  H   H569      1.0  0.59831  0.23512  0.23821  1.0000
  H   H570      1.0  0.55629  0.18733  0.35170  1.0000
  C   C357      1.0  0.58074  0.44925  0.25944  1.0000
  C   C358      1.0  0.45764  0.40254  0.39652  1.0000
  H   H571      1.0  0.44483  0.39117  0.40579  1.0000
  H   H572      1.0  0.53902  0.46915  0.24381  1.0000
  H   H573      1.0  0.64969  0.23063  0.37392  1.0000
  N   N35       1.0  0.43137  0.07114  0.47890  1.0000
  H   H574      1.0  0.35414  0.48028  0.28495  1.0000
  H   H575      1.0  0.58853  0.47798  0.45722  1.0000
  H   H576      1.0  0.53386  0.40975  0.26316  1.0000
  C   C359      1.0  0.42815  0.04801  0.47014  1.0000
  S   S140      1.0  0.65037  0.20765  0.25558  1.0000
  H   H577      1.0  0.43676  0.29149  0.47688  1.0000
  S   S141      1.0  0.64807  0.19920  0.39877  1.0000
  H   H578      1.0  0.57309  0.48794  0.24756  1.0000
  H   H579      1.0  0.44699  0.05036  0.46561  1.0000
  C   C360      1.0  0.44192  0.09426  0.46916  1.0000
  H   H580      1.0  0.44470  0.11205  0.47548  1.0000
  Fe  Fe68      1.0  0.65385  0.18223  0.42088  1.0000
  H   H581      1.0  0.32957  0.49039  0.30455  1.0000
  C   C361      1.0  0.65657  0.21707  0.36996  1.0000
  H   H582      1.0  0.57975  0.43537  0.26833  1.0000
  H   H583      1.0  0.33681  0.41601  0.45173  1.0000
  H   H584      1.0  0.54845  0.44706  0.28146  1.0000
  C   C362      1.0  0.55754  0.46793  0.24539  1.0000
  H   H585      1.0  0.58137  0.21716  0.48099  1.0000
  H   H586      1.0  0.48196  0.36142  0.48543  1.0000
  H   H587      1.0  0.50105  0.30742  0.48569  1.0000
  H   H588      1.0  0.57960  0.20045  0.23641  1.0000
  C   C363      1.0  0.57449  0.47351  0.49438  1.0000
  Fe  Fe69      1.0  0.59513  0.25099  0.64807  1.0000
  S   S142      1.0  0.57031  0.26103  0.63259  1.0000
  S   S143      1.0  0.63454  0.25484  0.64262  1.0000
  Fe  Fe70      1.0  0.55746  0.23502  0.67397  1.0000
  S   S144      1.0  0.52831  0.24261  0.66072  1.0000
  S   S145      1.0  0.55776  0.22108  0.69794  1.0000
  Fe  Fe71      1.0  0.53767  0.22418  0.64068  1.0000
  S   S146      1.0  0.50473  0.20058  0.62432  1.0000
  Fe  Fe72      1.0  0.56236  0.27884  0.65309  1.0000
  S   S147      1.0  0.55786  0.31560  0.65207  1.0000
  S   S148      1.0  0.56325  0.21247  0.65473  1.0000
  S   S149      1.0  0.59078  0.27295  0.66779  1.0000
  Fe  Fe73      1.0  0.43321  0.13107  0.52085  1.0000
  S   S150      1.0  0.47235  0.13303  0.52472  1.0000
  S   S151      1.0  0.39536  0.09334  0.52334  1.0000
  Fe  Fe74      1.0  0.45687  0.18863  0.50988  1.0000
  S   S152      1.0  0.49754  0.19346  0.51277  1.0000
  C   C364      1.0  0.54150  0.15758  0.52431  1.0000
  Fe  Fe75      1.0  0.48241  0.15355  0.50263  1.0000
  C   C365      1.0  0.48195  0.34225  0.48685  1.0000
  Fe  Fe76      1.0  0.48410  0.17276  0.53485  1.0000
  S   S153      1.0  0.51486  0.18913  0.55351  1.0000
  H   H589      1.0  0.43104  0.26182  0.49822  1.0000
  S   S154      1.0  0.44399  0.16971  0.53262  1.0000
  C   C366      1.0  0.62595  0.39416  0.68026  1.0000
  C   C367      1.0  0.38978  0.06022  0.52276  1.0000
  C   C368      1.0  0.41004  0.05326  0.52332  1.0000
  C   C369      1.0  0.40486  0.02689  0.52211  1.0000
  C   C370      1.0  0.37938  0.00702  0.52047  1.0000
  C   C371      1.0  0.35903  0.01389  0.52026  1.0000
  C   C372      1.0  0.36424  0.04031  0.52138  1.0000
  H   H590      1.0  0.42972  0.06823  0.52468  1.0000
  H   H591      1.0  0.42077  0.02184  0.52247  1.0000
  H   H592      1.0  0.58414  0.15900  0.73307  1.0000
  H   H593      1.0  0.34837  0.04541  0.52099  1.0000
  C   C373      1.0  0.65738  0.28693  0.64599  1.0000
  C   C374      1.0  0.65521  0.37963  0.66906  1.0000
  C   C375      1.0  0.65280  0.47344  0.71311  1.0000
  C   C376      1.0  0.51587  0.25981  0.60199  1.0000
  H   H594      1.0  0.48881  0.30774  0.50403  1.0000
  H   H595      1.0  0.51356  0.37990  0.50555  1.0000
  C   C377      1.0  0.50792  0.19699  0.60471  1.0000
  C   C378      1.0  0.53210  0.20699  0.59778  1.0000
  C   C379      1.0  0.53377  0.20443  0.58213  1.0000
  C   C380      1.0  0.51135  0.19196  0.57317  1.0000
  C   C381      1.0  0.48716  0.18211  0.58007  1.0000
  C   C382      1.0  0.48549  0.18456  0.59575  1.0000
  H   H596      1.0  0.54953  0.21656  0.60449  1.0000
  H   H597      1.0  0.55260  0.21211  0.57694  1.0000
  H   H598      1.0  0.46973  0.17242  0.57337  1.0000
  H   H599      1.0  0.46667  0.17676  0.60097  1.0000
  C   C383      1.0  0.55174  0.23449  0.71453  1.0000
  C   C384      1.0  0.57111  0.24447  0.72567  1.0000
  H   H600      1.0  0.58716  0.15687  0.51888  1.0000
  H   H601      1.0  0.49624  0.35026  0.51574  1.0000
  C   C385      1.0  0.52651  0.22970  0.71822  1.0000
  H   H602      1.0  0.59066  0.24824  0.72290  1.0000
  H   H603      1.0  0.51126  0.22142  0.70987  1.0000
  C   C386      1.0  0.62930  0.38476  0.63441  1.0000
  C   C387      1.0  0.61000  0.38857  0.64179  1.0000
  C   C388      1.0  0.58738  0.36713  0.64646  1.0000
  C   C389      1.0  0.58446  0.34189  0.64425  1.0000
  C   C390      1.0  0.60319  0.33802  0.63627  1.0000
  C   C391      1.0  0.62536  0.35945  0.63109  1.0000
  H   H604      1.0  0.61252  0.40798  0.64403  1.0000
  H   H605      1.0  0.57266  0.37020  0.65237  1.0000
  H   H606      1.0  0.60077  0.31858  0.63423  1.0000
  H   H607      1.0  0.63996  0.35639  0.62507  1.0000
  H   H608      1.0  0.59583  0.19541  0.54422  1.0000
  H   H609      1.0  0.55371  0.20740  0.53032  1.0000
  H   H610      1.0  0.56271  0.18261  0.55007  1.0000
  S   S155      1.0  0.44760  0.22261  0.50397  1.0000
  N   N36       1.0  0.56776  0.17908  0.52644  1.0000
  H   H611      1.0  0.55110  0.29790  0.61925  1.0000
  H   H612      1.0  0.63089  0.30279  0.64115  1.0000
  H   H613      1.0  0.57607  0.16083  0.54530  1.0000
  H   H614      1.0  0.61882  0.39907  0.69080  1.0000
  H   H615      1.0  0.53866  0.44552  0.50396  1.0000
  C   C392      1.0  0.54953  0.45256  0.49374  1.0000
  H   H616      1.0  0.64365  0.34897  0.69314  1.0000
  H   H617      1.0  0.58693  0.22073  0.52456  1.0000
  C   C393      1.0  0.50488  0.31909  0.49622  1.0000
  N   N37       1.0  0.51104  0.27657  0.61286  1.0000
  N   N38       1.0  0.64426  0.38326  0.68331  1.0000
  H   H618      1.0  0.52753  0.15955  0.53211  1.0000
  C   C394      1.0  0.56747  0.20403  0.52298  1.0000
  H   H619      1.0  0.53192  0.31437  0.62305  1.0000
  C   C395      1.0  0.52051  0.23377  0.73300  1.0000
  H   H620      1.0  0.49834  0.24090  0.60031  1.0000
  H   H621      1.0  0.35421  0.00471  0.56624  1.0000
  H   H622      1.0  0.60576  0.19152  0.51712  1.0000
  S   S156      1.0  0.44262  0.14978  0.49810  1.0000
  H   H623      1.0  0.56135  0.20445  0.51120  1.0000
  C   C396      1.0  0.51198  0.36010  0.50749  1.0000
  H   H624      1.0  0.53160  0.25520  0.60600  1.0000
  H   H625      1.0  0.50047  0.27540  0.63609  1.0000
  H   H626      1.0  0.54930  0.14334  0.73334  1.0000
  C   C397      1.0  0.50356  0.26313  0.62740  1.0000
  C   C398      1.0  0.48987  0.28195  0.60723  1.0000
  H   H627      1.0  0.51887  0.25831  0.63174  1.0000
  H   H628      1.0  0.48564  0.24439  0.62640  1.0000
  H   H629      1.0  0.49484  0.29208  0.59625  1.0000
  H   H630      1.0  0.48570  0.29447  0.61524  1.0000
  H   H631      1.0  0.47167  0.26363  0.60562  1.0000
  C   C399      1.0  0.63044  0.35783  0.69075  1.0000
  H   H632      1.0  0.61440  0.34379  0.68351  1.0000
  C   C400      1.0  0.44947  0.07514  0.49152  1.0000
  H   H633      1.0  0.44267  0.05772  0.49878  1.0000
  H   H634      1.0  0.63984  0.36541  0.66163  1.0000
  H   H635      1.0  0.52309  0.32041  0.50124  1.0000
  C   C401      1.0  0.58591  0.17516  0.51631  1.0000
  H   H636      1.0  0.58280  0.48246  0.50505  1.0000
  H   H637      1.0  0.33931  0.99894  0.51903  1.0000
  S   S157      1.0  0.65052  0.45725  0.69570  1.0000
  H   H638      1.0  0.62177  0.35975  0.70151  1.0000
  H   H639      1.0  0.53507  0.19204  0.48790  1.0000
  H   H640      1.0  0.54103  0.13835  0.52637  1.0000
  S   S158      1.0  0.63976  0.46131  0.65163  1.0000
  H   H641      1.0  0.45167  0.09193  0.49867  1.0000
  H   H642      1.0  0.63818  0.43773  0.72556  1.0000
  H   H643      1.0  0.53417  0.15720  0.51271  1.0000
  C   C402      1.0  0.57603  0.17951  0.54220  1.0000
  H   H644      1.0  0.52160  0.26916  0.59084  1.0000
  N   N39       1.0  0.50667  0.34512  0.49331  1.0000
  C   C403      1.0  0.44226  0.26148  0.48862  1.0000
  H   H645      1.0  0.54121  0.31195  0.60411  1.0000
  C   C404      1.0  0.53482  0.30128  0.61485  1.0000
  H   H646      1.0  0.57961  0.17374  0.50439  1.0000
  H   H647      1.0  0.38276  0.00212  0.57214  1.0000
  C   C405      1.0  0.65047  0.30711  0.64432  1.0000
  H   H648      1.0  0.60877  0.38024  0.67385  1.0000
  H   H649      1.0  0.56633  0.17293  0.72310  1.0000
  C   C406      1.0  0.64517  0.45855  0.72626  1.0000
  H   H650      1.0  0.46913  0.07932  0.48747  1.0000
  H   H651      1.0  0.46528  0.33038  0.49415  1.0000
  H   H652      1.0  0.53048  0.36265  0.51274  1.0000
  H   H653      1.0  0.37440  0.99998  0.55260  1.0000
  H   H654      1.0  0.63518  0.41240  0.67365  1.0000
  C   C407      1.0  0.45266  0.24354  0.48827  1.0000
  H   H655      1.0  0.39717  0.04950  0.49188  1.0000
  H   H656      1.0  0.40788  0.08396  0.49187  1.0000
  H   H657      1.0  0.54685  0.36191  0.48720  1.0000
  H   H658      1.0  0.50073  0.22912  0.73579  1.0000
  C   C408      1.0  0.56675  0.16254  0.73357  1.0000
  H   H659      1.0  0.65775  0.40458  0.70401  1.0000
  S   S159      1.0  0.50029  0.13686  0.48593  1.0000
  S   S160      1.0  0.59176  0.40593  0.80237  1.0000
  Fe  Fe77      1.0  0.59841  0.23044  0.79128  1.0000
  S   S161      1.0  0.59976  0.24268  0.81514  1.0000
  S   S162      1.0  0.62383  0.21407  0.78163  1.0000
  Fe  Fe78      1.0  0.55490  0.24342  0.78302  1.0000
  S   S163      1.0  0.55175  0.25678  0.80656  1.0000
  S   S164      1.0  0.53043  0.24395  0.76311  1.0000
  Fe  Fe79      1.0  0.59518  0.27636  0.80576  1.0000
  S   S165      1.0  0.62294  0.31592  0.81417  1.0000
  Fe  Fe80      1.0  0.55631  0.22187  0.81460  1.0000
  S   S166      1.0  0.53945  0.19355  0.83403  1.0000
  S   S167      1.0  0.59796  0.26603  0.78181  1.0000
  S   S168      1.0  0.55531  0.20670  0.79106  1.0000
  H   H660      1.0  0.56036  0.32320  0.74157  1.0000
  Fe  Fe81      1.0  0.48306  0.18037  0.91731  1.0000
  S   S169      1.0  0.44739  0.15904  0.93150  1.0000
  S   S170      1.0  0.47952  0.19426  0.89385  1.0000
  Fe  Fe82      1.0  0.51890  0.17916  0.94210  1.0000
  S   S171      1.0  0.48626  0.15751  0.95785  1.0000
  S   S172      1.0  0.56163  0.19406  0.94712  1.0000
  Fe  Fe83      1.0  0.46516  0.13247  0.93784  1.0000
  S   S173      1.0  0.44971  0.08771  0.93707  1.0000
  Fe  Fe84      1.0  0.47123  0.18580  0.95037  1.0000
  S   S174      1.0  0.45725  0.20462  0.96881  1.0000
  S   S175      1.0  0.49950  0.15275  0.92258  1.0000
  S   S176      1.0  0.50522  0.20867  0.93571  1.0000
  C   C409      1.0  0.46554  0.23803  0.97243  1.0000
  C   C410      1.0  0.48136  0.25796  0.96285  1.0000
  H   H661      1.0  0.64157  0.40608  0.80540  1.0000
  S   S177      1.0  0.65710  0.45676  0.78307  1.0000
  H   H662      1.0  0.59093  0.21573  0.75636  1.0000
  H   H663      1.0  0.53837  0.29264  0.74941  1.0000
  H   H664      1.0  0.48856  0.25323  0.95270  1.0000
  H   H665      1.0  0.63125  0.15620  0.94664  1.0000
  H   H666      1.0  0.55011  0.35720  0.76501  1.0000
  H   H667      1.0  0.52940  0.28883  0.77648  1.0000
  H   H668      1.0  0.37753  0.31356  0.96776  1.0000
  C   C411      1.0  0.56724  0.44984  0.96918  1.0000
  C   C412      1.0  0.55380  0.16939  0.97443  1.0000
  C   C413      1.0  0.57132  0.18791  0.96477  1.0000
  C   C414      1.0  0.59719  0.20227  0.96928  1.0000
  H   H669      1.0  0.56048  0.43671  0.86004  1.0000
  H   H670      1.0  0.53392  0.15793  0.97094  1.0000
  H   H671      1.0  0.61053  0.21705  0.96196  1.0000
  H   H672      1.0  0.40393  0.29031  0.96164  1.0000
  N   N40       1.0  0.56726  0.17776  0.74707  1.0000
  H   H673      1.0  0.65347  0.37046  0.81016  1.0000
  Fe  Fe85      1.0  0.65302  0.49351  0.78185  1.0000
  H   H674      1.0  0.58140  0.46113  0.83707  1.0000
  C   C415      1.0  0.37854  0.00600  0.93772  1.0000
  C   C416      1.0  0.40390  0.00884  0.93777  1.0000
  C   C417      1.0  0.42524  0.03389  0.93758  1.0000
  C   C418      1.0  0.42173  0.05660  0.93750  1.0000
  C   C419      1.0  0.39637  0.05378  0.93742  1.0000
  C   C420      1.0  0.37501  0.02871  0.93746  1.0000
  C   C421      1.0  0.59676  0.49032  0.98098  1.0000
  H   H675      1.0  0.44468  0.03567  0.93764  1.0000
  H   H676      1.0  0.39316  0.07090  0.93743  1.0000
  H   H677      1.0  0.35558  0.02692  0.93747  1.0000
  C   C422      1.0  0.52531  0.19682  0.85109  1.0000
  C   C423      1.0  0.51060  0.21055  0.85195  1.0000
  C   C424      1.0  0.49715  0.20999  0.86522  1.0000
  C   C425      1.0  0.49877  0.19633  0.87791  1.0000
  C   C426      1.0  0.51431  0.18345  0.87724  1.0000
  C   C427      1.0  0.52708  0.18332  0.86382  1.0000
  H   H678      1.0  0.50877  0.22075  0.84222  1.0000
  H   H679      1.0  0.48516  0.21998  0.86560  1.0000
  H   H680      1.0  0.51606  0.17312  0.88692  1.0000
  H   H681      1.0  0.53835  0.17259  0.86326  1.0000
  C   C428      1.0  0.48754  0.28411  0.96626  1.0000
  C   C429      1.0  0.58506  0.44440  0.83378  1.0000
  H   H682      1.0  0.61152  0.41621  0.83501  1.0000
  C   C430      1.0  0.60050  0.38117  0.80625  1.0000
  C   C431      1.0  0.62655  0.38650  0.80701  1.0000
  C   C432      1.0  0.63327  0.36633  0.80967  1.0000
  C   C433      1.0  0.61397  0.34080  0.81130  1.0000
  C   C434      1.0  0.58790  0.33550  0.81072  1.0000
  C   C435      1.0  0.58118  0.35577  0.80837  1.0000
  H   H683      1.0  0.56852  0.17461  0.77103  1.0000
  H   H684      1.0  0.54141  0.42002  0.98398  1.0000
  H   H685      1.0  0.57299  0.31587  0.81233  1.0000
  H   H686      1.0  0.56104  0.35179  0.80808  1.0000
  C   C436      1.0  0.47848  0.29087  0.97941  1.0000
  H   H687      1.0  0.60262  0.45241  0.82670  1.0000
  H   H688      1.0  0.42185  0.31499  0.94817  1.0000
  C   C437      1.0  0.54403  0.18230  0.74708  1.0000
  N   N41       1.0  0.58864  0.43094  0.84700  1.0000
  S   S178      1.0  0.62002  0.47989  0.79822  1.0000
  N   N42       1.0  0.55695  0.32340  0.76559  1.0000
  C   C438      1.0  0.54576  0.31408  0.75052  1.0000
  C   C439      1.0  0.57888  0.31726  0.76816  1.0000
  C   C440      1.0  0.53693  0.31033  0.77705  1.0000
  C   C441      1.0  0.56620  0.35184  0.76663  1.0000
  H   H689      1.0  0.61422  0.44005  0.86614  1.0000
  H   H690      1.0  0.64253  0.47676  0.96186  1.0000
  H   H691      1.0  0.57510  0.35962  0.77778  1.0000
  H   H692      1.0  0.62893  0.45791  0.84949  1.0000
  H   H693      1.0  0.54786  0.40673  0.84957  1.0000
  C   C442      1.0  0.44184  0.35479  0.96781  1.0000
  C   C443      1.0  0.59080  0.20294  0.74692  1.0000
  H   H694      1.0  0.65520  0.26840  0.79020  1.0000
  H   H695      1.0  0.59660  0.39854  0.85165  1.0000
  H   H696      1.0  0.52014  0.31465  0.77555  1.0000
  H   H697      1.0  0.65230  0.31291  0.84280  1.0000
  H   H698      1.0  0.58002  0.25507  0.74905  1.0000
  Fe  Fe86      1.0  0.62671  0.44473  0.80076  1.0000
  C   C444      1.0  0.56507  0.24820  0.74052  1.0000
  H   H699      1.0  0.53703  0.21445  0.96818  1.0000
  N   N43       1.0  0.41889  0.32956  0.96998  1.0000
  H   H700      1.0  0.39548  0.33828  0.95435  1.0000
  H   H701      1.0  0.49947  0.29925  0.95862  1.0000
  H   H702      1.0  0.58479  0.15951  0.76102  1.0000
  C   C445      1.0  0.42081  0.30968  0.96021  1.0000
  H   H703      1.0  0.60746  0.46610  0.86003  1.0000
  H   H704      1.0  0.63704  0.28236  0.83336  1.0000
  H   H705      1.0  0.64014  0.45852  0.75029  1.0000
  C   C446      1.0  0.64625  0.47030  0.74033  1.0000
  H   H706      1.0  0.54519  0.24796  0.97169  1.0000
  C   C447      1.0  0.63540  0.17430  0.95304  1.0000
  C   C448      1.0  0.58730  0.47518  0.96800  1.0000
  H   H707      1.0  0.55987  0.43798  0.95919  1.0000
  H   H708      1.0  0.52920  0.31845  0.74817  1.0000
  N   N44       1.0  0.44248  0.10091  0.89134  1.0000
  C   C449      1.0  0.45881  0.12709  0.88535  1.0000
  C   C450      1.0  0.42610  0.10282  0.90348  1.0000
  C   C451      1.0  0.45915  0.08973  0.89737  1.0000
  C   C452      1.0  0.42584  0.08401  0.87922  1.0000
  H   H709      1.0  0.47161  0.12663  0.87620  1.0000
  H   H710      1.0  0.47148  0.14036  0.89423  1.0000
  H   H711      1.0  0.44701  0.13639  0.88085  1.0000
  H   H712      1.0  0.41366  0.11176  0.89953  1.0000
  H   H713      1.0  0.41342  0.08343  0.90827  1.0000
  H   H714      1.0  0.43816  0.11499  0.91290  1.0000
  H   H715      1.0  0.44746  0.07027  0.90242  1.0000
  H   H716      1.0  0.47214  0.10218  0.90645  1.0000
  H   H717      1.0  0.47163  0.08767  0.88853  1.0000
  H   H718      1.0  0.41332  0.06408  0.88338  1.0000
  H   H719      1.0  0.43763  0.08227  0.86984  1.0000
  H   H720      1.0  0.41298  0.09192  0.87449  1.0000
  H   H721      1.0  0.44123  0.37015  0.97522  1.0000
  C   C453      1.0  0.65402  0.29472  0.84045  1.0000
  H   H722      1.0  0.56690  0.41049  0.86624  1.0000
  H   H723      1.0  0.44325  0.36155  0.95604  1.0000
  H   H724      1.0  0.39346  0.34709  0.97350  1.0000
  H   H725      1.0  0.54992  0.14436  0.76138  1.0000
  H   H726      1.0  0.59444  0.32686  0.75979  1.0000
  H   H727      1.0  0.46005  0.35342  0.97042  1.0000
  H   H728      1.0  0.57253  0.29597  0.76734  1.0000
  C   C454      1.0  0.56490  0.42074  0.85613  1.0000
  H   H729      1.0  0.54475  0.31653  0.78857  1.0000
  H   H730      1.0  0.57760  0.39498  0.83497  1.0000
  C   C455      1.0  0.53082  0.22768  0.97416  1.0000
  S   S179      1.0  0.60089  0.48657  0.95023  1.0000
  C   C456      1.0  0.59380  0.40920  0.84200  1.0000
  H   H731      1.0  0.45081  0.48541  0.98320  1.0000
  H   H732      1.0  0.58115  0.36231  0.75806  1.0000
  H   H733      1.0  0.62048  0.18059  0.94974  1.0000
  C   C457      1.0  0.53953  0.24212  0.74433  1.0000
  C   C458      1.0  0.60568  0.19798  0.98330  1.0000
  H   H734      1.0  0.56877  0.43103  0.82650  1.0000
  H   H735      1.0  0.52592  0.16377  0.74774  1.0000
  C   C459      1.0  0.61074  0.44946  0.85610  1.0000
  C   C460      1.0  0.39527  0.33220  0.96620  1.0000
  H   H736      1.0  0.54419  0.19470  0.75674  1.0000
  H   H737      1.0  0.43855  0.30738  0.96290  1.0000
  C   C461      1.0  0.56754  0.16333  0.76068  1.0000
  H   H738      1.0  0.54271  0.19223  0.73665  1.0000
  C   C462      1.0  0.65730  0.23300  0.78454  1.0000
  H   H739      1.0  0.63248  0.16915  0.96514  1.0000
  H   H740      1.0  0.51206  0.22470  0.96910  1.0000
  H   H741      1.0  0.58766  0.32376  0.77950  1.0000
  H   H742      1.0  0.65224  0.28447  0.85123  1.0000
  S   S180      1.0  0.65491  0.46065  0.81988  1.0000
  C   C463      1.0  0.55672  0.43964  0.98322  1.0000
  C   C464      1.0  0.45641  0.24477  0.98557  1.0000
  H   H743      1.0  0.65353  0.22623  0.95685  1.0000
  H   H744      1.0  0.65020  0.20960  0.93103  1.0000
  S   S181      1.0  0.48621  0.32424  0.98268  1.0000
  H   H745      1.0  0.52037  0.99914  0.97717  1.0000
  H   H746      1.0  0.60867  0.20032  0.74811  1.0000
  C   C465      1.0  0.64263  0.46422  0.97132  1.0000
  H   H747      1.0  0.64371  0.44699  0.96637  1.0000
  H   H748      1.0  0.62360  0.45728  0.97700  1.0000
  H   H749      1.0  0.59234  0.21347  0.73630  1.0000
  Fe  Fe87      1.0  0.50193  0.91797  0.01280  1.0000
  S   S182      1.0  0.53907  0.93073  0.00018  1.0000
  S   S183      1.0  0.47134  0.93076  0.00672  1.0000
  Fe  Fe88      1.0  0.51866  0.89144  0.03775  1.0000
  S   S184      1.0  0.55759  0.90327  0.02701  1.0000
  S   S185      1.0  0.50196  0.86043  0.05595  1.0000
  Fe  Fe89      1.0  0.55807  0.94266  0.02300  1.0000
  H   H750      1.0  0.40376  0.58707  0.99864  1.0000
  Fe  Fe90      1.0  0.53544  0.89046  0.00507  1.0000
  S   S186      1.0  0.34020  0.54152  0.19220  1.0000
  S   S187      1.0  0.52061  0.93102  0.03541  1.0000
  S   S188      1.0  0.49671  0.87755  0.01604  1.0000
  Fe  Fe91      1.0  0.36539  0.52927  0.99583  1.0000
  H   H751      1.0  0.35852  0.89255  0.00873  1.0000
  H   H752      1.0  0.35051  0.78285  0.10351  1.0000
  C   C466      1.0  0.34495  0.70219  0.19375  1.0000
  S   S189      1.0  0.37918  0.52578  0.01876  1.0000
  S   S190      1.0  0.40284  0.65406  0.15565  1.0000
  Fe  Fe92      1.0  0.45491  0.84394  0.14141  1.0000
  S   S191      1.0  0.45073  0.85860  0.16425  1.0000
  S   S192      1.0  0.48595  0.87259  0.12597  1.0000
  Fe  Fe93      1.0  0.41235  0.78979  0.14808  1.0000
  S   S193      1.0  0.40488  0.79965  0.17141  1.0000
  S   S194      1.0  0.38663  0.75140  0.13714  1.0000
  Fe  Fe94      1.0  0.40792  0.83602  0.16058  1.0000
  S   S195      1.0  0.38329  0.85603  0.16570  1.0000
  Fe  Fe95      1.0  0.44828  0.82139  0.17342  1.0000
  S   S196      1.0  0.47466  0.82103  0.19238  1.0000
  S   S197      1.0  0.41216  0.82474  0.13708  1.0000
  S   S198      1.0  0.45550  0.80806  0.15077  1.0000
  C   C467      1.0  0.47650  0.83158  0.21133  1.0000
  C   C468      1.0  0.45485  0.82835  0.21985  1.0000
  H   H753      1.0  0.38206  0.84357  0.00007  1.0000
  C   C469      1.0  0.50080  0.84177  0.21837  1.0000
  H   H754      1.0  0.43592  0.82027  0.21460  1.0000
  H   H755      1.0  0.51760  0.84416  0.21202  1.0000
  Fe  Fe96      1.0  0.34545  0.53104  0.02757  1.0000
  H   H756      1.0  0.35718  0.71371  0.16482  1.0000
  C   C470      1.0  0.35698  0.88661  0.99674  1.0000
  C   C471      1.0  0.34944  0.83886  0.16657  1.0000
  C   C472      1.0  0.43821  0.61998  0.99093  1.0000
  H   H757      1.0  0.49152  0.98944  0.00685  1.0000
  H   H758      1.0  0.34742  0.80071  0.16545  1.0000
  H   H759      1.0  0.34527  0.87407  0.16833  1.0000
  S   S199      1.0  0.33538  0.60372  0.13652  1.0000
  C   C473      1.0  0.39976  0.68134  0.14923  1.0000
  C   C474      1.0  0.37921  0.67850  0.13984  1.0000
  C   C475      1.0  0.37603  0.70035  0.13569  1.0000
  C   C476      1.0  0.39297  0.72503  0.14122  1.0000
  C   C477      1.0  0.41364  0.72798  0.15053  1.0000
  C   C478      1.0  0.41721  0.70617  0.15437  1.0000
  H   H760      1.0  0.36582  0.65950  0.13573  1.0000
  H   H761      1.0  0.36003  0.69801  0.12847  1.0000
  H   H762      1.0  0.42678  0.74699  0.15484  1.0000
  H   H763      1.0  0.43313  0.70843  0.16164  1.0000
  H   H764      1.0  0.33831  0.68151  0.15758  1.0000
  C   C479      1.0  0.33580  0.80146  0.12757  1.0000
  C   C480      1.0  0.48868  0.86907  0.10630  1.0000
  C   C481      1.0  0.47638  0.84492  0.09905  1.0000
  C   C482      1.0  0.48047  0.84272  0.08362  1.0000
  C   C483      1.0  0.49645  0.86465  0.07518  1.0000
  C   C484      1.0  0.50838  0.88887  0.08238  1.0000
  C   C485      1.0  0.50471  0.89098  0.09788  1.0000
  H   H765      1.0  0.46412  0.82785  0.10537  1.0000
  H   H766      1.0  0.47119  0.82387  0.07819  1.0000
  H   H767      1.0  0.52082  0.90590  0.07609  1.0000
  H   H768      1.0  0.51437  0.90975  0.10337  1.0000
  H   H769      1.0  0.45653  0.51173  0.01414  1.0000
  H   H770      1.0  0.33597  0.84590  0.01535  1.0000
  C   C486      1.0  0.56595  0.83692  0.98820  1.0000
  H   H771      1.0  0.39592  0.49864  0.99391  1.0000
  C   C487      1.0  0.36563  0.67920  0.18133  1.0000
  C   C488      1.0  0.38149  0.86257  0.00103  1.0000
  S   S200      1.0  0.58825  0.98350  0.03088  1.0000
  H   H772      1.0  0.50830  0.96974  0.98782  1.0000
  N   N45       1.0  0.43684  0.51057  0.99340  1.0000
  H   H773      1.0  0.33885  0.88622  0.99213  1.0000
  N   N46       1.0  0.34245  0.68379  0.18152  1.0000
  H   H774      1.0  0.36832  0.67102  0.19210  1.0000
  H   H775      1.0  0.36416  0.66513  0.17233  1.0000
  H   H776      1.0  0.39849  0.87702  0.99483  1.0000
  H   H777      1.0  0.56946  0.89914  0.15140  1.0000
  C   C489      1.0  0.34002  0.69486  0.16703  1.0000
  C   C490      1.0  0.41058  0.49629  0.98688  1.0000
  H   H778      1.0  0.39617  0.53391  0.05406  1.0000
  N   N47       1.0  0.37775  0.50071  0.06834  1.0000
  S   S201      1.0  0.36959  0.57755  0.15323  1.0000
  H   H779      1.0  0.34691  0.69451  0.20486  1.0000
  C   C491      1.0  0.35773  0.57312  0.07738  1.0000
  C   C492      1.0  0.45340  0.91921  0.99000  1.0000
  H   H780      1.0  0.38432  0.86854  0.01305  1.0000
  N   N48       1.0  0.51084  0.80817  0.02638  1.0000
  C   C493      1.0  0.48947  0.81323  0.02072  1.0000
  C   C494      1.0  0.51498  0.79042  0.01591  1.0000
  C   C495      1.0  0.50416  0.79620  0.04137  1.0000
  C   C496      1.0  0.53474  0.83295  0.02753  1.0000
  H   H781      1.0  0.47123  0.79494  0.01939  1.0000
  H   H782      1.0  0.49418  0.82296  0.00960  1.0000
  H   H783      1.0  0.48550  0.82611  0.02856  1.0000
  H   H784      1.0  0.51942  0.79871  0.00443  1.0000
  H   H785      1.0  0.53146  0.78674  0.01955  1.0000
  H   H786      1.0  0.49750  0.77133  0.01496  1.0000
  H   H787      1.0  0.48609  0.77755  0.04098  1.0000
  H   H788      1.0  0.50100  0.80927  0.04950  1.0000
  H   H789      1.0  0.51989  0.79218  0.04601  1.0000
  H   H790      1.0  0.55143  0.82996  0.03154  1.0000
  H   H791      1.0  0.53232  0.84662  0.03550  1.0000
  H   H792      1.0  0.54006  0.84285  0.01650  1.0000
  H   H793      1.0  0.36232  0.72120  0.19218  1.0000
  H   H794      1.0  0.33400  0.82162  0.00193  1.0000
  H   H795      1.0  0.57772  0.85227  0.99592  1.0000
  H   H796      1.0  0.42261  0.50287  0.01597  1.0000
  H   H797      1.0  0.35486  0.81365  0.13305  1.0000
  H   H798      1.0  0.35033  0.50781  0.05533  1.0000
  H   H799      1.0  0.56683  0.88954  0.17071  1.0000
  C   C497      1.0  0.33526  0.85305  0.16785  1.0000
  H   H800      1.0  0.57610  0.87266  0.15678  1.0000
  H   H801      1.0  0.59230  0.81961  0.98773  1.0000
  H   H802      1.0  0.53040  0.84758  0.17866  1.0000
  H   H803      1.0  0.50761  0.82711  0.16504  1.0000
  H   H804      1.0  0.37679  0.53437  0.07821  1.0000
  Fe  Fe97      1.0  0.34061  0.56600  0.17203  1.0000
  C   C498      1.0  0.37834  0.51655  0.08158  1.0000
  C   C499      1.0  0.33642  0.81167  0.16606  1.0000
  H   H805      1.0  0.37349  0.90210  0.99074  1.0000
  H   H806      1.0  0.53671  0.87072  0.13272  1.0000
  H   H807      1.0  0.54012  0.83082  0.16484  1.0000
  H   H808      1.0  0.36244  0.58395  0.10092  1.0000
  H   H809      1.0  0.37149  0.78621  0.11912  1.0000
  H   H810      1.0  0.52139  0.88372  0.17137  1.0000
  H   H811      1.0  0.34950  0.75456  0.11267  1.0000
  H   H812      1.0  0.54377  0.84434  0.13790  1.0000
  H   H813      1.0  0.51120  0.84052  0.13847  1.0000
  S   S202      1.0  0.35520  0.55898  0.04764  1.0000
  H   H814      1.0  0.37277  0.59167  0.07381  1.0000
  Fe  Fe98      1.0  0.36717  0.61553  0.15387  1.0000
  C   C500      1.0  0.51965  0.87703  0.15950  1.0000
  H   H815      1.0  0.52056  0.97151  0.01490  1.0000
  N   N49       1.0  0.53580  0.86370  0.15646  1.0000
  C   C501      1.0  0.53182  0.85439  0.14072  1.0000
  H   H816      1.0  0.38354  0.69745  0.17921  1.0000
  C   C502      1.0  0.52828  0.84135  0.16668  1.0000
  H   H817      1.0  0.41798  0.52415  0.06341  1.0000
  H   H818      1.0  0.39667  0.52301  0.08809  1.0000
  C   C503      1.0  0.35162  0.77456  0.11457  1.0000
  H   H819      1.0  0.43860  0.63240  0.00017  1.0000
  C   C504      1.0  0.41848  0.59434  0.99008  1.0000
  C   C505      1.0  0.35192  0.56880  0.09279  1.0000
  C   C506      1.0  0.34476  0.55347  0.06663  1.0000
  H   H820      1.0  0.52469  0.89409  0.15206  1.0000
  C   C507      1.0  0.56331  0.88207  0.15896  1.0000
  C   C508      1.0  0.33483  0.84121  0.00317  1.0000
  H   H821      1.0  0.49898  0.86376  0.15735  1.0000
  N   N50       1.0  0.35699  0.86107  0.99497  1.0000
  H   H822      1.0  0.35316  0.77497  0.14493  1.0000
  H   H823      1.0  0.43323  0.94259  0.99287  1.0000
  N   N51       1.0  0.33184  0.77452  0.12503  1.0000
  H   H824      1.0  0.42972  0.54243  0.00074  1.0000
  C   C509      1.0  0.39862  0.51675  0.05796  1.0000
  C   C510      1.0  0.33316  0.54463  0.09765  1.0000
  C   C511      1.0  0.33661  0.56418  0.21978  1.0000
  H   H825      1.0  0.34155  0.58214  0.21388  1.0000
  C   C512      1.0  0.43724  0.50092  0.00867  1.0000
  C   C513      1.0  0.32517  0.52969  0.07145  1.0000
  S   S203      1.0  0.34078  0.60474  0.17374  1.0000
  H   H826      1.0  0.33523  0.81104  0.11687  1.0000
  H   H827      1.0  0.39857  0.50542  0.04780  1.0000
  Fe  Fe99      1.0  0.33587  0.56486  0.13702  1.0000
  H   H828      1.0  0.55356  0.98582  0.00897  1.0000
  C   C514      1.0  0.53752  0.99027  0.01237  1.0000
  S   S204      1.0  0.53174  0.85944  0.98743  1.0000
  H   H829      1.0  0.36199  0.50568  0.08932  1.0000
  C   C515      1.0  0.33408  0.76311  0.13944  1.0000
  S   S205      1.0  0.33415  0.53888  0.00444  1.0000
  H   H830      1.0  0.33230  0.74318  0.13784  1.0000
  C   C516      1.0  0.52522  0.98913  0.98641  1.0000
  H   H831      1.0  0.46339  0.55007  0.99925  1.0000
  C   C517      1.0  0.33528  0.54237  0.21187  1.0000
  H   H832      1.0  0.32773  0.70604  0.19416  1.0000
  C   C518      1.0  0.50376  0.84924  0.23351  1.0000
  S   S206      1.0  0.32719  0.53698  0.11701  1.0000
  C   C519      1.0  0.44394  0.53862  0.99409  1.0000
  H   H833      1.0  0.32835  0.50258  0.21387  1.0000
  H   H834      1.0  0.47562  0.51701  0.98846  1.0000
  C   C520      1.0  0.32936  0.51948  0.21977  1.0000
  C   C521      1.0  0.33199  0.56277  0.23549  1.0000
  C   C522      1.0  0.45773  0.83519  0.23533  1.0000
  C   C523      1.0  0.43551  0.92835  0.98589  1.0000
  S   S207      1.0  0.36764  0.53179  0.42164  1.0000
  Fe  Fe100     1.0  0.35355  0.54934  0.43992  1.0000
  S   S208      1.0  0.37112  0.59006  0.44974  1.0000
  Fe  Fe101     1.0  0.48668  0.90951  0.45112  1.0000
  S   S209      1.0  0.52705  0.92595  0.46064  1.0000
  S   S210      1.0  0.45906  0.92199  0.46242  1.0000
  Fe  Fe102     1.0  0.50027  0.88533  0.42411  1.0000
  S   S211      1.0  0.54156  0.90014  0.43207  1.0000
  S   S212      1.0  0.48791  0.85895  0.40332  1.0000
  Fe  Fe103     1.0  0.52441  0.88632  0.45498  1.0000
  S   S213      1.0  0.53806  0.86562  0.47256  1.0000
  Fe  Fe104     1.0  0.54032  0.93826  0.43704  1.0000
  S   S214      1.0  0.56974  0.97738  0.42703  1.0000
  S   S215      1.0  0.48319  0.86957  0.44683  1.0000
  S   S216      1.0  0.49980  0.92368  0.42777  1.0000
  S   S217      1.0  0.35235  0.65955  0.28076  1.0000
  Fe  Fe105     1.0  0.45446  0.84755  0.31547  1.0000
  S   S218      1.0  0.44057  0.85817  0.29401  1.0000
  S   S219      1.0  0.46489  0.87639  0.33514  1.0000
  Fe  Fe106     1.0  0.44396  0.79446  0.30280  1.0000
  S   S220      1.0  0.42857  0.80042  0.28076  1.0000
  S   S221      1.0  0.44705  0.75774  0.30788  1.0000
  Fe  Fe107     1.0  0.46205  0.83993  0.28154  1.0000
  S   S222      1.0  0.48829  0.85545  0.26134  1.0000
  Fe  Fe108     1.0  0.40814  0.81768  0.29480  1.0000
  S   S223      1.0  0.36776  0.81071  0.28849  1.0000
  S   S224      1.0  0.47924  0.83310  0.30291  1.0000
  S   S225      1.0  0.42046  0.80812  0.31689  1.0000
  C   C524      1.0  0.47171  0.69295  0.44279  1.0000
  H   H835      1.0  0.44974  0.78772  0.25193  1.0000
  H   H836      1.0  0.54223  0.89779  0.39725  1.0000
  H   H837      1.0  0.46344  0.65001  0.45793  1.0000
  H   H838      1.0  0.47562  0.79345  0.23925  1.0000
  H   H839      1.0  0.48922  0.66492  0.47129  1.0000
  C   C525      1.0  0.46414  0.69400  0.46930  1.0000
  C   C526      1.0  0.34225  0.78790  0.29910  1.0000
  C   C527      1.0  0.34710  0.77647  0.31176  1.0000
  H   H840      1.0  0.42835  0.93651  0.48143  1.0000
  H   H841      1.0  0.51583  0.71346  0.47124  1.0000
  C   C528      1.0  0.50781  0.71362  0.45990  1.0000
  H   H842      1.0  0.36665  0.78087  0.31486  1.0000
  C   C529      1.0  0.37814  0.68608  0.28925  1.0000
  C   C530      1.0  0.37964  0.71081  0.28735  1.0000
  C   C531      1.0  0.40003  0.73258  0.29381  1.0000
  C   C532      1.0  0.41974  0.72996  0.30159  1.0000
  C   C533      1.0  0.41821  0.70518  0.30360  1.0000
  C   C534      1.0  0.39716  0.68313  0.29762  1.0000
  H   H843      1.0  0.36488  0.71315  0.28096  1.0000
  H   H844      1.0  0.40052  0.75140  0.29264  1.0000
  H   H845      1.0  0.43337  0.70306  0.30970  1.0000
  H   H846      1.0  0.39602  0.66401  0.29914  1.0000
  C   C535      1.0  0.48073  0.86406  0.38456  1.0000
  C   C536      1.0  0.47622  0.84460  0.37374  1.0000
  C   C537      1.0  0.47121  0.84798  0.35861  1.0000
  C   C538      1.0  0.47078  0.87100  0.35410  1.0000
  C   C539      1.0  0.47507  0.89041  0.36494  1.0000
  C   C540      1.0  0.47988  0.88694  0.38010  1.0000
  H   H847      1.0  0.47679  0.82681  0.37706  1.0000
  H   H848      1.0  0.46796  0.83286  0.35044  1.0000
  H   H849      1.0  0.47463  0.90824  0.36159  1.0000
  H   H850      1.0  0.48285  0.90186  0.38835  1.0000
  H   H851      1.0  0.48446  0.69142  0.43393  1.0000
  C   C541      1.0  0.36523  0.56160  0.36094  1.0000
  H   H852      1.0  0.63650  0.51780  0.30408  1.0000
  C   C542      1.0  0.52797  0.83228  0.47752  1.0000
  H   H853      1.0  0.59948  0.93884  0.39455  1.0000
  H   H854      1.0  0.36693  0.54897  0.28154  1.0000
  C   C543      1.0  0.54329  0.94408  0.39264  1.0000
  C   C544      1.0  0.49299  0.76275  0.25237  1.0000
  H   H855      1.0  0.52285  0.85756  0.23860  1.0000
  H   H856      1.0  0.48174  0.74504  0.24544  1.0000
  H   H857      1.0  0.38766  0.82440  0.35812  1.0000
  N   N52       1.0  0.56253  0.93565  0.38737  1.0000
  H   H858      1.0  0.44106  0.83266  0.24186  1.0000
  H   H859      1.0  0.57789  0.93660  0.40950  1.0000
  H   H860      1.0  0.35020  0.59150  0.48004  1.0000
  C   C545      1.0  0.36362  0.50125  0.28201  1.0000
  C   C546      1.0  0.39718  0.59836  0.46243  1.0000
  C   C547      1.0  0.40565  0.62121  0.47109  1.0000
  H   H861      1.0  0.45195  0.67677  0.44094  1.0000
  H   H862      1.0  0.39806  0.55134  0.28631  1.0000
  C   C548      1.0  0.40943  0.58243  0.46408  1.0000
  C   C549      1.0  0.42640  0.62813  0.48130  1.0000
  H   H863      1.0  0.46373  0.71313  0.46873  1.0000
  H   H864      1.0  0.50365  0.75758  0.26112  1.0000
  Fe  Fe109     1.0  0.34461  0.58104  0.31227  1.0000
  H   H865      1.0  0.59381  0.96625  0.39944  1.0000
  C   C550      1.0  0.58444  0.94469  0.39812  1.0000
  C   C551      1.0  0.35333  0.54761  0.37399  1.0000
  H   H866      1.0  0.43200  0.86635  0.46861  1.0000
  H   H867      1.0  0.33323  0.57959  0.24156  1.0000
  H   H868      1.0  0.52664  0.93803  0.38473  1.0000
  H   H869      1.0  0.47055  0.71155  0.44108  1.0000
  S   S226      1.0  0.32882  0.61006  0.31461  1.0000
  C   C552      1.0  0.35202  0.55569  0.34709  1.0000
  H   H870      1.0  0.44397  0.67855  0.46780  1.0000
  C   C553      1.0  0.50796  0.81152  0.46998  1.0000
  C   C554      1.0  0.55994  0.53070  0.47062  1.0000
  H   H871      1.0  0.44497  0.73426  0.26279  1.0000
  Fe  Fe110     1.0  0.34010  0.62006  0.29064  1.0000
  C   C555      1.0  0.55031  0.90696  0.38628  1.0000
  H   H872      1.0  0.44905  0.76155  0.24058  1.0000
  H   H873      1.0  0.58125  0.96852  0.37292  1.0000
  Fe  Fe111     1.0  0.32617  0.51373  0.41354  1.0000
  H   H874      1.0  0.40304  0.56477  0.45748  1.0000
  C   C556      1.0  0.48275  0.66687  0.45978  1.0000
  H   H875      1.0  0.44353  0.75930  0.27411  1.0000
  H   H876      1.0  0.60038  0.57855  0.46991  1.0000
  H   H877      1.0  0.33031  0.75035  0.33023  1.0000
  H   H878      1.0  0.56435  0.89977  0.38270  1.0000
  H   H879      1.0  0.44015  0.57740  0.47507  1.0000
  N   N53       1.0  0.38460  0.84677  0.33962  1.0000
  C   C557      1.0  0.39688  0.87148  0.34816  1.0000
  C   C558      1.0  0.39265  0.85166  0.32379  1.0000
  C   C559      1.0  0.35611  0.83590  0.34040  1.0000
  C   C560      1.0  0.39286  0.82805  0.34607  1.0000
  H   H880      1.0  0.39128  0.86862  0.36017  1.0000
  H   H881      1.0  0.39136  0.88620  0.34350  1.0000
  H   H882      1.0  0.41842  0.87994  0.34775  1.0000
  H   H883      1.0  0.38635  0.86530  0.31842  1.0000
  H   H884      1.0  0.41405  0.86025  0.32274  1.0000
  H   H885      1.0  0.38420  0.83340  0.31707  1.0000
  C   C561      1.0  0.33959  0.51101  0.30095  1.0000
  H   H886      1.0  0.34642  0.81738  0.33386  1.0000
  H   H887      1.0  0.34920  0.84954  0.33565  1.0000
  H   H888      1.0  0.38363  0.80901  0.34008  1.0000
  H   H889      1.0  0.55698  0.57560  0.47499  1.0000
  H   H890      1.0  0.41423  0.83540  0.34534  1.0000
  H   H891      1.0  0.50759  0.77756  0.24496  1.0000
  C   C562      1.0  0.38141  0.51384  0.30709  1.0000
  H   H892      1.0  0.55587  0.94043  0.36411  1.0000
  N   N54       1.0  0.57095  0.54916  0.48328  1.0000
  H   H893      1.0  0.34994  0.84322  0.47124  1.0000
  C   C563      1.0  0.57201  0.94689  0.37247  1.0000
  H   H894      1.0  0.56083  0.54100  0.45995  1.0000
  C   C564      1.0  0.43294  0.90312  0.47411  1.0000
  C   C565      1.0  0.49164  0.79628  0.26812  1.0000
  H   H895      1.0  0.49835  0.81541  0.46057  1.0000
  C   C566      1.0  0.48236  0.84582  0.24217  1.0000
  N   N55       1.0  0.48162  0.69185  0.45794  1.0000
  H   H896      1.0  0.58657  0.94092  0.36813  1.0000
  S   S227      1.0  0.36022  0.59475  0.28906  1.0000
  H   H897      1.0  0.47056  0.69233  0.48087  1.0000
  H   H898      1.0  0.47936  0.80419  0.27349  1.0000
  H   H899      1.0  0.50760  0.73280  0.45883  1.0000
  N   N56       1.0  0.47588  0.77266  0.25918  1.0000
  H   H900      1.0  0.50246  0.79228  0.27729  1.0000
  H   H901      1.0  0.46673  0.74779  0.27848  1.0000
  H   H902      1.0  0.53399  0.89949  0.37805  1.0000
  H   H903      1.0  0.52162  0.71278  0.45154  1.0000
  C   C567      1.0  0.46194  0.77905  0.24721  1.0000
  H   H904      1.0  0.55199  0.96559  0.39407  1.0000
  H   H905      1.0  0.49643  0.66488  0.45175  1.0000
  C   C568      1.0  0.43043  0.58960  0.47406  1.0000
  S   S228      1.0  0.34367  0.51599  0.45542  1.0000
  S   S229      1.0  0.36751  0.57366  0.33088  1.0000
  C   C569      1.0  0.55638  0.56446  0.48526  1.0000
  H   H906      1.0  0.36353  0.55268  0.38463  1.0000
  H   H907      1.0  0.38467  0.57731  0.36165  1.0000
  C   C570      1.0  0.45700  0.75259  0.26902  1.0000
  H   H908      1.0  0.45355  0.84517  0.48138  1.0000
  C   C571      1.0  0.64676  0.50604  0.30393  1.0000
  H   H909      1.0  0.48505  0.76985  0.46851  1.0000
  C   C572      1.0  0.34084  0.85530  0.46690  1.0000
  H   H910      1.0  0.37982  0.55845  0.30025  1.0000
  H   H911      1.0  0.39605  0.63348  0.46995  1.0000
  H   H912      1.0  0.34921  0.83167  0.35216  1.0000
  H   H913      1.0  0.50580  0.81210  0.26103  1.0000
  C   C573      1.0  0.42350  0.87619  0.47529  1.0000
  H   H914      1.0  0.34752  0.87274  0.47434  1.0000
  H   H915      1.0  0.53553  0.93560  0.40375  1.0000
  H   H916      1.0  0.34871  0.86211  0.45553  1.0000
  C   C574      1.0  0.42120  0.91568  0.48236  1.0000
  H   H917      1.0  0.34885  0.55988  0.47990  1.0000
  S   S230      1.0  0.61922  0.51010  0.48128  1.0000
  C   C575      1.0  0.50047  0.78560  0.47451  1.0000
  H   H918      1.0  0.34049  0.52334  0.31082  1.0000
  H   H919      1.0  0.57079  0.51906  0.46892  1.0000
  H   H920      1.0  0.53936  0.51673  0.47263  1.0000
  C   C576      1.0  0.43912  0.61253  0.48261  1.0000
  C   C577      1.0  0.32827  0.52714  0.37321  1.0000
  H   H921      1.0  0.40134  0.51892  0.30317  1.0000
  Fe  Fe112     1.0  0.35465  0.49661  0.43662  1.0000
  C   C578      1.0  0.37819  0.54536  0.29063  1.0000
  H   H922      1.0  0.48394  0.84419  0.48017  1.0000
  C   C579      1.0  0.32704  0.53514  0.34631  1.0000
  C   C580      1.0  0.40266  0.86204  0.48489  1.0000
  H   H923      1.0  0.60989  0.55600  0.47849  1.0000
  C   C581      1.0  0.59835  0.56692  0.48017  1.0000
  C   C582      1.0  0.32648  0.75912  0.32043  1.0000
  H   H924      1.0  0.38321  0.52626  0.31711  1.0000
  H   H925      1.0  0.35184  0.50407  0.27288  1.0000
  N   N57       1.0  0.36573  0.51782  0.29517  1.0000
  H   H926      1.0  0.38297  0.50594  0.27727  1.0000
  H   H927      1.0  0.33265  0.68384  0.30271  1.0000
  H   H928      1.0  0.32720  0.51374  0.29220  1.0000
  C   C583      1.0  0.34089  0.57210  0.48546  1.0000
  C   C584      1.0  0.32598  0.53953  0.24324  1.0000
  H   H929      1.0  0.50881  0.89102  0.48556  1.0000
  H   H930      1.0  0.39531  0.84120  0.48576  1.0000
  H   H931      1.0  0.47862  0.89286  0.48517  1.0000
  C   C585      1.0  0.50032  0.68420  0.69154  1.0000
  H   H932      1.0  0.52938  0.61564  0.57042  1.0000
  S   S231      1.0  0.60765  0.59582  0.52029  1.0000
  S   S232      1.0  0.61730  0.53683  0.52295  1.0000
  Fe  Fe113     1.0  0.34290  0.93161  0.51792  1.0000
  S   S233      1.0  0.35421  0.90699  0.53306  1.0000
  Fe  Fe114     1.0  0.34339  0.87871  0.51381  1.0000
  Fe  Fe115     1.0  0.34962  0.81242  0.66322  1.0000
  H   H933      1.0  0.33107  0.68841  0.66568  1.0000
  Fe  Fe116     1.0  0.53913  0.69064  0.52160  1.0000
  S   S234      1.0  0.50325  0.65711  0.52990  1.0000
  S   S235      1.0  0.57882  0.69127  0.52495  1.0000
  Fe  Fe117     1.0  0.50845  0.71860  0.50817  1.0000
  S   S236      1.0  0.47065  0.68596  0.51583  1.0000
  H   H934      1.0  0.44829  0.84320  0.51496  1.0000
  Fe  Fe118     1.0  0.49097  0.68709  0.53776  1.0000
  S   S237      1.0  0.46635  0.67959  0.55903  1.0000
  Fe  Fe119     1.0  0.48600  0.65886  0.50759  1.0000
  Fe  Fe120     1.0  0.65264  0.54087  0.53564  1.0000
  S   S238      1.0  0.52810  0.72135  0.53073  1.0000
  S   S239      1.0  0.52263  0.69076  0.49874  1.0000
  S   S240      1.0  0.38100  0.80281  0.67157  1.0000
  Fe  Fe121     1.0  0.44743  0.67891  0.64683  1.0000
  S   S241      1.0  0.44407  0.65703  0.66838  1.0000
  S   S242      1.0  0.48124  0.69022  0.63056  1.0000
  Fe  Fe122     1.0  0.39883  0.68461  0.65364  1.0000
  S   S243      1.0  0.39087  0.66339  0.67544  1.0000
  S   S244      1.0  0.37160  0.69824  0.64355  1.0000
  Fe  Fe123     1.0  0.43358  0.68601  0.67973  1.0000
  S   S245      1.0  0.44941  0.70749  0.70194  1.0000
  Fe  Fe124     1.0  0.40162  0.63606  0.66274  1.0000
  S   S246      1.0  0.37862  0.59292  0.66468  1.0000
  S   S247      1.0  0.44067  0.70994  0.65867  1.0000
  S   S248      1.0  0.40580  0.65517  0.64047  1.0000
  H   H935      1.0  0.35117  0.73258  0.63439  1.0000
  N   N58       1.0  0.35088  0.96597  0.56534  1.0000
  S   S249      1.0  0.33186  0.80716  0.64027  1.0000
  C   C586      1.0  0.46876  0.84316  0.48812  1.0000
  C   C587      1.0  0.33750  0.88155  0.58009  1.0000
  H   H936      1.0  0.36751  0.86077  0.70177  1.0000
  C   C588      1.0  0.45869  0.86256  0.50962  1.0000
  H   H937      1.0  0.32781  0.96842  0.58355  1.0000
  H   H938      1.0  0.54837  0.69547  0.57804  1.0000
  H   H939      1.0  0.37569  0.95792  0.55056  1.0000
  H   H940      1.0  0.33319  0.79507  0.73195  1.0000
  C   C589      1.0  0.43821  0.66727  0.72226  1.0000
  C   C590      1.0  0.44556  0.69371  0.72015  1.0000
  H   H941      1.0  0.49025  0.84012  0.51432  1.0000
  H   H942      1.0  0.43207  0.88218  0.71999  1.0000
  H   H943      1.0  0.43385  0.65442  0.71265  1.0000
  C   C591      1.0  0.38360  0.82479  0.70803  1.0000
  C   C592      1.0  0.37913  0.77418  0.66357  1.0000
  C   C593      1.0  0.36396  0.76346  0.65077  1.0000
  C   C594      1.0  0.36229  0.74043  0.64452  1.0000
  C   C595      1.0  0.37543  0.72782  0.65115  1.0000
  C   C596      1.0  0.39052  0.73837  0.66402  1.0000
  C   C597      1.0  0.39251  0.76168  0.67018  1.0000
  Fe  Fe125     1.0  0.63746  0.53435  0.50210  1.0000
  H   H944      1.0  0.37330  0.86102  0.72157  1.0000
  H   H945      1.0  0.40064  0.72861  0.66924  1.0000
  H   H946      1.0  0.40429  0.76992  0.68009  1.0000
  C   C598      1.0  0.47133  0.68357  0.57885  1.0000
  C   C599      1.0  0.49588  0.69714  0.58544  1.0000
  C   C600      1.0  0.49866  0.69901  0.60124  1.0000
  C   C601      1.0  0.47693  0.68778  0.61065  1.0000
  C   C602      1.0  0.45240  0.67457  0.60403  1.0000
  C   C603      1.0  0.44968  0.67243  0.58827  1.0000
  H   H947      1.0  0.51261  0.70655  0.57837  1.0000
  H   H948      1.0  0.51770  0.70957  0.60621  1.0000
  H   H949      1.0  0.43550  0.66579  0.61103  1.0000
  H   H950      1.0  0.43059  0.66200  0.58334  1.0000
  S   S250      1.0  0.65749  0.57743  0.49816  1.0000
  H   H951      1.0  0.50773  0.87460  0.51772  1.0000
  C   C604      1.0  0.33406  0.59731  0.65811  1.0000
  H   H952      1.0  0.55567  0.84232  0.49565  1.0000
  S   S251      1.0  0.36460  0.85675  0.50490  1.0000
  H   H953      1.0  0.60744  0.58083  0.48962  1.0000
  H   H954      1.0  0.63956  0.65244  0.52447  1.0000
  S   S252      1.0  0.35079  0.87473  0.62442  1.0000
  C   C605      1.0  0.60038  0.62289  0.52155  1.0000
  C   C606      1.0  0.61947  0.64849  0.52358  1.0000
  C   C607      1.0  0.61255  0.66911  0.52454  1.0000
  C   C608      1.0  0.58654  0.66456  0.52330  1.0000
  C   C609      1.0  0.56747  0.63896  0.52120  1.0000
  C   C610      1.0  0.57434  0.61832  0.52044  1.0000
  H   H955      1.0  0.54911  0.51978  0.49938  1.0000
  H   H956      1.0  0.62751  0.68879  0.52617  1.0000
  H   H957      1.0  0.54739  0.63503  0.52020  1.0000
  H   H958      1.0  0.55932  0.59865  0.51900  1.0000
  H   H959      1.0  0.33614  0.64386  0.63927  1.0000
  C   C611      1.0  0.41231  0.86108  0.69313  1.0000
  Fe  Fe126     1.0  0.33339  0.84645  0.64379  1.0000
  S   S253      1.0  0.33506  0.90430  0.49817  1.0000
  C   C612      1.0  0.56928  0.53453  0.49713  1.0000
  H   H960      1.0  0.53696  0.67315  0.59336  1.0000
  H   H961      1.0  0.56856  0.68212  0.58562  1.0000
  C   C613      1.0  0.34588  0.58085  0.65959  1.0000
  S   S254      1.0  0.37442  0.97417  0.51883  1.0000
  H   H962      1.0  0.36201  0.65148  0.60025  1.0000
  H   H963      1.0  0.33320  0.72878  0.67706  1.0000
  H   H964      1.0  0.43266  0.64552  0.48810  1.0000
  H   H965      1.0  0.34815  0.88466  0.56974  1.0000
  H   H966      1.0  0.37516  0.81797  0.71928  1.0000
  N   N59       1.0  0.39961  0.85327  0.70786  1.0000
  C   C614      1.0  0.65348  0.51877  0.57505  1.0000
  H   H967      1.0  0.34520  0.61791  0.66018  1.0000
  C   C615      1.0  0.53776  0.63244  0.57836  1.0000
  H   H968      1.0  0.38412  0.95962  0.57008  1.0000
  H   H969      1.0  0.34755  0.61326  0.62622  1.0000
  C   C616      1.0  0.32829  0.81111  0.73137  1.0000
  C   C617      1.0  0.53265  0.80063  0.49425  1.0000
  H   H970      1.0  0.35415  0.67494  0.60945  1.0000
  H   H971      1.0  0.50456  0.72919  0.70282  1.0000
  H   H972      1.0  0.49834  0.70262  0.66413  1.0000
  H   H973      1.0  0.50975  0.67902  0.70097  1.0000
  H   H974      1.0  0.42463  0.85124  0.69064  1.0000
  C   C618      1.0  0.55166  0.66282  0.55788  1.0000
  H   H975      1.0  0.33825  0.60473  0.60698  1.0000
  H   H976      1.0  0.32877  0.93776  0.58188  1.0000
  C   C619      1.0  0.41951  0.86082  0.71982  1.0000
  H   H977      1.0  0.55803  0.63615  0.58083  1.0000
  C   C620      1.0  0.36755  0.95326  0.56208  1.0000
  N   N60       1.0  0.47966  0.86363  0.49980  1.0000
  N   N61       1.0  0.53681  0.65562  0.57197  1.0000
  H   H978      1.0  0.53751  0.69759  0.67071  1.0000
  H   H979      1.0  0.36878  0.88275  0.59397  1.0000
  C   C621      1.0  0.50962  0.64980  0.56883  1.0000
  S   S255      1.0  0.46646  0.62129  0.49431  1.0000
  H   H980      1.0  0.34038  0.54138  0.65823  1.0000
  H   H981      1.0  0.55143  0.68035  0.55279  1.0000
  H   H982      1.0  0.54239  0.79674  0.50358  1.0000
  H   H983      1.0  0.50012  0.63300  0.56100  1.0000
  H   H984      1.0  0.50834  0.66664  0.56354  1.0000
  H   H985      1.0  0.49788  0.64522  0.57924  1.0000
  H   H986      1.0  0.45707  0.73057  0.73134  1.0000
  C   C622      1.0  0.49898  0.85947  0.50883  1.0000
  H   H987      1.0  0.46006  0.82339  0.49307  1.0000
  C   C623      1.0  0.38302  0.86631  0.71049  1.0000
  H   H988      1.0  0.39435  0.88783  0.71025  1.0000
  H   H989      1.0  0.43220  0.85109  0.71824  1.0000
  H   H990      1.0  0.50010  0.90541  0.50100  1.0000
  Fe  Fe127     1.0  0.63830  0.58036  0.51964  1.0000
  C   C624      1.0  0.34052  0.95920  0.58068  1.0000
  H   H991      1.0  0.39778  0.85556  0.68389  1.0000
  C   C625      1.0  0.33534  0.87565  0.60734  1.0000
  C   C626      1.0  0.49230  0.88935  0.49258  1.0000
  H   H992      1.0  0.57612  0.54763  0.50709  1.0000
  H   H993      1.0  0.39510  0.81430  0.70501  1.0000
  H   H994      1.0  0.35648  0.93174  0.56287  1.0000
  H   H995      1.0  0.51534  0.73645  0.66895  1.0000
  H   H996      1.0  0.35388  0.77311  0.64551  1.0000
  H   H997      1.0  0.58149  0.52422  0.49638  1.0000
  H   H998      1.0  0.54356  0.64695  0.54935  1.0000
  H   H999      1.0  0.55198  0.70686  0.68905  1.0000
  H   H1000     1.0  0.48506  0.71652  0.67762  1.0000
  H   H1001     1.0  0.51513  0.86029  0.50173  1.0000
  H   H1002     1.0  0.48159  0.68261  0.69580  1.0000
  C   C627      1.0  0.35531  0.65630  0.61096  1.0000
  S   S256      1.0  0.50242  0.74651  0.49165  1.0000
  C   C628      1.0  0.51276  0.77987  0.48666  1.0000
  C   C629      1.0  0.54015  0.82656  0.48971  1.0000
  H   H1003     1.0  0.52664  0.62644  0.58898  1.0000
  S   S257      1.0  0.35447  0.85299  0.66600  1.0000
  H   H1004     1.0  0.42462  0.88243  0.69253  1.0000
  C   C630      1.0  0.54819  0.67752  0.58276  1.0000
  H   H1005     1.0  0.44417  0.86634  0.50321  1.0000
  H   H1006     1.0  0.57233  0.66734  0.55967  1.0000
  C   C631      1.0  0.34910  0.88031  0.59382  1.0000
  H   H1007     1.0  0.53286  0.72561  0.70770  1.0000
  H   H1008     1.0  0.53491  0.74985  0.69436  1.0000
  H   H1009     1.0  0.49572  0.66922  0.68258  1.0000
  H   H1010     1.0  0.35635  0.96559  0.58921  1.0000
  H   H1011     1.0  0.56471  0.57881  0.49463  1.0000
  C   C632      1.0  0.33259  0.61091  0.61761  1.0000
  C   C633      1.0  0.64811  0.53888  0.59803  1.0000
  N   N62       1.0  0.51691  0.71058  0.68588  1.0000
  C   C634      1.0  0.52266  0.72967  0.69822  1.0000
  C   C635      1.0  0.54130  0.71165  0.68014  1.0000
  C   C636      1.0  0.50335  0.71679  0.67361  1.0000
  H   H1012     1.0  0.55433  0.73133  0.67584  1.0000
  C   C637      1.0  0.39110  0.87476  0.49323  1.0000
  H   H1013     1.0  0.37060  0.66016  0.61956  1.0000
  C   C638      1.0  0.32917  0.95681  0.55447  1.0000
  H   H1014     1.0  0.36735  0.81858  0.69978  1.0000
  N   N63       1.0  0.33020  0.63524  0.61568  1.0000
  H   H1015     1.0  0.64290  0.55016  0.57559  1.0000
  C   C639      1.0  0.45130  0.71007  0.73283  1.0000
  H   H1016     1.0  0.39165  0.91161  0.49825  1.0000
  H   H1017     1.0  0.64359  0.55315  0.60348  1.0000
  C   C640      1.0  0.64777  0.53726  0.58220  1.0000
  H   H1018     1.0  0.34729  0.57475  0.49740  1.0000
  H   H1019     1.0  0.41050  0.85527  0.73110  1.0000
  H   H1020     1.0  0.46633  0.87747  0.51871  1.0000
  C   C641      1.0  0.33132  0.55416  0.65709  1.0000
  H   H1021     1.0  0.33629  0.96134  0.54275  1.0000
  S   S258      1.0  0.65440  0.52468  0.62676  1.0000
  C   C642      1.0  0.40037  0.90159  0.49187  1.0000
  C   C643      1.0  0.65403  0.52201  0.60686  1.0000
  C   C644      1.0  0.36623  0.99445  0.56407  1.0000
  S   S259      1.0  0.65482  0.51636  0.55519  1.0000
  H   H1022     1.0  0.53572  0.55176  0.48794  1.0000
  S   S260      1.0  0.39309  0.54631  0.97651  1.0000
  Fe  Fe128     1.0  0.44190  0.72078  0.81076  1.0000
  S   S261      1.0  0.41183  0.68940  0.79666  1.0000
  S   S262      1.0  0.44570  0.76133  0.81149  1.0000
  Fe  Fe129     1.0  0.46295  0.68600  0.82409  1.0000
  S   S263      1.0  0.43509  0.65136  0.81072  1.0000
  S   S264      1.0  0.49290  0.68637  0.84100  1.0000
  Fe  Fe130     1.0  0.44320  0.67823  0.79090  1.0000
  S   S265      1.0  0.44218  0.66055  0.76764  1.0000
  Fe  Fe131     1.0  0.40554  0.66470  0.81708  1.0000
  S   S266      1.0  0.36656  0.63525  0.82512  1.0000
  S   S267      1.0  0.47430  0.71182  0.80366  1.0000
  S   S268      1.0  0.43257  0.69726  0.83173  1.0000
  Fe  Fe132     1.0  0.50769  0.68174  0.96171  1.0000
  S   S269      1.0  0.55071  0.70187  0.96540  1.0000
  C   C645      1.0  0.41768  0.57837  0.97806  1.0000
  Fe  Fe133     1.0  0.51148  0.70291  0.93000  1.0000
  S   S270      1.0  0.55486  0.72534  0.93158  1.0000
  S   S271      1.0  0.48372  0.70177  0.91136  1.0000
  Fe  Fe134     1.0  0.55327  0.68871  0.94190  1.0000
  Fe  Fe135     1.0  0.54864  0.73670  0.95508  1.0000
  S   S272      1.0  0.50996  0.66588  0.93903  1.0000
  S   S273      1.0  0.50559  0.71701  0.95265  1.0000
  Fe  Fe136     1.0  0.36894  0.89503  0.94395  1.0000
  S   S274      1.0  0.40402  0.88798  0.94749  1.0000
  C   C646      1.0  0.46607  0.75444  0.85365  1.0000
  S   S275      1.0  0.36441  0.91643  0.92395  1.0000
  H   H1023     1.0  0.32811  0.62394  0.78217  1.0000
  C   C647      1.0  0.45677  0.61352  0.96797  1.0000
  C   C648      1.0  0.43693  0.58793  0.96705  1.0000
  Fe  Fe137     1.0  0.34618  0.93310  0.94032  1.0000
  H   H1024     1.0  0.47176  0.62071  0.95959  1.0000
  C   C649      1.0  0.55944  0.79833  0.97323  1.0000
  C   C650      1.0  0.44140  0.89179  0.96773  1.0000
  C   C651      1.0  0.42331  0.90073  0.96368  1.0000
  H   H1025     1.0  0.44371  0.87759  0.96072  1.0000
  H   H1026     1.0  0.40703  0.92655  0.96958  1.0000
  C   C652      1.0  0.48980  0.68964  0.86063  1.0000
  C   C653      1.0  0.51039  0.69304  0.87031  1.0000
  C   C654      1.0  0.50882  0.69650  0.88590  1.0000
  C   C655      1.0  0.48665  0.69679  0.89194  1.0000
  C   C656      1.0  0.46609  0.69337  0.88226  1.0000
  C   C657      1.0  0.46754  0.68961  0.86674  1.0000
  H   H1027     1.0  0.52765  0.69297  0.86574  1.0000
  H   H1028     1.0  0.52479  0.69905  0.89321  1.0000
  H   H1029     1.0  0.44878  0.69338  0.88681  1.0000
  H   H1030     1.0  0.45130  0.68637  0.85955  1.0000
  C   C658      1.0  0.34129  0.64015  0.81728  1.0000
  C   C659      1.0  0.34650  0.66394  0.81072  1.0000
  H   H1031     1.0  0.36563  0.67998  0.81152  1.0000
  C   C660      1.0  0.44302  0.67388  0.74955  1.0000
  C   C661      1.0  0.36701  0.75877  0.82078  1.0000
  C   C662      1.0  0.38640  0.78044  0.81383  1.0000
  C   C663      1.0  0.41067  0.78130  0.81107  1.0000
  C   C664      1.0  0.41530  0.76017  0.81485  1.0000
  C   C665      1.0  0.39571  0.73830  0.82151  1.0000
  C   C666      1.0  0.37174  0.73775  0.82466  1.0000
  H   H1032     1.0  0.38292  0.79671  0.81077  1.0000
  H   H1033     1.0  0.42572  0.79816  0.80580  1.0000
  H   H1034     1.0  0.39906  0.72189  0.82443  1.0000
  H   H1035     1.0  0.35681  0.72089  0.83000  1.0000
  N   N64       1.0  0.37350  0.82531  0.85795  1.0000
  N   N65       1.0  0.49374  0.76702  0.84957  1.0000
  C   C667      1.0  0.50175  0.79457  0.84594  1.0000
  C   C668      1.0  0.50937  0.76519  0.86227  1.0000
  C   C669      1.0  0.49769  0.75377  0.83632  1.0000
  H   H1036     1.0  0.52243  0.80455  0.84258  1.0000
  H   H1037     1.0  0.49922  0.80530  0.85570  1.0000
  H   H1038     1.0  0.49003  0.79633  0.83642  1.0000
  H   H1039     1.0  0.50398  0.74455  0.86505  1.0000
  H   H1040     1.0  0.50657  0.77455  0.87259  1.0000
  H   H1041     1.0  0.53039  0.77459  0.85964  1.0000
  H   H1042     1.0  0.49080  0.73274  0.83842  1.0000
  H   H1043     1.0  0.51846  0.76190  0.83324  1.0000
  H   H1044     1.0  0.48691  0.75549  0.82636  1.0000
  H   H1045     1.0  0.45362  0.75470  0.84412  1.0000
  H   H1046     1.0  0.45955  0.73377  0.85679  1.0000
  S   S276      1.0  0.35249  0.82476  0.80559  1.0000
  H   H1047     1.0  0.46223  0.76431  0.86338  1.0000
  H   H1048     1.0  0.43651  0.57549  0.95782  1.0000
  C   C670      1.0  0.65405  0.63621  0.89495  1.0000
  N   N66       1.0  0.36167  0.62649  0.77057  1.0000
  H   H1049     1.0  0.45438  0.71308  0.75707  1.0000
  H   H1050     1.0  0.44430  0.54658  0.98270  1.0000
  H   H1051     1.0  0.38939  0.62231  0.75630  1.0000
  C   C671      1.0  0.37413  0.62359  0.78446  1.0000
  H   H1052     1.0  0.63056  0.77491  0.93495  1.0000
  S   S277      1.0  0.35314  0.91354  0.96059  1.0000
  H   H1053     1.0  0.36636  0.81609  0.88133  1.0000
  C   C672      1.0  0.53616  0.79715  0.96783  1.0000
  S   S278      1.0  0.35065  0.97478  0.93754  1.0000
  H   H1054     1.0  0.39750  0.82055  0.87495  1.0000
  H   H1055     1.0  0.60050  0.74614  0.97130  1.0000
  H   H1056     1.0  0.40103  0.66052  0.92861  1.0000
  H   H1057     1.0  0.38158  0.86359  0.85040  1.0000
  S   S279      1.0  0.33097  0.85960  0.94031  1.0000
  H   H1058     1.0  0.36446  0.90202  0.85874  1.0000
  S   S280      1.0  0.65430  0.55583  0.96534  1.0000
  H   H1059     1.0  0.42941  0.61533  0.92038  1.0000
  C   C673      1.0  0.33039  0.86794  0.85153  1.0000
  C   C674      1.0  0.38748  0.82045  0.84544  1.0000
  C   C675      1.0  0.36804  0.61353  0.75805  1.0000
  S   S281      1.0  0.57147  0.77619  0.96700  1.0000
  H   H1060     1.0  0.38027  0.79926  0.84333  1.0000
  C   C676      1.0  0.52819  0.81602  0.97229  1.0000
  C   C677      1.0  0.45725  0.62969  0.97983  1.0000
  H   H1061     1.0  0.60269  0.67145  0.96118  1.0000
  C   C678      1.0  0.44132  0.66442  0.94524  1.0000
  H   H1062     1.0  0.35911  0.61538  0.74733  1.0000
  C   C679      1.0  0.34572  0.81437  0.85408  1.0000
  H   H1063     1.0  0.32684  0.92623  0.88866  1.0000
  H   H1064     1.0  0.64656  0.57448  0.89797  1.0000
  C   C680      1.0  0.37674  0.81277  0.87169  1.0000
  H   H1065     1.0  0.52459  0.78207  0.95990  1.0000
  C   C681      1.0  0.43718  0.65750  0.73687  1.0000
  H   H1066     1.0  0.62896  0.77453  0.97657  1.0000
  S   S282      1.0  0.65006  0.61932  0.95420  1.0000
  C   C682      1.0  0.44976  0.70020  0.74745  1.0000
  C   C683      1.0  0.57420  0.81832  0.98349  1.0000
  C   C684      1.0  0.44105  0.63177  0.92808  1.0000
  H   H1067     1.0  0.61860  0.61194  0.92691  1.0000
  H   H1068     1.0  0.60044  0.72056  0.94890  1.0000
  H   H1069     1.0  0.33602  0.85184  0.97406  1.0000
  H   H1070     1.0  0.35548  0.83523  0.97704  1.0000
  H   H1071     1.0  0.54173  0.98558  0.98270  1.0000
  H   H1072     1.0  0.33119  0.68554  0.79794  1.0000
  C   C685      1.0  0.34619  0.88643  0.86219  1.0000
  S   S283      1.0  0.34086  0.87027  0.83268  1.0000
  C   C686      1.0  0.41303  0.65190  0.92359  1.0000
  H   H1073     1.0  0.32536  0.59351  0.77533  1.0000
  H   H1074     1.0  0.51042  0.81512  0.96774  1.0000
  C   C687      1.0  0.42053  0.91916  0.97275  1.0000
  H   H1075     1.0  0.36676  0.60287  0.78772  1.0000
  C   C688      1.0  0.60623  0.65872  0.95360  1.0000
  H   H1076     1.0  0.62983  0.79263  0.95155  1.0000
  Fe  Fe138     1.0  0.32749  0.81546  0.78473  1.0000
  H   H1077     1.0  0.39214  0.60489  0.93722  1.0000
  H   H1078     1.0  0.37371  0.85790  0.86991  1.0000
  H   H1079     1.0  0.36893  0.79138  0.87008  1.0000
  H   H1080     1.0  0.60182  0.76402  0.94597  1.0000
  H   H1081     1.0  0.39269  0.66418  0.76587  1.0000
  H   H1082     1.0  0.34004  0.95600  0.89956  1.0000
  H   H1083     1.0  0.40928  0.50355  0.97551  1.0000
  H   H1084     1.0  0.33724  0.79313  0.85168  1.0000
  Fe  Fe139     1.0  0.63561  0.52574  0.94743  1.0000
  H   H1085     1.0  0.62837  0.71794  0.95561  1.0000
  S   S284      1.0  0.57867  0.67127  0.93188  1.0000
  H   H1086     1.0  0.62789  0.74287  0.97849  1.0000
  H   H1087     1.0  0.59185  0.63339  0.91841  1.0000
  C   C689      1.0  0.38394  0.85360  0.86056  1.0000
  H   H1088     1.0  0.36269  0.65730  0.75658  1.0000
  C   C690      1.0  0.62729  0.63070  0.94849  1.0000
  H   H1089     1.0  0.43210  0.63714  0.73833  1.0000
  H   H1090     1.0  0.62841  0.73100  0.93737  1.0000
  C   C691      1.0  0.61546  0.62510  0.93432  1.0000
  H   H1091     1.0  0.32574  0.92521  0.90864  1.0000
  S   S285      1.0  0.33738  0.75814  0.82574  1.0000
  H   H1092     1.0  0.61552  0.51272  0.86681  1.0000
  H   H1093     1.0  0.35112  0.89889  0.88546  1.0000
  H   H1094     1.0  0.39163  0.62944  0.94959  1.0000
  H   H1095     1.0  0.62946  0.58605  0.88566  1.0000
  H   H1096     1.0  0.45684  0.64680  0.92134  1.0000
  C   C692      1.0  0.62241  0.64747  0.95811  1.0000
  H   H1097     1.0  0.36130  0.59250  0.76028  1.0000
  S   S286      1.0  0.48097  0.66222  0.98100  1.0000
  H   H1098     1.0  0.40861  0.82882  0.84777  1.0000
  C   C693      1.0  0.60014  0.63718  0.92958  1.0000
  H   H1099     1.0  0.45034  0.62446  0.93654  1.0000
  H   H1100     1.0  0.41285  0.61524  0.95344  1.0000
  C   C694      1.0  0.65138  0.52230  0.85532  1.0000
  H   H1101     1.0  0.40491  0.86262  0.86346  1.0000
  S   S287      1.0  0.34288  0.81907  0.76093  1.0000
  C   C695      1.0  0.45642  0.90099  0.98086  1.0000
  H   H1102     1.0  0.42811  0.66720  0.91661  1.0000
  C   C696      1.0  0.62194  0.73052  0.94915  1.0000
  C   C697      1.0  0.59548  0.65416  0.93915  1.0000
  S   S288      1.0  0.63555  0.51015  0.83777  1.0000
  S   S289      1.0  0.63630  0.55428  0.92999  1.0000
  H   H1103     1.0  0.45137  0.65832  0.95388  1.0000
  C   C698      1.0  0.64038  0.59004  0.89645  1.0000
  Fe  Fe140     1.0  0.32562  0.78464  0.81293  1.0000
  C   C699      1.0  0.54300  0.83612  0.98245  1.0000
  H   H1104     1.0  0.34270  0.82378  0.84391  1.0000
  H   H1105     1.0  0.37051  0.63390  0.79399  1.0000
  H   H1106     1.0  0.45646  0.68046  0.93878  1.0000
  H   H1107     1.0  0.39547  0.63174  0.78324  1.0000
  C   C700      1.0  0.33867  0.88472  0.87734  1.0000
  C   C701      1.0  0.37125  0.65438  0.76718  1.0000
  C   C702      1.0  0.63636  0.52132  0.86791  1.0000
  H   H1108     1.0  0.40046  0.63588  0.91589  1.0000
  N   N67       1.0  0.42494  0.64252  0.93529  1.0000
  H   H1109     1.0  0.42979  0.67259  0.95126  1.0000
  C   C703      1.0  0.40446  0.62212  0.94423  1.0000
  Fe  Fe141     1.0  0.64955  0.49664  0.81698  1.0000
  C   C704      1.0  0.64804  0.53152  0.88193  1.0000
  H   H1110     1.0  0.63615  0.53028  0.89150  1.0000
  H   H1111     1.0  0.36634  0.66469  0.77629  1.0000
  S   S290      1.0  0.65732  0.51298  0.75904  1.0000
  H   H1112     1.0  0.38484  0.82912  0.83481  1.0000
  C   C705      1.0  0.33332  0.61455  0.77268  1.0000
  H   H1113     1.0  0.37041  0.86898  0.97229  1.0000
  C   C706      1.0  0.62200  0.75500  0.97123  1.0000
  H   H1114     1.0  0.62672  0.58810  0.90567  1.0000
  N   N68       1.0  0.63194  0.75684  0.95581  1.0000
  C   C707      1.0  0.32963  0.82539  0.74443  1.0000
  C   C708      1.0  0.62329  0.77284  0.94663  1.0000
  H   H1115     1.0  0.40712  0.99173  0.93794  1.0000
  C   C709      1.0  0.65481  0.49717  0.74143  1.0000
  C   C710      1.0  0.45556  0.50640  0.98391  1.0000
  C   C711      1.0  0.35462  0.85393  0.97890  1.0000
  C   C712      1.0  0.32689  0.66712  0.80317  1.0000
  H   H1116     1.0  0.63134  0.65186  0.96912  1.0000
  H   H1117     1.0  0.33442  0.81746  0.86328  1.0000
  Fe  Fe142     1.0  0.65773  0.58481  0.94751  1.0000
  H   H1118     1.0  0.45559  0.51334  0.97227  1.0000
  H   H1119     1.0  0.47023  0.89389  0.98394  1.0000
  H   H1120     1.0  0.61199  0.50996  0.98018  1.0000
  H   H1121     1.0  0.64123  0.63566  0.90436  1.0000
  H   H1122     1.0  0.64292  0.63362  0.88433  1.0000
  H   H1123     1.0  0.32467  0.85755  0.75348  1.0000
  Fe  Fe143     1.0  0.32484  0.88275  0.92181  1.0000
  S   S291      1.0  0.69864  0.25528  0.19216  1.0000
  C   C713      1.0  0.66348  0.46148  0.99431  1.0000
  H   H1124     1.0  0.74846  0.48606  0.20533  1.0000
  S   S292      1.0  0.69066  0.25691  0.14723  1.0000
  C   C714      1.0  0.78338  0.46418  0.23568  1.0000
  H   H1125     1.0  0.67242  0.11471  0.03786  1.0000
  S   S293      1.0  0.68251  0.31832  0.13367  1.0000
  C   C715      1.0  0.85113  0.47399  0.98793  1.0000
  Fe  Fe144     1.0  0.66193  0.14085  0.01205  1.0000
  H   H1126     1.0  0.83572  0.41341  0.10664  1.0000
  C   C716      1.0  0.68601  0.21117  0.10176  1.0000
  S   S294      1.0  0.78053  0.40983  0.16363  1.0000
  H   H1127     1.0  0.68385  0.35510  0.18701  1.0000
  C   C717      1.0  0.68471  0.24217  0.20970  1.0000
  S   S295      1.0  0.70168  0.17331  0.01768  1.0000
  H   H1128     1.0  0.81907  0.35102  0.01482  1.0000
  Fe  Fe145     1.0  0.69327  0.19920  0.00189  1.0000
  H   H1129     1.0  0.65964  0.35326  0.14792  1.0000
  Fe  Fe146     1.0  0.76170  0.48719  0.15596  1.0000
  C   C718      1.0  0.69951  0.46249  0.14844  1.0000
  H   H1130     1.0  0.68542  0.40160  0.13610  1.0000
  H   H1131     1.0  0.69369  0.30598  0.08155  1.0000
  C   C719      1.0  0.67878  0.28553  0.07984  1.0000
  H   H1132     1.0  0.69565  0.26377  0.10079  1.0000
  H   H1133     1.0  0.78661  0.42284  0.12916  1.0000
  C   C720      1.0  0.68283  0.19855  0.07524  1.0000
  H   H1134     1.0  0.72289  0.44371  0.14207  1.0000
  C   C721      1.0  0.77012  0.25797  0.99023  1.0000
  H   H1135     1.0  0.90679  0.46764  0.98892  1.0000
  H   H1136     1.0  0.86865  0.39785  0.98940  1.0000
  H   H1137     1.0  0.81089  0.28135  0.99495  1.0000
  H   H1138     1.0  0.79184  0.34651  0.00314  1.0000
  C   C722      1.0  0.70349  0.44149  0.14353  1.0000
  H   H1139     1.0  0.69777  0.22098  0.11143  1.0000
  H   H1140     1.0  0.71859  0.22209  0.08692  1.0000
  H   H1141     1.0  0.69942  0.29458  0.10796  1.0000
  S   S296      1.0  0.76286  0.46568  0.17658  1.0000
  C   C723      1.0  0.70961  0.34367  0.14210  1.0000
  C   C724      1.0  0.72428  0.33843  0.15284  1.0000
  C   C725      1.0  0.74596  0.35894  0.15943  1.0000
  C   C726      1.0  0.75263  0.38474  0.15563  1.0000
  C   C727      1.0  0.73757  0.39001  0.14513  1.0000
  C   C728      1.0  0.71635  0.36944  0.13819  1.0000
  H   H1142     1.0  0.71917  0.31858  0.15595  1.0000
  H   H1143     1.0  0.75756  0.35478  0.16756  1.0000
  H   H1144     1.0  0.74246  0.40985  0.14220  1.0000
  H   H1145     1.0  0.70498  0.37350  0.12988  1.0000
  S   S297      1.0  0.69881  0.19821  0.05834  1.0000
  Fe  Fe147     1.0  0.67465  0.24813  0.17084  1.0000
  H   H1146     1.0  0.69291  0.14604  0.04594  1.0000
  C   C729      1.0  0.66511  0.21671  0.21086  1.0000
  C   C730      1.0  0.69428  0.25713  0.22285  1.0000
  H   H1147     1.0  0.65803  0.20480  0.20087  1.0000
  H   H1148     1.0  0.83933  0.41590  0.99740  1.0000
  C   C731      1.0  0.67429  0.45945  0.15030  1.0000
  H   H1149     1.0  0.78838  0.46566  0.21160  1.0000
  N   N69       1.0  0.82621  0.43553  0.12278  1.0000
  Fe  Fe148     1.0  0.78470  0.45047  0.16220  1.0000
  H   H1150     1.0  0.70973  0.27670  0.22208  1.0000
  C   C732      1.0  0.67821  0.34956  0.17510  1.0000
  S   S298      1.0  0.82351  0.48318  0.16810  1.0000
  Fe  Fe149     1.0  0.68060  0.18532  0.03512  1.0000
  S   S299      1.0  0.67432  0.21282  0.01964  1.0000
  H   H1151     1.0  0.84544  0.47037  0.10980  1.0000
  H   H1152     1.0  0.69351  0.36433  0.16802  1.0000
  H   H1153     1.0  0.81333  0.46330  0.11529  1.0000
  H   H1154     1.0  0.72469  0.48608  0.21821  1.0000
  Fe  Fe150     1.0  0.66848  0.28026  0.14571  1.0000
  H   H1155     1.0  0.66700  0.30989  0.10213  1.0000
  C   C733      1.0  0.83653  0.44927  0.13713  1.0000
  H   H1156     1.0  0.68464  0.12441  0.08532  1.0000
  C   C734      1.0  0.79010  0.47678  0.22172  1.0000
  H   H1157     1.0  0.81352  0.33373  0.99734  1.0000
  H   H1158     1.0  0.69923  0.15178  0.07311  1.0000
  H   H1159     1.0  0.86359  0.37996  0.00650  1.0000
  C   C735      1.0  0.81255  0.35057  0.00302  1.0000
  H   H1160     1.0  0.70079  0.49481  0.18077  1.0000
  H   H1161     1.0  0.86313  0.43922  0.11569  1.0000
  H   H1162     1.0  0.82460  0.45855  0.14121  1.0000
  C   C736      1.0  0.84295  0.42399  0.11746  1.0000
  H   H1163     1.0  0.81817  0.44466  0.10053  1.0000
  H   H1164     1.0  0.76657  0.24701  0.00050  1.0000
  H   H1165     1.0  0.70340  0.12111  0.04566  1.0000
  C   C737      1.0  0.82575  0.45417  0.11157  1.0000
  N   N70       1.0  0.66566  0.27403  0.09404  1.0000
  H   H1166     1.0  0.71082  0.12762  0.07329  1.0000
  H   H1167     1.0  0.83647  0.43580  0.14608  1.0000
  C   C738      1.0  0.68228  0.41766  0.14015  1.0000
  H   H1168     1.0  0.83481  0.39913  0.01486  1.0000
  H   H1169     1.0  0.66476  0.28548  0.07123  1.0000
  C   C739      1.0  0.69306  0.13049  0.07397  1.0000
  C   C740      1.0  0.82742  0.39715  0.00314  1.0000
  S   S300      1.0  0.77929  0.46813  0.14094  1.0000
  H   H1170     1.0  0.67565  0.26494  0.11572  1.0000
  N   N71       1.0  0.67422  0.11585  0.06202  1.0000
  C   C741      1.0  0.79965  0.41475  0.12504  1.0000
  C   C742      1.0  0.69775  0.21171  0.08785  1.0000
  C   C743      1.0  0.68624  0.12478  0.04722  1.0000
  H   H1171     1.0  0.85660  0.46510  0.13597  1.0000
  H   H1172     1.0  0.79109  0.40388  0.11448  1.0000
  H   H1173     1.0  0.79923  0.40053  0.13360  1.0000
  H   H1174     1.0  0.84374  0.40994  0.12575  1.0000
  C   C744      1.0  0.85583  0.37924  0.99498  1.0000
  C   C745      1.0  0.65921  0.19688  0.10328  1.0000
  H   H1175     1.0  0.67872  0.33077  0.17296  1.0000
  H   H1176     1.0  0.68869  0.27442  0.07510  1.0000
  H   H1177     1.0  0.85762  0.36327  0.98878  1.0000
  H   H1178     1.0  0.71639  0.47477  0.18443  1.0000
  C   C746      1.0  0.68499  0.27437  0.10507  1.0000
  H   H1179     1.0  0.68333  0.08354  0.06272  1.0000
  H   H1180     1.0  0.80724  0.39476  0.00357  1.0000
  N   N72       1.0  0.82869  0.37513  0.99523  1.0000
  C   C747      1.0  0.66638  0.08776  0.06353  1.0000
  H   H1181     1.0  0.66852  0.38859  0.16660  1.0000
  C   C748      1.0  0.87557  0.47761  0.99276  1.0000
  C   C749      1.0  0.79535  0.27756  0.98703  1.0000
  C   C750      1.0  0.70889  0.48742  0.18991  1.0000
  S   S301      1.0  0.72596  0.49241  0.15251  1.0000
  H   H1182     1.0  0.67960  0.47188  0.00244  1.0000
  H   H1183     1.0  0.66513  0.44403  0.99018  1.0000
  H   H1184     1.0  0.84128  0.48324  0.99396  1.0000
  H   H1185     1.0  0.69264  0.47495  0.19728  1.0000
  H   H1186     1.0  0.67115  0.47568  0.15407  1.0000
  Fe  Fe151     1.0  0.69262  0.19231  0.44709  1.0000
  C   C751      1.0  0.66432  0.45110  0.34057  1.0000
  S   S302      1.0  0.73585  0.21354  0.45367  1.0000
  C   C752      1.0  0.73448  0.12766  0.47349  1.0000
  H   H1187     1.0  0.76372  0.28751  0.31390  1.0000
  S   S303      1.0  0.78899  0.46275  0.31012  1.0000
  S   S304      1.0  0.67899  0.16326  0.42776  1.0000
  N   N73       1.0  0.66627  0.42637  0.34028  1.0000
  C   C753      1.0  0.72224  0.39843  0.27463  1.0000
  N   N74       1.0  0.74941  0.28052  0.33653  1.0000
  C   C754      1.0  0.77940  0.25282  0.46683  1.0000
  Fe  Fe152     1.0  0.69541  0.27493  0.29754  1.0000
  C   C755      1.0  0.85824  0.49509  0.47952  1.0000
  S   S305      1.0  0.73209  0.31250  0.29774  1.0000
  H   H1188     1.0  0.80211  0.48466  0.35557  1.0000
  H   H1189     1.0  0.80251  0.35624  0.44068  1.0000
  H   H1190     1.0  0.69135  0.39081  0.29847  1.0000
  C   C756      1.0  0.72898  0.25936  0.34508  1.0000
  S   S306      1.0  0.69753  0.23780  0.29201  1.0000
  C   C757      1.0  0.73919  0.24363  0.47914  1.0000
  S   S307      1.0  0.66987  0.21271  0.43909  1.0000
  Fe  Fe153     1.0  0.74790  0.44636  0.31788  1.0000
  S   S308      1.0  0.72416  0.40761  0.32850  1.0000
  C   C758      1.0  0.73040  0.33867  0.30695  1.0000
  C   C759      1.0  0.74986  0.36393  0.30463  1.0000
  C   C760      1.0  0.74826  0.38525  0.31134  1.0000
  C   C761      1.0  0.72736  0.38130  0.32056  1.0000
  C   C762      1.0  0.70825  0.35599  0.32321  1.0000
  C   C763      1.0  0.70963  0.33472  0.31631  1.0000
  H   H1191     1.0  0.76600  0.36709  0.29742  1.0000
  H   H1192     1.0  0.76319  0.40471  0.30935  1.0000
  H   H1193     1.0  0.69203  0.35285  0.33034  1.0000
  H   H1194     1.0  0.69447  0.31538  0.31811  1.0000
  S   S309      1.0  0.85277  0.41335  0.47641  1.0000
  H   H1195     1.0  0.78981  0.24893  0.45790  1.0000
  H   H1196     1.0  0.75134  0.25418  0.31990  1.0000
  H   H1197     1.0  0.70949  0.25429  0.34031  1.0000
  H   H1198     1.0  0.68409  0.46448  0.30305  1.0000
  H   H1199     1.0  0.83310  0.35932  0.46849  1.0000
  C   C764      1.0  0.68671  0.42793  0.35085  1.0000
  S   S310      1.0  0.77740  0.46123  0.26626  1.0000
  C   C765      1.0  0.81659  0.34018  0.46572  1.0000
  H   H1200     1.0  0.79079  0.30262  0.33694  1.0000
  C   C766      1.0  0.71580  0.14421  0.45469  1.0000
  H   H1201     1.0  0.67499  0.12613  0.47330  1.0000
  C   C767      1.0  0.68175  0.37952  0.26095  1.0000
  H   H1202     1.0  0.70005  0.34665  0.27122  1.0000
  H   H1203     1.0  0.73216  0.39161  0.26629  1.0000
  S   S311      1.0  0.73260  0.45692  0.29726  1.0000
  H   H1204     1.0  0.65986  0.45569  0.35200  1.0000
  H   H1205     1.0  0.68852  0.40946  0.35089  1.0000
  H   H1206     1.0  0.72568  0.41830  0.27124  1.0000
  C   C768      1.0  0.85320  0.45749  0.46482  1.0000
  H   H1207     1.0  0.68088  0.16844  0.35569  1.0000
  H   H1208     1.0  0.77903  0.36449  0.44929  1.0000
  C   C769      1.0  0.75223  0.23850  0.46739  1.0000
  C   C770      1.0  0.77499  0.28671  0.34317  1.0000
  H   H1209     1.0  0.85073  0.44796  0.45404  1.0000
  Fe  Fe154     1.0  0.74242  0.49452  0.30905  1.0000
  H   H1210     1.0  0.68290  0.10062  0.46823  1.0000
  C   C771      1.0  0.67364  0.47597  0.30350  1.0000
  H   H1211     1.0  0.72560  0.29965  0.33221  1.0000
  C   C772      1.0  0.72336  0.16226  0.47972  1.0000
  H   H1212     1.0  0.81421  0.28239  0.47727  1.0000
  H   H1213     1.0  0.72974  0.26776  0.31548  1.0000
  H   H1214     1.0  0.73224  0.40042  0.28559  1.0000
  H   H1215     1.0  0.73522  0.15890  0.45095  1.0000
  H   H1216     1.0  0.70964  0.12653  0.44751  1.0000
  H   H1217     1.0  0.69027  0.37242  0.25193  1.0000
  H   H1218     1.0  0.74568  0.31110  0.34866  1.0000
  H   H1219     1.0  0.68466  0.40972  0.28471  1.0000
  H   H1220     1.0  0.75948  0.31996  0.33025  1.0000
  N   N75       1.0  0.69430  0.38054  0.27558  1.0000
  N   N76       1.0  0.71580  0.13821  0.47077  1.0000
  Fe  Fe155     1.0  0.77405  0.47538  0.28974  1.0000
  H   H1221     1.0  0.75312  0.31843  0.45633  1.0000
  H   H1222     1.0  0.72884  0.26481  0.35705  1.0000
  C   C773      1.0  0.74490  0.30384  0.33700  1.0000
  C   C774      1.0  0.85488  0.48259  0.46563  1.0000
  C   C775      1.0  0.69073  0.35424  0.27950  1.0000
  H   H1223     1.0  0.76695  0.35296  0.47602  1.0000
  H   H1224     1.0  0.81465  0.32699  0.47521  1.0000
  Fe  Fe156     1.0  0.67164  0.22202  0.31209  1.0000
  H   H1225     1.0  0.77620  0.29306  0.35508  1.0000
  H   H1226     1.0  0.77895  0.26948  0.34289  1.0000
  H   H1227     1.0  0.75442  0.14188  0.47026  1.0000
  H   H1228     1.0  0.71835  0.23280  0.47983  1.0000
  C   C776      1.0  0.78569  0.47827  0.24901  1.0000
  H   H1229     1.0  0.72929  0.10953  0.46686  1.0000
  H   H1230     1.0  0.68413  0.39909  0.25765  1.0000
  H   H1231     1.0  0.76733  0.30239  0.46746  1.0000
  H   H1232     1.0  0.70598  0.44360  0.34768  1.0000
  C   C777      1.0  0.85493  0.44480  0.47788  1.0000
  S   S312      1.0  0.66137  0.26663  0.28241  1.0000
  H   H1233     1.0  0.66139  0.23084  0.34718  1.0000
  H   H1234     1.0  0.66130  0.37687  0.28825  1.0000
  H   H1235     1.0  0.77516  0.48212  0.48313  1.0000
  C   C778      1.0  0.68403  0.24693  0.23701  1.0000
  H   H1236     1.0  0.70221  0.15254  0.45242  1.0000
  H   H1237     1.0  0.82203  0.33240  0.45562  1.0000
  H   H1238     1.0  0.81250  0.38145  0.45468  1.0000
  C   C779      1.0  0.79334  0.27193  0.47780  1.0000
  N   N77       1.0  0.79249  0.34263  0.46326  1.0000
  H   H1239     1.0  0.69144  0.25870  0.24702  1.0000
  H   H1240     1.0  0.77657  0.30960  0.44828  1.0000
  C   C780      1.0  0.68240  0.38993  0.28725  1.0000
  C   C781      1.0  0.79676  0.36201  0.45143  1.0000
  H   H1241     1.0  0.69211  0.43666  0.32156  1.0000
  S   S313      1.0  0.75337  0.48210  0.33052  1.0000
  C   C782      1.0  0.74864  0.27209  0.32079  1.0000
  H   H1242     1.0  0.73138  0.24121  0.34474  1.0000
  C   C783      1.0  0.67425  0.18219  0.35965  1.0000
  C   C784      1.0  0.66317  0.21721  0.35478  1.0000
  H   H1243     1.0  0.80480  0.47992  0.38310  1.0000
  S   S314      1.0  0.67203  0.25978  0.31835  1.0000
  C   C785      1.0  0.68957  0.11874  0.47510  1.0000
  H   H1244     1.0  0.85365  0.49228  0.45550  1.0000
  H   H1245     1.0  0.70977  0.17087  0.47782  1.0000
  C   C786      1.0  0.66458  0.22139  0.23817  1.0000
  C   C787      1.0  0.67163  0.19947  0.34948  1.0000
  H   H1246     1.0  0.68272  0.46766  0.33691  1.0000
  H   H1247     1.0  0.74291  0.17750  0.47656  1.0000
  S   S315      1.0  0.67871  0.19814  0.33022  1.0000
  C   C788      1.0  0.66787  0.18221  0.37492  1.0000
  C   C789      1.0  0.78524  0.35123  0.47734  1.0000
  Fe  Fe157     1.0  0.66156  0.22822  0.27828  1.0000
  H   H1248     1.0  0.68265  0.43184  0.36252  1.0000
  C   C790      1.0  0.77147  0.31720  0.45859  1.0000
  H   H1249     1.0  0.66060  0.36627  0.26132  1.0000
  H   H1250     1.0  0.80056  0.37057  0.48103  1.0000
  S   S316      1.0  0.66111  0.16592  0.46234  1.0000
  C   C791      1.0  0.67276  0.42152  0.32497  1.0000
  H   H1251     1.0  0.65825  0.42119  0.31662  1.0000
  H   H1252     1.0  0.69947  0.35435  0.29059  1.0000
  C   C792      1.0  0.65868  0.19949  0.38011  1.0000
  H   H1253     1.0  0.66986  0.34011  0.28015  1.0000
  H   H1254     1.0  0.66951  0.16852  0.38260  1.0000
  H   H1255     1.0  0.67314  0.40240  0.32416  1.0000
  H   H1256     1.0  0.77661  0.44337  0.23617  1.0000
  H   H1257     1.0  0.73504  0.12295  0.48553  1.0000
  Fe  Fe158     1.0  0.80068  0.37421  0.67296  1.0000
  S   S317      1.0  0.77437  0.34821  0.65485  1.0000
  S   S318      1.0  0.81013  0.35909  0.69452  1.0000
  Fe  Fe159     1.0  0.81133  0.42263  0.65535  1.0000
  S   S319      1.0  0.78601  0.40126  0.63592  1.0000
  S   S320      1.0  0.83201  0.46599  0.65621  1.0000
  Fe  Fe160     1.0  0.75871  0.37744  0.65377  1.0000
  S   S321      1.0  0.71771  0.37114  0.65155  1.0000
  Fe  Fe161     1.0  0.80391  0.37406  0.63824  1.0000
  S   S322      1.0  0.81257  0.35432  0.61830  1.0000
  S   S323      1.0  0.78253  0.40131  0.67306  1.0000
  S   S324      1.0  0.83187  0.39756  0.65649  1.0000
  H   H1258     1.0  0.78418  0.38960  0.70471  1.0000
  Fe  Fe162     1.0  0.83399  0.33810  0.50843  1.0000
  S   S325      1.0  0.82311  0.37080  0.51142  1.0000
  H   H1259     1.0  0.76690  0.43177  0.61747  1.0000
  Fe  Fe163     1.0  0.89252  0.37634  0.51472  1.0000
  S   S326      1.0  0.88401  0.41053  0.51718  1.0000
  S   S327      1.0  0.93378  0.38321  0.52129  1.0000
  Fe  Fe164     1.0  0.85024  0.38383  0.53122  1.0000
  S   S328      1.0  0.84316  0.40171  0.55258  1.0000
  Fe  Fe165     1.0  0.85766  0.39383  0.49730  1.0000
  H   H1260     1.0  0.94728  0.41027  0.57485  1.0000
  S   S329      1.0  0.85912  0.34981  0.52946  1.0000
  H   H1261     1.0  0.73145  0.34137  0.62619  1.0000
  C   C793      1.0  0.96516  0.40728  0.51565  1.0000
  C   C794      1.0  0.72553  0.42935  0.63248  1.0000
  H   H1262     1.0  0.67581  0.42075  0.68792  1.0000
  H   H1263     1.0  0.75925  0.33530  0.73026  1.0000
  H   H1264     1.0  0.74118  0.42957  0.63986  1.0000
  H   H1265     1.0  0.86278  0.43042  0.68352  1.0000
  C   C795      1.0  0.82116  0.36784  0.60010  1.0000
  C   C796      1.0  0.82379  0.39260  0.59677  1.0000
  C   C797      1.0  0.83045  0.40256  0.58215  1.0000
  C   C798      1.0  0.83441  0.38787  0.57069  1.0000
  C   C799      1.0  0.83171  0.36307  0.57401  1.0000
  C   C800      1.0  0.82514  0.35314  0.58865  1.0000
  H   H1266     1.0  0.82089  0.40418  0.60545  1.0000
  H   H1267     1.0  0.83257  0.42179  0.57971  1.0000
  H   H1268     1.0  0.83466  0.35153  0.56531  1.0000
  H   H1269     1.0  0.82319  0.33397  0.59111  1.0000
  C   C801      1.0  0.81083  0.48035  0.65634  1.0000
  C   C802      1.0  0.78415  0.46555  0.65849  1.0000
  C   C803      1.0  0.76765  0.47759  0.65830  1.0000
  H   H1270     1.0  0.71117  0.40863  0.63086  1.0000
  N   N78       1.0  0.85862  0.45180  0.70232  1.0000
  H   H1271     1.0  0.85454  0.41276  0.70084  1.0000
  H   H1272     1.0  0.77620  0.44489  0.66030  1.0000
  H   H1273     1.0  0.74712  0.46623  0.66004  1.0000
  C   C804      1.0  0.74996  0.42967  0.61059  1.0000
  C   C805      1.0  0.85138  0.42723  0.69400  1.0000
  C   C806      1.0  0.69453  0.33860  0.65015  1.0000
  H   H1274     1.0  0.91705  0.38136  0.55546  1.0000
  H   H1275     1.0  0.72490  0.32186  0.73203  1.0000
  H   H1276     1.0  0.95202  0.42213  0.49712  1.0000
  C   C807      1.0  0.80503  0.36900  0.71250  1.0000
  H   H1277     1.0  0.86605  0.47464  0.68226  1.0000
  H   H1278     1.0  0.73737  0.40852  0.60885  1.0000
  C   C808      1.0  0.75335  0.47005  0.62069  1.0000
  C   C809      1.0  0.79194  0.38416  0.71436  1.0000
  H   H1279     1.0  0.84436  0.43179  0.72315  1.0000
  N   N79       1.0  0.92455  0.42095  0.55985  1.0000
  C   C810      1.0  0.90994  0.43643  0.56017  1.0000
  C   C811      1.0  0.90678  0.39373  0.55594  1.0000
  H   H1280     1.0  0.82171  0.43919  0.71293  1.0000
  H   H1281     1.0  0.82481  0.35007  0.72390  1.0000
  H   H1282     1.0  0.92265  0.45715  0.56300  1.0000
  H   H1283     1.0  0.72069  0.44905  0.59722  1.0000
  H   H1284     1.0  0.83060  0.41805  0.69071  1.0000
  H   H1285     1.0  0.77915  0.40451  0.73008  1.0000
  C   C812      1.0  0.94519  0.43165  0.54850  1.0000
  Fe  Fe166     1.0  0.66832  0.44838  0.64279  1.0000
  C   C813      1.0  0.96868  0.42377  0.50347  1.0000
  H   H1286     1.0  0.70290  0.44937  0.61355  1.0000
  S   S330      1.0  0.86818  0.36103  0.49359  1.0000
  H   H1287     1.0  0.89405  0.42875  0.56855  1.0000
  H   H1288     1.0  0.89803  0.39253  0.54470  1.0000
  C   C814      1.0  0.68273  0.29252  0.65012  1.0000
  N   N80       1.0  0.73569  0.44226  0.61802  1.0000
  H   H1289     1.0  0.89058  0.38502  0.56405  1.0000
  H   H1290     1.0  0.78244  0.33729  0.48661  1.0000
  H   H1291     1.0  0.68792  0.27682  0.65170  1.0000
  C   C815      1.0  0.71392  0.43987  0.60832  1.0000
  H   H1292     1.0  0.74363  0.47992  0.62701  1.0000
  H   H1293     1.0  0.69467  0.29890  0.61977  1.0000
  C   C816      1.0  0.78899  0.39248  0.72877  1.0000
  H   H1294     1.0  0.93700  0.43105  0.53708  1.0000
  C   C817      1.0  0.81457  0.36173  0.72524  1.0000
  H   H1295     1.0  0.92101  0.41374  0.58354  1.0000
  S   S331      1.0  0.69374  0.48614  0.63182  1.0000
  H   H1296     1.0  0.89244  0.48165  0.71291  1.0000
  H   H1297     1.0  0.71548  0.43894  0.63868  1.0000
  H   H1298     1.0  0.74280  0.26573  0.49944  1.0000
  S   S332      1.0  0.79676  0.29985  0.50433  1.0000
  H   H1299     1.0  0.66395  0.34857  0.64458  1.0000
  N   N81       1.0  0.73353  0.31249  0.61161  1.0000
  C   C818      1.0  0.74057  0.33983  0.61551  1.0000
  C   C819      1.0  0.70516  0.29803  0.60951  1.0000
  C   C820      1.0  0.74181  0.30056  0.62383  1.0000
  C   C821      1.0  0.74666  0.31157  0.59759  1.0000
  H   H1300     1.0  0.69829  0.30614  0.60017  1.0000
  H   H1301     1.0  0.76187  0.35135  0.61694  1.0000
  C   C822      1.0  0.66911  0.33294  0.64628  1.0000
  H   H1302     1.0  0.89006  0.44948  0.71404  1.0000
  H   H1303     1.0  0.75817  0.29405  0.72307  1.0000
  H   H1304     1.0  0.69900  0.27712  0.60699  1.0000
  H   H1305     1.0  0.73697  0.27996  0.62123  1.0000
  H   H1306     1.0  0.73227  0.30081  0.63458  1.0000
  H   H1307     1.0  0.76311  0.31112  0.62578  1.0000
  H   H1308     1.0  0.74167  0.29123  0.59422  1.0000
  H   H1309     1.0  0.76811  0.32206  0.59890  1.0000
  H   H1310     1.0  0.74131  0.32081  0.58814  1.0000
  H   H1311     1.0  0.75740  0.43848  0.59947  1.0000
  H   H1312     1.0  0.77063  0.47258  0.62739  1.0000
  H   H1313     1.0  0.84812  0.46452  0.72280  1.0000
  H   H1314     1.0  0.76045  0.48069  0.61001  1.0000
  H   H1315     1.0  0.85941  0.44757  0.50189  1.0000
  C   C823      1.0  0.93617  0.42184  0.57477  1.0000
  H   H1316     1.0  0.86230  0.49189  0.50336  1.0000
  H   H1317     1.0  0.73433  0.34935  0.60664  1.0000
  H   H1318     1.0  0.90064  0.43586  0.54910  1.0000
  C   C824      1.0  0.75316  0.26236  0.49028  1.0000
  C   C825      1.0  0.70123  0.31837  0.65236  1.0000
  S   S333      1.0  0.69207  0.45820  0.66388  1.0000
  C   C826      1.0  0.88623  0.46298  0.70669  1.0000
  H   H1319     1.0  0.95637  0.42018  0.54783  1.0000
  C   C827      1.0  0.85426  0.47028  0.69266  1.0000
  H   H1320     1.0  0.95907  0.45217  0.55102  1.0000
  H   H1321     1.0  0.94969  0.44211  0.57811  1.0000
  H   H1322     1.0  0.69983  0.41915  0.60641  1.0000
  H   H1323     1.0  0.89881  0.46691  0.69666  1.0000
  H   H1324     1.0  0.72055  0.32256  0.65587  1.0000
  C   C828      1.0  0.84256  0.44663  0.71591  1.0000
  H   H1325     1.0  0.67978  0.39397  0.69559  1.0000
  C   C829      1.0  0.85811  0.45723  0.49178  1.0000
  H   H1326     1.0  0.72361  0.15863  0.49194  1.0000
  C   C830      1.0  0.78032  0.27674  0.48971  1.0000
  C   C831      1.0  0.85971  0.48230  0.49259  1.0000
  H   H1327     1.0  0.98498  0.39701  0.53299  1.0000
  H   H1328     1.0  0.83364  0.46227  0.68899  1.0000
  H   H1329     1.0  0.85929  0.48903  0.69853  1.0000
  H   H1330     1.0  0.72344  0.27944  0.72346  1.0000
  H   H1331     1.0  0.68877  0.11338  0.48711  1.0000
  Fe  Fe167     1.0  0.66525  0.47394  0.67241  1.0000
  C   C832      1.0  0.74102  0.28415  0.73045  1.0000
  H   H1332     1.0  0.66363  0.49003  0.60624  1.0000
  H   H1333     1.0  0.66345  0.48734  0.57850  1.0000
  C   C833      1.0  0.98729  0.40972  0.52362  1.0000
  H   H1334     1.0  0.74056  0.26548  0.73410  1.0000
  S   S334      1.0  0.65933  0.41103  0.63040  1.0000
  H   H1335     1.0  0.66979  0.37224  0.67092  1.0000
  H   H1336     1.0  0.66493  0.39813  0.66275  1.0000
  C   C834      1.0  0.66536  0.40132  0.69317  1.0000
  Fe  Fe168     1.0  0.78877  0.37516  0.78093  1.0000
  S   S335      1.0  0.80485  0.34857  0.78938  1.0000
  S   S336      1.0  0.79595  0.39772  0.75920  1.0000
  Fe  Fe169     1.0  0.75488  0.36610  0.80851  1.0000
  S   S337      1.0  0.76680  0.33771  0.81874  1.0000
  S   S338      1.0  0.72772  0.37579  0.82194  1.0000
  Fe  Fe170     1.0  0.80690  0.36644  0.81235  1.0000
  S   S339      1.0  0.83944  0.38354  0.82969  1.0000
  Fe  Fe171     1.0  0.76329  0.32239  0.79527  1.0000
  S   S340      1.0  0.74515  0.27991  0.78934  1.0000
  S   S341      1.0  0.79495  0.39574  0.80320  1.0000
  S   S342      1.0  0.74721  0.34790  0.78564  1.0000
  H   H1337     1.0  0.70019  0.30752  0.85342  1.0000
  Fe  Fe172     1.0  0.84783  0.36136  0.91847  1.0000
  S   S343      1.0  0.87313  0.34716  0.93084  1.0000
  S   S344      1.0  0.82741  0.34180  0.89671  1.0000
  Fe  Fe173     1.0  0.85278  0.39957  0.94362  1.0000
  S   S345      1.0  0.87864  0.38840  0.95746  1.0000
  S   S346      1.0  0.83769  0.42775  0.95126  1.0000
  Fe  Fe174     1.0  0.89940  0.38977  0.93579  1.0000
  S   S347      1.0  0.94223  0.41506  0.92917  1.0000
  Fe  Fe175     1.0  0.84993  0.34696  0.95139  1.0000
  S   S348      1.0  0.83318  0.31645  0.97020  1.0000
  S   S349      1.0  0.87456  0.40344  0.92232  1.0000
  S   S350      1.0  0.82346  0.35859  0.93862  1.0000
  H   H1338     1.0  0.67896  0.26489  0.84008  1.0000
  H   H1339     1.0  0.78499  0.38605  0.83616  1.0000
  C   C835      1.0  0.74977  0.25221  0.98000  1.0000
  C   C836      1.0  0.80072  0.29198  0.97365  1.0000
  N   N82       1.0  0.79542  0.42127  0.84867  1.0000
  H   H1340     1.0  0.81881  0.35667  0.97354  1.0000
  H   H1341     1.0  0.83247  0.45369  0.84449  1.0000
  H   H1342     1.0  0.89317  0.33106  0.88670  1.0000
  C   C837      1.0  0.78027  0.28654  0.96354  1.0000
  H   H1343     1.0  0.68709  0.23345  0.95810  1.0000
  H   H1344     1.0  0.76781  0.31942  0.76207  1.0000
  C   C838      1.0  0.97592  0.42519  0.93311  1.0000
  C   C839      1.0  0.66699  0.21787  0.95960  1.0000
  N   N83       1.0  0.74225  0.30067  0.74346  1.0000
  C   C840      1.0  0.89416  0.35073  0.88785  1.0000
  C   C841      1.0  0.83560  0.37214  0.84840  1.0000
  C   C842      1.0  0.85307  0.38754  0.85960  1.0000
  C   C843      1.0  0.85043  0.37900  0.87459  1.0000
  C   C844      1.0  0.83063  0.35465  0.87840  1.0000
  C   C845      1.0  0.81321  0.33934  0.86719  1.0000
  C   C846      1.0  0.81552  0.34810  0.85231  1.0000
  H   H1345     1.0  0.86870  0.40617  0.85667  1.0000
  H   H1346     1.0  0.86386  0.39101  0.88313  1.0000
  H   H1347     1.0  0.79796  0.32042  0.87002  1.0000
  H   H1348     1.0  0.80214  0.33590  0.84381  1.0000
  C   C847      1.0  0.72539  0.40314  0.81506  1.0000
  C   C848      1.0  0.70708  0.41016  0.82106  1.0000
  C   C849      1.0  0.70606  0.43283  0.81623  1.0000
  C   C850      1.0  0.72384  0.44887  0.80570  1.0000
  C   C851      1.0  0.74210  0.44180  0.79968  1.0000
  C   C852      1.0  0.74257  0.41873  0.80416  1.0000
  H   H1349     1.0  0.69367  0.39809  0.82945  1.0000
  H   H1350     1.0  0.69197  0.43822  0.82094  1.0000
  H   H1351     1.0  0.75574  0.45405  0.79145  1.0000
  H   H1352     1.0  0.75643  0.41325  0.79926  1.0000
  C   C853      1.0  0.71121  0.26224  0.78824  1.0000
  C   C854      1.0  0.85218  0.44628  0.96744  1.0000
  H   H1353     1.0  0.70307  0.29442  0.79317  1.0000
  C   C855      1.0  0.67985  0.27567  0.82961  1.0000
  H   H1354     1.0  0.81930  0.36461  0.74940  1.0000
  H   H1355     1.0  0.88645  0.44057  0.96643  1.0000
  H   H1356     1.0  0.82418  0.42643  0.83207  1.0000
  H   H1357     1.0  0.79309  0.38444  0.85537  1.0000
  H   H1358     1.0  0.95287  0.38073  0.90532  1.0000
  H   H1359     1.0  0.71143  0.47787  0.76894  1.0000
  C   C856      1.0  0.78344  0.39261  0.84768  1.0000
  C   C857      1.0  0.67982  0.31379  0.81855  1.0000
  H   H1360     1.0  0.83145  0.39124  0.97330  1.0000
  C   C858      1.0  0.78119  0.43109  0.83880  1.0000
  H   H1361     1.0  0.67784  0.16778  0.94707  1.0000
  H   H1362     1.0  0.80317  0.45073  0.86550  1.0000
  C   C859      1.0  0.70050  0.31705  0.84255  1.0000
  S   S351      1.0  0.71753  0.22687  0.98297  1.0000
  H   H1363     1.0  0.66574  0.20118  0.77906  1.0000
  C   C860      1.0  0.82269  0.43210  0.84386  1.0000
  C   C861      1.0  0.87633  0.44946  0.97250  1.0000
  H   H1364     1.0  0.69871  0.31979  0.81291  1.0000
  H   H1365     1.0  0.70004  0.33583  0.84500  1.0000
  S   S352      1.0  0.72397  0.47808  0.80016  1.0000
  H   H1366     1.0  0.69810  0.27922  0.82374  1.0000
  H   H1367     1.0  0.71977  0.29882  0.76291  1.0000
  N   N84       1.0  0.66188  0.19483  0.95020  1.0000
  C   C862      1.0  0.67374  0.22148  0.78226  1.0000
  H   H1368     1.0  0.70096  0.28243  0.74663  1.0000
  C   C863      1.0  0.66784  0.25932  0.78867  1.0000
  H   H1369     1.0  0.71304  0.22678  0.78243  1.0000
  H   H1370     1.0  0.71933  0.32183  0.83709  1.0000
  H   H1371     1.0  0.80497  0.42208  0.87205  1.0000
  C   C864      1.0  0.76581  0.30632  0.75241  1.0000
  H   H1372     1.0  0.77401  0.42120  0.86830  1.0000
  C   C865      1.0  0.79866  0.38536  0.74149  1.0000
  C   C866      1.0  0.66429  0.20215  0.93421  1.0000
  H   H1373     1.0  0.78963  0.45266  0.83919  1.0000
  H   H1374     1.0  0.76537  0.28827  0.75716  1.0000
  H   H1375     1.0  0.94116  0.41239  0.89364  1.0000
  C   C867      1.0  0.69485  0.27400  0.79041  1.0000
  H   H1376     1.0  0.70116  0.20029  0.95214  1.0000
  C   C868      1.0  0.93273  0.36540  0.90327  1.0000
  H   H1377     1.0  0.73974  0.26261  0.95859  1.0000
  Fe  Fe176     1.0  0.68478  0.47695  0.80189  1.0000
  C   C869      1.0  0.83942  0.45826  0.97530  1.0000
  H   H1378     1.0  0.92159  0.36468  0.91354  1.0000
  H   H1379     1.0  0.91285  0.40175  0.88173  1.0000
  H   H1380     1.0  0.90965  0.39675  0.90161  1.0000
  H   H1381     1.0  0.98845  0.45507  0.91629  1.0000
  C   C870      1.0  0.81903  0.37359  0.97971  1.0000
  H   H1382     1.0  0.68406  0.21764  0.93172  1.0000
  C   C871      1.0  0.79435  0.42920  0.86433  1.0000
  H   H1383     1.0  0.95680  0.38679  0.87764  1.0000
  C   C872      1.0  0.75513  0.26675  0.96665  1.0000
  N   N85       1.0  0.92110  0.37107  0.88982  1.0000
  C   C873      1.0  0.92120  0.39662  0.89171  1.0000
  H   H1384     1.0  0.82048  0.45538  0.97157  1.0000
  C   C874      1.0  0.93637  0.37161  0.87647  1.0000
  H   H1385     1.0  0.78153  0.42531  0.82691  1.0000
  C   C875      1.0  0.70052  0.23597  0.78420  1.0000
  H   H1386     1.0  0.78389  0.29727  0.95318  1.0000
  H   H1387     1.0  0.92815  0.37590  0.86613  1.0000
  H   H1388     1.0  0.88483  0.35419  0.87771  1.0000
  H   H1389     1.0  0.93331  0.34641  0.90224  1.0000
  H   H1390     1.0  0.67744  0.33174  0.82041  1.0000
  H   H1391     1.0  0.71086  0.47616  0.74880  1.0000
  H   H1392     1.0  0.83391  0.42478  0.85092  1.0000
  H   H1393     1.0  0.93670  0.35261  0.87471  1.0000
  C   C876      1.0  0.98451  0.41328  0.94396  1.0000
  H   H1394     1.0  0.88194  0.35015  0.89758  1.0000
  H   H1395     1.0  0.76044  0.42315  0.84199  1.0000
  N   N86       1.0  0.67854  0.30028  0.83279  1.0000
  H   H1396     1.0  0.79898  0.37156  0.97939  1.0000
  H   H1397     1.0  0.97052  0.39747  0.95048  1.0000
  H   H1398     1.0  0.76250  0.38374  0.85049  1.0000
  C   C877      1.0  0.71919  0.28694  0.75289  1.0000
  H   H1399     1.0  0.66423  0.30130  0.81062  1.0000
  H   H1400     1.0  0.71798  0.26824  0.75705  1.0000
  C   C878      1.0  0.81136  0.36982  0.73969  1.0000
  H   H1401     1.0  0.69157  0.47061  0.96907  1.0000
  H   H1402     1.0  0.66485  0.21294  0.97174  1.0000
  H   H1403     1.0  0.78360  0.31587  0.74555  1.0000
  H   H1404     1.0  0.66345  0.26258  0.82226  1.0000
  H   H1405     1.0  0.74558  0.33894  0.74760  1.0000
  H   H1406     1.0  0.67977  0.17953  0.96592  1.0000
  C   C879      1.0  0.88790  0.46495  0.98517  1.0000
  C   C880      1.0  0.68093  0.18512  0.95393  1.0000
  C   C881      1.0  0.68913  0.48727  0.97378  1.0000
  C   C882      1.0  0.74299  0.32525  0.73813  1.0000
  C   C883      1.0  0.71021  0.48793  0.75856  1.0000
  H   H1407     1.0  0.69091  0.48767  0.75845  1.0000
  N   N87       1.0  0.66435  0.47859  0.98181  1.0000
  H   H1408     1.0  0.66057  0.18521  0.92680  1.0000
  H   H1409     1.0  0.98076  0.67423  0.04030  1.0000
  S   S353      1.0  0.84914  0.51656  0.12963  1.0000
  H   H1410     1.0  0.74292  0.54415  0.00138  1.0000
  H   H1411     1.0  0.90707  0.61359  0.09576  1.0000
  C   C884      1.0  0.87351  0.60475  0.07305  1.0000
  H   H1412     1.0  0.75910  0.51309  0.18271  1.0000
  H   H1413     1.0  0.73400  0.54188  0.21170  1.0000
  S   S354      1.0  0.80796  0.52045  0.20358  1.0000
  H   H1414     1.0  0.86464  0.59607  0.06203  1.0000
  S   S355      1.0  0.79905  0.52254  0.16055  1.0000
  H   H1415     1.0  0.93165  0.64952  0.06001  1.0000
  Fe  Fe177     1.0  0.85689  0.54763  0.04057  1.0000
  S   S356      1.0  0.86951  0.58650  0.02946  1.0000
  S   S357      1.0  0.83174  0.53906  0.06144  1.0000
  Fe  Fe178     1.0  0.88064  0.52902  0.01590  1.0000
  S   S358      1.0  0.89513  0.56659  0.00332  1.0000
  H   H1416     1.0  0.74354  0.53303  0.17880  1.0000
  Fe  Fe179     1.0  0.90800  0.58579  0.02591  1.0000
  S   S359      1.0  0.94464  0.62299  0.03243  1.0000
  Fe  Fe180     1.0  0.85546  0.56395  0.00786  1.0000
  H   H1417     1.0  0.67872  0.51337  0.99538  1.0000
  S   S360      1.0  0.89579  0.54816  0.03832  1.0000
  S   S361      1.0  0.84053  0.52503  0.01907  1.0000
  N   N88       1.0  0.90208  0.61821  0.07225  1.0000
  C   C885      1.0  0.75060  0.52488  0.18805  1.0000
  Fe  Fe181     1.0  0.80106  0.50011  0.18081  1.0000
  H   H1418     1.0  0.79898  0.52588  0.08713  1.0000
  C   C886      1.0  0.78292  0.55598  0.99572  1.0000
  C   C887      1.0  0.97925  0.63943  0.03041  1.0000
  H   H1419     1.0  0.90339  0.65397  0.06418  1.0000
  C   C888      1.0  0.80167  0.51786  0.23425  1.0000
  C   C889      1.0  0.83689  0.53186  0.08016  1.0000
  C   C890      1.0  0.81709  0.52627  0.09068  1.0000
  C   C891      1.0  0.82046  0.52132  0.10580  1.0000
  C   C892      1.0  0.84391  0.52228  0.11063  1.0000
  C   C893      1.0  0.86373  0.52776  0.10011  1.0000
  C   C894      1.0  0.86021  0.53233  0.08492  1.0000
  H   H1420     1.0  0.88190  0.52839  0.10373  1.0000
  H   H1421     1.0  0.76673  0.54119  0.19403  1.0000
  C   C895      1.0  0.75739  0.55219  0.99275  1.0000
  H   H1422     1.0  0.87548  0.53625  0.07692  1.0000
  H   H1423     1.0  0.86540  0.61820  0.07645  1.0000
  H   H1424     1.0  0.90602  0.58318  0.07571  1.0000
  H   H1425     1.0  0.86669  0.58851  0.08124  1.0000
  Fe  Fe182     1.0  0.81717  0.50176  0.14720  1.0000
  H   H1426     1.0  0.90235  0.63164  0.04975  1.0000
  H   H1427     1.0  0.90600  0.64337  0.09098  1.0000
  H   H1428     1.0  0.98505  0.60840  0.02024  1.0000
  C   C896      1.0  0.71884  0.52541  0.20527  1.0000
  C   C897      1.0  0.91176  0.59951  0.06767  1.0000
  H   H1429     1.0  0.90393  0.59104  0.05649  1.0000
  H   H1430     1.0  0.93324  0.60899  0.06669  1.0000
  H   H1431     1.0  0.93444  0.63931  0.08695  1.0000
  C   C898      1.0  0.91019  0.63933  0.06113  1.0000
  C   C899      1.0  0.91290  0.62915  0.08715  1.0000
  S   S362      1.0  0.83494  0.57271  0.98800  1.0000
  H   H1432     1.0  0.78780  0.55082  0.00652  1.0000
  S   S363      1.0  0.89129  0.49765  0.00820  1.0000
  H   H1433     1.0  0.80894  0.53873  0.23377  1.0000
  C   C900      1.0  0.79953  0.50375  0.22095  1.0000
  H   H1434     1.0  0.80503  0.51715  0.11374  1.0000
  H   H1435     1.0  0.71092  0.53380  0.19659  1.0000
  N   N89       1.0  0.72954  0.50898  0.19836  1.0000
  H   H1436     1.0  0.70291  0.51406  0.21314  1.0000
  H   H1437     1.0  0.75564  0.51407  0.21674  1.0000
  C   C901      1.0  0.73992  0.49829  0.21020  1.0000
  C   C902      1.0  0.66215  0.50145  0.98783  1.0000
  Fe  Fe183     1.0  0.86019  0.54750  0.45965  1.0000
  S   S364      1.0  0.87167  0.59029  0.46174  1.0000
  H   H1438     1.0  0.71942  0.57558  0.47823  1.0000
  Fe  Fe184     1.0  0.84614  0.54546  0.42617  1.0000
  S   S365      1.0  0.85594  0.58775  0.42623  1.0000
  S   S366      1.0  0.82993  0.51609  0.40694  1.0000
  Fe  Fe185     1.0  0.89183  0.59347  0.43953  1.0000
  S   S367      1.0  0.93201  0.61999  0.42975  1.0000
  Fe  Fe186     1.0  0.83493  0.58037  0.44850  1.0000
  S   S368      1.0  0.79980  0.58820  0.45284  1.0000
  S   S369      1.0  0.88232  0.55103  0.43855  1.0000
  S   S370      1.0  0.82312  0.53762  0.44736  1.0000
  H   H1439     1.0  0.74566  0.57374  0.45666  1.0000
  C   C903      1.0  0.67343  0.51759  0.30682  1.0000
  S   S371      1.0  0.82470  0.53008  0.33625  1.0000
  H   H1440     1.0  0.78618  0.54934  0.34771  1.0000
  H   H1441     1.0  0.75373  0.57350  0.32024  1.0000
  H   H1442     1.0  0.78318  0.59823  0.31254  1.0000
  S   S372      1.0  0.72029  0.51799  0.31067  1.0000
  S   S373      1.0  0.78275  0.51426  0.30003  1.0000
  H   H1443     1.0  0.95422  0.63505  0.46026  1.0000
  H   H1444     1.0  0.77382  0.56442  0.30894  1.0000
  H   H1445     1.0  0.79914  0.59577  0.35289  1.0000
  N   N90       1.0  0.91830  0.56672  0.39554  1.0000
  C   C904      1.0  0.96442  0.63585  0.43705  1.0000
  H   H1446     1.0  0.91851  0.56761  0.37145  1.0000
  H   H1447     1.0  0.90525  0.52531  0.39509  1.0000
  H   H1448     1.0  0.75539  0.54507  0.34026  1.0000
  H   H1449     1.0  0.88304  0.53574  0.38689  1.0000
  C   C905      1.0  0.82681  0.52094  0.38752  1.0000
  C   C906      1.0  0.83812  0.54562  0.38103  1.0000
  C   C907      1.0  0.83726  0.54822  0.36533  1.0000
  C   C908      1.0  0.82429  0.52626  0.35602  1.0000
  H   H1450     1.0  0.92212  0.60559  0.39733  1.0000
  C   C909      1.0  0.73993  0.58169  0.47970  1.0000
  H   H1451     1.0  0.84775  0.56260  0.38812  1.0000
  H   H1452     1.0  0.84671  0.56730  0.36038  1.0000
  H   H1453     1.0  0.98144  0.64079  0.41510  1.0000
  H   H1454     1.0  0.76840  0.59178  0.34585  1.0000
  C   C910      1.0  0.78173  0.58882  0.46895  1.0000
  H   H1455     1.0  0.95261  0.59146  0.40805  1.0000
  H   H1456     1.0  0.79665  0.51631  0.25836  1.0000
  C   C911      1.0  0.98531  0.64443  0.42697  1.0000
  H   H1457     1.0  0.77628  0.53668  0.32921  1.0000
  C   C912      1.0  0.89748  0.53975  0.39608  1.0000
  H   H1458     1.0  0.94575  0.55770  0.40743  1.0000
  H   H1459     1.0  0.68362  0.53821  0.30919  1.0000
  H   H1460     1.0  0.79787  0.61649  0.33821  1.0000
  N   N91       1.0  0.78861  0.57751  0.33119  1.0000
  C   C913      1.0  0.81558  0.58398  0.32715  1.0000
  C   C914      1.0  0.77602  0.55104  0.33744  1.0000
  C   C915      1.0  0.77428  0.57859  0.31765  1.0000
  C   C916      1.0  0.78851  0.59626  0.34253  1.0000
  H   H1461     1.0  0.82684  0.58292  0.33707  1.0000
  C   C917      1.0  0.79467  0.50520  0.24821  1.0000
  H   H1462     1.0  0.81629  0.57003  0.31867  1.0000
  Fe  Fe187     1.0  0.79345  0.49991  0.32126  1.0000
  H   H1463     1.0  0.94766  0.59127  0.38031  1.0000
  H   H1464     1.0  0.94099  0.55762  0.37971  1.0000
  C   C918      1.0  0.75492  0.58069  0.46745  1.0000
  C   C919      1.0  0.93200  0.57099  0.38110  1.0000
  H   H1465     1.0  0.92716  0.56843  0.41909  1.0000
  H   H1466     1.0  0.82581  0.60383  0.32240  1.0000
  C   C920      1.0  0.90691  0.58503  0.39693  1.0000
  S   S374      1.0  0.86021  0.52645  0.48097  1.0000
  H   H1467     1.0  0.89369  0.58301  0.38740  1.0000
  H   H1468     1.0  0.88664  0.53587  0.40680  1.0000
  C   C921      1.0  0.93679  0.57119  0.40802  1.0000
  H   H1469     1.0  0.89560  0.58167  0.40744  1.0000
  H   H1470     1.0  0.80282  0.50495  0.47314  1.0000
  C   C922      1.0  0.96994  0.64124  0.45234  1.0000
  H   H1471     1.0  0.82177  0.55228  0.47948  1.0000
  H   H1472     1.0  0.77950  0.53247  0.46755  1.0000
  C   C923      1.0  0.68694  0.50264  0.30662  1.0000
  C   C924      1.0  0.81207  0.50173  0.36258  1.0000
  C   C925      1.0  0.79337  0.59810  0.48296  1.0000
  C   C926      1.0  0.81364  0.49909  0.37821  1.0000
  H   H1473     1.0  0.75209  0.50766  0.47682  1.0000
  C   C927      1.0  0.77021  0.52588  0.47867  1.0000
  H   H1474     1.0  0.76453  0.54087  0.48274  1.0000
  H   H1475     1.0  0.81405  0.60512  0.48424  1.0000
  C   C928      1.0  0.79317  0.50068  0.48425  1.0000
  H   H1476     1.0  0.75091  0.60350  0.58232  1.0000
  H   H1477     1.0  0.76862  0.59832  0.56720  1.0000
  H   H1478     1.0  0.81245  0.53970  0.65180  1.0000
  H   H1479     1.0  0.74057  0.55134  0.56892  1.0000
  H   H1480     1.0  0.68685  0.56984  0.56325  1.0000
  C   C929      1.0  0.75148  0.60150  0.56991  1.0000
  C   C930      1.0  0.75166  0.59151  0.49362  1.0000
  H   H1481     1.0  0.70260  0.58547  0.58035  1.0000
  C   C931      1.0  0.66157  0.50033  0.71420  1.0000
  C   C932      1.0  0.82094  0.50712  0.65415  1.0000
  C   C933      1.0  0.77847  0.59954  0.49515  1.0000
  S   S375      1.0  0.67277  0.58445  0.53379  1.0000
  C   C934      1.0  0.72375  0.55531  0.57104  1.0000
  S   S376      1.0  0.75801  0.52009  0.65414  1.0000
  Fe  Fe188     1.0  0.68991  0.57733  0.51234  1.0000
  C   C935      1.0  0.77782  0.50432  0.65569  1.0000
  S   S377      1.0  0.73405  0.59510  0.50921  1.0000
  S   S378      1.0  0.67087  0.53417  0.51484  1.0000
  H   H1482     1.0  0.70758  0.60401  0.56340  1.0000
  S   S379      1.0  0.68957  0.51424  0.66344  1.0000
  H   H1483     1.0  0.66733  0.51204  0.70418  1.0000
  H   H1484     1.0  0.74539  0.57457  0.54423  1.0000
  H   H1485     1.0  0.71089  0.56179  0.54298  1.0000
  C   C936      1.0  0.72875  0.57806  0.54768  1.0000
  C   C937      1.0  0.70520  0.58514  0.56799  1.0000
  H   H1486     1.0  0.73097  0.59617  0.54206  1.0000
  H   H1487     1.0  0.75473  0.62039  0.56488  1.0000
  H   H1488     1.0  0.84151  0.51867  0.65250  1.0000
  N   N92       1.0  0.72731  0.58000  0.56416  1.0000
  H   H1489     1.0  0.72101  0.55543  0.58340  1.0000
  C   C938      1.0  0.65925  0.50187  0.58389  1.0000
  C   C939      1.0  0.77544  0.51584  0.50431  1.0000
  H   H1490     1.0  0.70633  0.53855  0.56639  1.0000
  C   C940      1.0  0.80449  0.51902  0.65376  1.0000
  H   H1491     1.0  0.78791  0.60751  0.50576  1.0000
  H   H1492     1.0  0.77114  0.53172  0.50854  1.0000
  N   N93       1.0  0.78779  0.52218  0.48943  1.0000
  C   C941      1.0  0.66236  0.51207  0.72827  1.0000
  H   H1493     1.0  0.73011  0.51565  0.73389  1.0000
  H   H1494     1.0  0.80914  0.56280  0.49496  1.0000
  H   H1495     1.0  0.78824  0.51298  0.51271  1.0000
  H   H1496     1.0  0.75683  0.49773  0.50384  1.0000
  Fe  Fe189     1.0  0.66675  0.50008  0.64173  1.0000
  Fe  Fe190     1.0  0.71462  0.49731  0.65385  1.0000
  C   C942      1.0  0.81232  0.54637  0.49059  1.0000
  H   H1497     1.0  0.82650  0.54398  0.49814  1.0000
  C   C943      1.0  0.65951  0.50344  0.59966  1.0000
  H   H1498     1.0  0.66888  0.53283  0.72894  1.0000
  H   H1499     1.0  0.80647  0.49743  0.49211  1.0000
  Fe  Fe191     1.0  0.67526  0.55711  0.92409  1.0000
  C   C944      1.0  0.79524  0.57354  0.97090  1.0000
  H   H1500     1.0  0.67064  0.65601  0.89490  1.0000
  H   H1501     1.0  0.69041  0.50033  0.96432  1.0000
  H   H1502     1.0  0.72959  0.52119  0.78171  1.0000
  C   C945      1.0  0.67718  0.61987  0.91094  1.0000
  H   H1503     1.0  0.69766  0.63677  0.88385  1.0000
  H   H1504     1.0  0.69018  0.53483  0.84736  1.0000
  H   H1505     1.0  0.85963  0.57109  0.95796  1.0000
  C   C946      1.0  0.88360  0.52781  0.96461  1.0000
  S   S380      1.0  0.69100  0.55989  0.90029  1.0000
  S   S381      1.0  0.69735  0.58968  0.94072  1.0000
  H   H1506     1.0  0.66460  0.61796  0.92076  1.0000
  H   H1507     1.0  0.82590  0.53006  0.96692  1.0000
  H   H1508     1.0  0.71093  0.55422  0.87180  1.0000
  Fe  Fe192     1.0  0.69229  0.55815  0.95722  1.0000
  S   S382      1.0  0.71790  0.55397  0.97598  1.0000
  H   H1509     1.0  0.84083  0.53335  0.94037  1.0000
  H   H1510     1.0  0.89153  0.57455  0.95392  1.0000
  C   C947      1.0  0.87432  0.56441  0.96116  1.0000
  H   H1511     1.0  0.75894  0.50296  0.74960  1.0000
  C   C948      1.0  0.67832  0.53374  0.85693  1.0000
  C   C949      1.0  0.76966  0.56962  0.96789  1.0000
  C   C950      1.0  0.69004  0.54475  0.87082  1.0000
  H   H1512     1.0  0.88885  0.53223  0.97668  1.0000
  H   H1513     1.0  0.71054  0.52820  0.74305  1.0000
  C   C951      1.0  0.84082  0.52346  0.96968  1.0000
  S   S383      1.0  0.68203  0.51450  0.80029  1.0000
  H   H1514     1.0  0.70959  0.53068  0.77038  1.0000
  H   H1515     1.0  0.68475  0.60530  0.91224  1.0000
  C   C952      1.0  0.85591  0.52766  0.94421  1.0000
  H   H1516     1.0  0.90167  0.53787  0.95804  1.0000
  H   H1517     1.0  0.76486  0.57511  0.95717  1.0000
  H   H1518     1.0  0.80985  0.58210  0.96239  1.0000
  H   H1519     1.0  0.66863  0.77054  0.94478  1.0000
  H   H1520     1.0  0.84780  0.50616  0.94291  1.0000
  N   N94       1.0  0.86369  0.53584  0.95992  1.0000
  H   H1521     1.0  0.69406  0.63943  0.91165  1.0000
  H   H1522     1.0  0.70598  0.49856  0.98131  1.0000
  H   H1523     1.0  0.87672  0.50654  0.96304  1.0000
  H   H1524     1.0  0.83153  0.50198  0.96855  1.0000
  N   N95       1.0  0.66295  0.61597  0.89659  1.0000
  H   H1525     1.0  0.88030  0.57124  0.97287  1.0000
  C   C953      1.0  0.75055  0.55908  0.97886  1.0000
  H   H1526     1.0  0.87269  0.53666  0.93652  1.0000
  C   C954      1.0  0.75640  0.51432  0.75902  1.0000
  C   C955      1.0  0.68022  0.61760  0.88403  1.0000
  H   H1527     1.0  0.84612  0.52839  0.98171  1.0000
  N   N96       1.0  0.73111  0.51481  0.75803  1.0000
  C   C956      1.0  0.72920  0.52699  0.74382  1.0000
  C   C957      1.0  0.67503  0.54379  0.88341  1.0000
  H   H1528     1.0  0.74396  0.55033  0.77078  1.0000
  C   C958      1.0  0.66052  0.76900  0.95624  1.0000
  S   S384      1.0  0.67292  0.52612  0.94016  1.0000
  H   H1529     1.0  0.68714  0.60242  0.88494  1.0000
  C   C959      1.0  0.72850  0.52994  0.77078  1.0000
  H   H1530     1.0  0.66870  0.78894  0.96115  1.0000
  H   H1531     1.0  0.74499  0.54713  0.74285  1.0000
  H   H1532     1.0  0.75818  0.50519  0.76970  1.0000
  H   H1533     1.0  0.66217  0.51444  0.97865  1.0000
  H   H1534     1.0  0.67013  0.61462  0.87301  1.0000
  H   H1535     1.0  0.77268  0.53429  0.75872  1.0000
  H   H1536     1.0  0.66766  0.75742  0.96313  1.0000
  C   C960      1.0  0.80214  0.56689  0.98485  1.0000
