data_image0
_chemical_formula_structural       FeS2FeS2FeCFeS3FeS2FeSFeHFeS4H2SHFeS2FeS2FeSFeS3CH2FeNC6H4CHCHC4HCH2C6H5C6H4C6H9C2HCH3NC4H13NCHCSH2SCH3C2H4SH3CFeSC2NC4H12CH2CHCSHCNHCH7C2H3C2FeS2FeS2FeHFeS3FeS2FeSHFeSFeS3HCH2FeS2FeS2FeSFeS3HC2HC6H5CHC4H5C6H4C6H4C6H6CSHC3H4NC2HCH3CH4C4H7CH2CHCHNHN2C4H12CH5C2H3CHNCH2NH2CHSHC4H2CSHCHCH4FeNH4SHFe2HSHSCH2CFeS2FeSHFeS2FeS2FeSFeS3FeS2H2NCH2C6H5C6H4C2S2C6H3CHC2SH2C6H4SH3C2SNC4H15SHNFeHFeH2CHCH2CH2C2H2SNHCH2C8H2CFeH2SHSH4FeCH2FeHSH4CHNHCH4CFeH2SHSHSH2FeSH2S2FeS2FeS2FeSFeS3CHC2FeC2HFeS2NH2CSH2C7H4C6H4FeH4C6H5C7H4S2H2C2H6NC4H12NC4H7CHC3NHCH2C3H3CH2CHSHFeH5FeC2SFeH2C2HC2SFeHC2HSCHS2H2FeSHFeS2Fe2S3FeS2FeSHFeSFeS2FeHFeS2FeSFeCS2HSCHFeS2HCHFeSH2C8H5C6H4C6H5CH4C2HNCHN2C4H10CHC3H3SH5SCH3SNCH2CH2C2SC2HSNCHCHCH4SHCH7CH3CNHCH7CH4NHCHCHCH2CH2SH3FeS2FeSHFeCFeS3FeS2FeSHFeHFeS3HSFeS2FeSFeS3C4FeSH7SFeC6H5C6H4C6H8NCHCNHCH2CH2NC2H3CH2CH3NC4H7CH5CNC4H13S3CH3C3HCH2CN2H5CHSCH2CH4SH3C2H4C2HFeSCH2CSHCSH3FeS2FeS2FeSFeS3FeHSCS2CSH3C7H5C6H4CH5C6H4FeCHC7H4NC4H15C2H5CHNH2CH2CH2SH3CNC4HFeCHCH2CHCHNH4C2HFeS2FeS2FeSFeS3H2C2FeHSFeS2CH2NH4CHCH2CHC7H4C6H5CHC2H2C7H3CH2C4SH4CH6CHCH3CNHFeH2NHFeHFeH3CH7C3HCHNS2CHCSCH2CH2CH2NH2SHNH3CH8SCSCH3C2FeSH4CHFeH2CHFeSHFeSHFeCSC2HCH7CHSHSH2CH3CH3FeHC5H3CHNCH2CHCH2NH4CNCH2CH2CH4CSCS2HSC2H2C2H6CFeHC2H3CH2CH3CHCSHCHFeSHCH2CFeS2HSCH2CFeS3H5FeCH4CSH3NHC2SHSC2H2FeC2HC2H2CHC6HC2HC2HCNC4H13SH2CFeH10FeCHSHSCHCSC3SCNCH3SNSH2FeSHFeS2FeSFeS2FeCFeS3CHCS2FeS2FeS2FeSFeS3NFeCH2C6H5C2H2C6H5C4H4C6H5C6H7FeC2HC2H2SHCHNH6FeHNH5NHCH6CHC2HCH3C3H2CH6CHCHCH2C2H4CHCNHCNC4H12NCH8C2H2CHCHNH5C2HSNH3C3SCHCH6CSH2CHCSCH4CH6C2HCSH2SHFeSHFeHSHSFeS2FeS2FeSFeS3FeSCFeS2FeSFeS2HS2FeSH2CNH5CHC6H4CHCH2C6H4C6H4C6H4C6H9NCNC4H12S3H4CH8CH2NCSCHCHC2H3NH3CH2NHSC2NC4H12CH6CHC2HCNC2HCH6C3FeHCHCH2CH3SCH2CH3CH2C2FeHSCFeCSHNFeCS2HSCFeS2FeS2FeSFeS3FeS2FeSFeSFeHS2H3S2HCHCHCH2SC6H4C10H6C4H3C6H4C6H7C3HNC4H12NC4H13C2HCH2CNH2CH2CHCNSFeCS2H2CHFeH2CH7SHC2H2SHCSHCH4CH3C2FeSCSFeS2FeS2FeS2FeSFeS3FeSFeS2FeSFeHSHSHFeS2H3CHCNCHC6H4C2NHC6H5C5H3C6H4C6H4CH5NC4H15CH3SNH2CSH8C2H2CHCHC2H2NFeCHC2H7C2HCHCH2CHCH5CHNH2CHCHCH7SC2HCH2CHCH6SHNCH3C2H5SFeSFeSC2HSHFeS2FeS2CHFeHC2HC2HCH4NH5CH2CH2CHCH4CNCH2CHC5H4CHSH2CFeSHSH2C2SCH2SH2FeH4C3HCSH6CFeSHNC2HFeH2S2FeS2CH2SH3CH8SH3S2HCHCH2CFeC6H4SHCH7CHFeHC4NC4H2C2FeH3C3HNH2CH3CH3C2H5CH3SH4C2H5NHC2FeS2FeS2FeSFeS6CNFeHFeS2H2CH3CH2CH3C6H4C6H4CH3SC6H6C4HCH3CHCHC2HNSCH3CH3CH3SHCH7NC2H2SHC2FeCHFeCHC2HNC4H12CNCHCH3SCH2C3H8CH2CH4NHFeCSCH5CHSFeS2FeS2FeSFeS3FeSCSFeS2CFeHCH6C6H6C6H6FeHC5NCH3C5SH4C2HNC2H6CH4CHSNC4H12SHCHCH2CH4CH2C2HNC2HCHCH2CH3CHCSCH4SH4C3H4SCHFe3S2FeSFeSFeHS2FeS2FeS2FeHFeS3FeSFeS2FeSFeCS2HCSHFeS2HNH2SC6H6C7H8SHC6H4C2HC2HNC2H2CH3CH2C2H2CS2H4C2H2NHSH4CH2C2H3CH2C2H2NCH2CH2NH4CH3C3H3CH2CH6C2HCH10NHFeSHFeS2FeSFeS2FeS2FeSHFeSFeS3FeHSH2CSFeS2FeS2FeSFeS3CNHC6H4C2H2C7H7C6H4NC4H13C3HSHNHCH2SH2CHCHNC4H12S2HCH3CHCHC2H2CHNH2FeSCSH2SNFeSH2SH3CHCSFeS2FeS2FeSFeS3FeS2H5C2H3CH4C6H4C6H4CHSH2C4SH3C6H4N2HNH2CH2CFeHC2H4CHC2SH5C2HNH4C2NHCSCHFeH9FeH5CHCH2SCHCH5CHCHCH2SC2H3CHCH3FeSC4H3CHCFeCH2CFeH2C4HNSCFe2HSHSC3FeS2H2S2FeS2FeS2FeSFeS3HFeS2HCS2C6H4NC6H4CH2C4H4C6H4CHCHCH3CH4CHCFeCHCHC2SCHNH3NH2CH2CH8NC4H13CH3SH3CHC2HCHFeSHCH2CH2NH4CH2FeH5CHSNFeSFeSHFeSHFeSFeS3FeS2FeSFeHFeS3H3SCH2SFeS2FeS2FeSFeS3NSCHC6H4C6H3C8H4C3H2C6H4C6H6CH2CH7CHCH3CHNCNHC3H4C2H3NH7C2H4N2FeHCHSCHCH3CH4CHCNHSC2H2SHNH2CH2CSH4C2H4C3H5C2HCSH5C2H11C3HNCH3CFeS2FeSHFeSFeS3FeS2FeSFeSFeHS2H3SCHCHFeS2FeS2FeSFeS3H2NC6H6CSHFeHC5H3CSCHCHC6H4C2H4C6H4C6H8NCH5CFeHCH2CH4NC5H4NCH4NH3SH2CHCH3C2HCNC2H4SH2CH3CH2CH2CH2C2H2CH3SC2H3C2H2CH2CHC3HSH
_chemical_formula_sum              "Fe272 S544 C1360 H2176 N136"
_cell_length_a       61.3932
_cell_length_b       60.9552
_cell_length_c       93.9072
_cell_angle_alpha    91.6303
_cell_angle_beta     91.4163
_cell_angle_gamma    117.995

_space_group_name_H-M_alt    "P 1"
_space_group_IT_number       1

loop_
  _space_group_symop_operation_xyz
  'x, y, z'

loop_
  _atom_site_type_symbol
  _atom_site_label
  _atom_site_symmetry_multiplicity
  _atom_site_fract_x
  _atom_site_fract_y
  _atom_site_fract_z
  _atom_site_occupancy
  Fe  Fe1       1.0  0.28089  0.31855  0.04003  1.0000
  S   S1        1.0  0.30049  0.32726  0.06187  1.0000
  S   S2        1.0  0.30516  0.32419  0.02074  1.0000
  Fe  Fe2       1.0  0.23296  0.31436  0.05267  1.0000
  S   S3        1.0  0.25018  0.32427  0.07482  1.0000
  S   S4        1.0  0.19158  0.29963  0.04739  1.0000
  Fe  Fe3       1.0  0.28462  0.35344  0.06528  1.0000
  C   C1        1.0  0.24207  0.00257  0.08902  1.0000
  Fe  Fe4       1.0  0.26467  0.29719  0.06976  1.0000
  S   S5        1.0  0.25938  0.27175  0.08836  1.0000
  S   S6        1.0  0.26596  0.34566  0.04330  1.0000
  S   S7        1.0  0.24652  0.28635  0.04775  1.0000
  Fe  Fe5       1.0  0.07311  0.32225  0.05815  1.0000
  S   S8        1.0  0.06044  0.34743  0.04765  1.0000
  S   S9        1.0  0.11407  0.33755  0.06489  1.0000
  Fe  Fe6       1.0  0.01880  0.28250  0.06276  1.0000
  S   S10       1.0  0.00291  0.30536  0.05293  1.0000
  Fe  Fe7       1.0  0.03088  0.31254  0.03608  1.0000
  H   H1        1.0  0.02008  0.32355  0.10325  1.0000
  Fe  Fe8       1.0  0.03375  0.33835  0.06534  1.0000
  S   S11       1.0  0.02805  0.36313  0.08217  1.0000
  S   S12       1.0  0.04558  0.28819  0.04554  1.0000
  S   S13       1.0  0.04749  0.31452  0.07621  1.0000
  S   S14       1.0  0.27314  0.00804  0.06675  1.0000
  H   H2        1.0  0.30355  0.01520  0.02124  1.0000
  H   H3        1.0  0.28548  0.19247  0.13349  1.0000
  S   S15       1.0  0.05474  0.03984  0.14314  1.0000
  H   H4        1.0  0.08158  0.00950  0.13295  1.0000
  Fe  Fe9       1.0  0.23069  0.08647  0.12080  1.0000
  S   S16       1.0  0.23138  0.09502  0.14441  1.0000
  S   S17       1.0  0.22685  0.04811  0.11486  1.0000
  Fe  Fe10      1.0  0.22935  0.13466  0.11329  1.0000
  S   S18       1.0  0.22918  0.14588  0.13627  1.0000
  S   S19       1.0  0.23153  0.15733  0.09377  1.0000
  Fe  Fe11      1.0  0.25861  0.13424  0.14007  1.0000
  S   S20       1.0  0.29288  0.16231  0.15314  1.0000
  Fe  Fe12      1.0  0.20170  0.10562  0.13903  1.0000
  S   S21       1.0  0.17174  0.09377  0.15548  1.0000
  S   S22       1.0  0.26042  0.12515  0.11684  1.0000
  S   S23       1.0  0.19944  0.09504  0.11567  1.0000
  C   C2        1.0  0.30525  0.15741  0.16935  1.0000
  H   H5        1.0  0.00575  0.23671  0.03564  1.0000
  H   H6        1.0  0.31169  0.37545  0.02734  1.0000
  Fe  Fe13      1.0  0.99983  0.99548  0.18574  1.0000
  N   N1        1.0  0.30609  0.20771  0.11486  1.0000
  C   C3        1.0  0.08718  0.05453  0.14692  1.0000
  C   C4        1.0  0.09738  0.05650  0.16068  1.0000
  C   C5        1.0  0.12327  0.06844  0.16310  1.0000
  C   C6        1.0  0.13925  0.07815  0.15178  1.0000
  C   C7        1.0  0.12902  0.07571  0.13798  1.0000
  C   C8        1.0  0.10315  0.06412  0.13561  1.0000
  H   H7        1.0  0.08535  0.04921  0.16949  1.0000
  H   H8        1.0  0.13096  0.07024  0.17381  1.0000
  H   H9        1.0  0.14103  0.08314  0.12918  1.0000
  H   H10       1.0  0.09549  0.06272  0.12492  1.0000
  C   C9        1.0  0.29823  0.13356  0.17412  1.0000
  H   H11       1.0  0.28502  0.11745  0.16779  1.0000
  C   C10       1.0  0.25970  0.01880  0.08000  1.0000
  H   H12       1.0  0.26215  0.03013  0.04312  1.0000
  C   C11       1.0  0.23221  0.01193  0.09955  1.0000
  C   C12       1.0  0.23965  0.03754  0.10114  1.0000
  C   C13       1.0  0.25712  0.05377  0.09202  1.0000
  C   C14       1.0  0.26712  0.04442  0.08154  1.0000
  H   H13       1.0  0.27700  0.05793  0.01601  1.0000
  C   C15       1.0  0.00161  0.30011  0.99846  1.0000
  H   H14       1.0  0.26305  0.07349  0.09313  1.0000
  H   H15       1.0  0.28078  0.05717  0.07466  1.0000
  C   C16       1.0  0.04088  0.39608  0.08489  1.0000
  C   C17       1.0  0.03709  0.40577  0.09785  1.0000
  C   C18       1.0  0.04686  0.43168  0.10056  1.0000
  C   C19       1.0  0.06055  0.44832  0.09030  1.0000
  C   C20       1.0  0.06439  0.43863  0.07736  1.0000
  C   C21       1.0  0.05459  0.41273  0.07463  1.0000
  H   H16       1.0  0.02644  0.39317  0.10586  1.0000
  H   H17       1.0  0.04367  0.43877  0.11055  1.0000
  H   H18       1.0  0.07479  0.45127  0.06929  1.0000
  H   H19       1.0  0.05729  0.40569  0.06449  1.0000
  H   H20       1.0  0.25068  0.14209  0.17001  1.0000
  C   C22       1.0  0.17048  0.31068  0.05242  1.0000
  C   C23       1.0  0.14580  0.29771  0.04711  1.0000
  C   C24       1.0  0.12832  0.30561  0.05079  1.0000
  C   C25       1.0  0.13528  0.32661  0.05989  1.0000
  C   C26       1.0  0.15992  0.33946  0.06531  1.0000
  C   C27       1.0  0.17742  0.33159  0.06161  1.0000
  H   H21       1.0  0.14020  0.28156  0.03998  1.0000
  H   H22       1.0  0.10951  0.29552  0.04651  1.0000
  H   H23       1.0  0.16558  0.35572  0.07236  1.0000
  H   H24       1.0  0.19629  0.34178  0.06580  1.0000
  C   C28       1.0  0.25024  0.23951  0.08934  1.0000
  C   C29       1.0  0.24876  0.22458  0.07739  1.0000
  C   C30       1.0  0.24243  0.19933  0.07890  1.0000
  C   C31       1.0  0.23736  0.18866  0.09232  1.0000
  C   C32       1.0  0.23803  0.20341  0.10418  1.0000
  C   C33       1.0  0.24468  0.22872  0.10270  1.0000
  H   H25       1.0  0.25296  0.23256  0.06703  1.0000
  H   H26       1.0  0.24183  0.18806  0.06963  1.0000
  H   H27       1.0  0.23351  0.19534  0.11449  1.0000
  H   H28       1.0  0.24553  0.24005  0.11200  1.0000
  H   H29       1.0  0.29783  0.05984  0.03038  1.0000
  H   H30       1.0  0.19946  0.10816  0.20255  1.0000
  H   H31       1.0  0.22042  0.08615  0.19130  1.0000
  H   H32       1.0  0.21873  0.99922  0.10654  1.0000
  H   H33       1.0  0.30265  0.05236  0.01246  1.0000
  C   C34       1.0  0.29875  0.30863  0.00352  1.0000
  C   C35       1.0  0.27579  0.28847  0.99953  1.0000
  H   H34       1.0  0.26118  0.28188  0.00702  1.0000
  C   C36       1.0  0.20451  0.12039  0.19331  1.0000
  H   H35       1.0  0.25074  0.15341  0.20230  1.0000
  H   H36       1.0  0.26598  0.13791  0.19398  1.0000
  H   H37       1.0  0.24455  0.12296  0.20759  1.0000
  N   N2        1.0  0.18171  0.24687  0.07771  1.0000
  C   C37       1.0  0.19511  0.27247  0.08405  1.0000
  C   C38       1.0  0.15667  0.24181  0.07274  1.0000
  C   C39       1.0  0.18005  0.22906  0.08853  1.0000
  C   C40       1.0  0.19513  0.24427  0.06548  1.0000
  H   H38       1.0  0.21414  0.27699  0.08788  1.0000
  H   H39       1.0  0.18551  0.27518  0.09330  1.0000
  H   H40       1.0  0.19677  0.28640  0.07615  1.0000
  H   H41       1.0  0.14605  0.22273  0.06776  1.0000
  H   H42       1.0  0.14598  0.24366  0.08166  1.0000
  H   H43       1.0  0.15755  0.25516  0.06459  1.0000
  H   H44       1.0  0.17022  0.20953  0.08410  1.0000
  H   H45       1.0  0.17007  0.23048  0.09795  1.0000
  H   H46       1.0  0.19879  0.23261  0.09242  1.0000
  H   H47       1.0  0.19618  0.25701  0.05696  1.0000
  H   H48       1.0  0.18591  0.22503  0.06063  1.0000
  H   H49       1.0  0.21437  0.24869  0.06876  1.0000
  H   H50       1.0  0.20595  0.13857  0.19697  1.0000
  N   N3        1.0  0.27271  0.02267  0.02260  1.0000
  C   C41       1.0  0.28833  0.01227  0.02840  1.0000
  H   H51       1.0  0.24195  0.10069  0.17763  1.0000
  C   C42       1.0  0.30979  0.99521  0.98867  1.0000
  S   S24       1.0  0.30548  0.39447  0.07341  1.0000
  H   H52       1.0  0.18885  0.11176  0.18521  1.0000
  H   H53       1.0  0.21845  0.13211  0.16672  1.0000
  S   S25       1.0  0.99844  0.24350  0.07128  1.0000
  C   C43       1.0  0.22482  0.09900  0.18238  1.0000
  H   H54       1.0  0.23658  0.15877  0.17837  1.0000
  H   H55       1.0  0.30341  0.11202  0.19047  1.0000
  H   H56       1.0  0.20957  0.08992  0.17407  1.0000
  C   C44       1.0  0.23364  0.13988  0.17508  1.0000
  C   C45       1.0  0.30207  0.21566  0.10073  1.0000
  H   H57       1.0  0.06655  0.99772  0.14916  1.0000
  H   H58       1.0  0.01643  0.29250  0.10254  1.0000
  H   H59       1.0  0.27725  0.21302  0.12427  1.0000
  H   H60       1.0  0.98887  0.31284  0.08338  1.0000
  S   S26       1.0  0.00592  0.03063  0.17506  1.0000
  H   H61       1.0  0.29608  0.23027  0.10171  1.0000
  H   H62       1.0  0.01402  0.48711  0.06582  1.0000
  H   H63       1.0  0.01296  0.25484  0.02000  1.0000
  C   C46       1.0  0.30881  0.13055  0.18694  1.0000
  Fe  Fe14      1.0  0.02238  0.01804  0.15731  1.0000
  S   S27       1.0  0.02532  0.30641  0.01177  1.0000
  C   C47       1.0  0.24810  0.13493  0.19829  1.0000
  C   C48       1.0  0.28315  0.19845  0.12274  1.0000
  N   N4        1.0  0.11755  0.40302  0.08456  1.0000
  C   C49       1.0  0.10682  0.40390  0.09835  1.0000
  C   C50       1.0  0.12653  0.42729  0.07792  1.0000
  C   C51       1.0  0.09845  0.38340  0.07504  1.0000
  C   C52       1.0  0.13825  0.39731  0.08684  1.0000
  H   H64       1.0  0.09962  0.38577  0.10356  1.0000
  H   H65       1.0  0.09109  0.40811  0.09692  1.0000
  H   H66       1.0  0.12073  0.41851  0.10585  1.0000
  H   H67       1.0  0.14104  0.44259  0.08480  1.0000
  H   H68       1.0  0.13454  0.42717  0.06742  1.0000
  H   H69       1.0  0.11126  0.43204  0.07604  1.0000
  H   H70       1.0  0.10591  0.38220  0.06451  1.0000
  H   H71       1.0  0.08235  0.38674  0.07310  1.0000
  H   H72       1.0  0.09142  0.36481  0.07967  1.0000
  H   H73       1.0  0.14645  0.39616  0.07655  1.0000
  H   H74       1.0  0.13195  0.37890  0.09165  1.0000
  H   H75       1.0  0.15320  0.41166  0.09396  1.0000
  C   C53       1.0  0.25367  0.01957  0.03285  1.0000
  H   H76       1.0  0.04072  0.99721  0.12116  1.0000
  H   H77       1.0  0.31488  0.18027  0.12342  1.0000
  C   C54       1.0  0.00008  0.23650  0.02425  1.0000
  H   H78       1.0  0.26779  0.18214  0.11695  1.0000
  C   C55       1.0  0.00897  0.30451  0.10721  1.0000
  S   S28       1.0  0.07318  0.48124  0.09296  1.0000
  H   H79       1.0  0.27453  0.01164  0.00087  1.0000
  C   C56       1.0  0.26065  0.00945  0.00889  1.0000
  N   N5        1.0  0.22778  0.12355  0.18728  1.0000
  H   H80       1.0  0.28739  0.19978  0.09422  1.0000
  C   C57       1.0  0.28823  0.04941  0.02026  1.0000
  H   H81       1.0  0.24088  0.02630  0.02864  1.0000
  H   H82       1.0  0.31129  0.39472  0.04210  1.0000
  H   H83       1.0  0.24853  0.01661  0.00423  1.0000
  H   H84       1.0  0.29683  0.02098  0.03907  1.0000
  H   H85       1.0  0.04266  0.48564  0.06706  1.0000
  H   H86       1.0  0.29861  0.17167  0.10634  1.0000
  H   H87       1.0  0.24244  0.99973  0.03544  1.0000
  C   C58       1.0  0.31294  0.18760  0.11297  1.0000
  C   C59       1.0  0.31748  0.31682  0.99354  1.0000
  H   H88       1.0  0.31911  0.22322  0.09455  1.0000
  H   H89       1.0  0.01222  0.30560  0.11897  1.0000
  H   H90       1.0  0.00293  0.22207  0.01831  1.0000
  C   C60       1.0  0.98880  0.00996  0.22472  1.0000
  C   C61       1.0  0.99906  0.99380  0.22408  1.0000
  Fe  Fe15      1.0  0.02825  0.32476  0.44245  1.0000
  S   S29       1.0  0.02396  0.28927  0.43191  1.0000
  S   S30       1.0  0.02597  0.32934  0.46674  1.0000
  Fe  Fe16      1.0  0.04854  0.35433  0.41495  1.0000
  S   S31       1.0  0.04641  0.32038  0.40328  1.0000
  S   S32       1.0  0.06613  0.38959  0.40190  1.0000
  Fe  Fe17      1.0  0.00900  0.29970  0.41255  1.0000
  H   H91       1.0  0.03615  0.04212  0.25938  1.0000
  Fe  Fe18      1.0  0.06188  0.31315  0.42356  1.0000
  S   S33       1.0  0.08965  0.29840  0.42737  1.0000
  S   S34       1.0  0.01056  0.33394  0.42368  1.0000
  S   S35       1.0  0.06666  0.34831  0.43460  1.0000
  Fe  Fe19      1.0  0.27174  0.32516  0.44035  1.0000
  S   S36       1.0  0.23261  0.30084  0.43173  1.0000
  S   S37       1.0  0.28293  0.32910  0.46426  1.0000
  Fe  Fe20      1.0  0.28945  0.35049  0.41175  1.0000
  S   S38       1.0  0.25148  0.32778  0.40154  1.0000
  H   H92       1.0  0.10737  0.34103  0.44988  1.0000
  Fe  Fe21      1.0  0.23585  0.33502  0.42143  1.0000
  S   S39       1.0  0.20575  0.34692  0.41774  1.0000
  Fe  Fe22      1.0  0.25034  0.29482  0.41220  1.0000
  S   S40       1.0  0.23006  0.25926  0.39796  1.0000
  S   S41       1.0  0.27407  0.36021  0.43106  1.0000
  S   S42       1.0  0.28933  0.31674  0.42143  1.0000
  H   H93       1.0  0.28040  0.06357  0.33740  1.0000
  C   C62       1.0  0.28516  0.08346  0.33924  1.0000
  H   H94       1.0  0.13028  0.35026  0.46420  1.0000
  H   H95       1.0  0.30264  0.13051  0.33190  1.0000
  Fe  Fe23      1.0  0.24344  0.14904  0.35702  1.0000
  S   S43       1.0  0.22788  0.14397  0.33443  1.0000
  S   S44       1.0  0.26610  0.18563  0.36999  1.0000
  Fe  Fe24      1.0  0.22666  0.09269  0.35926  1.0000
  S   S45       1.0  0.21018  0.08385  0.33684  1.0000
  S   S46       1.0  0.21997  0.06408  0.37622  1.0000
  Fe  Fe25      1.0  0.24466  0.11842  0.33096  1.0000
  S   S47       1.0  0.26314  0.11498  0.31065  1.0000
  Fe  Fe26      1.0  0.19474  0.10993  0.34192  1.0000
  S   S48       1.0  0.15470  0.10270  0.33878  1.0000
  S   S49       1.0  0.26213  0.12518  0.35316  1.0000
  S   S50       1.0  0.20943  0.11721  0.36471  1.0000
  H   H96       1.0  0.11385  0.03351  0.38702  1.0000
  C   C63       1.0  0.28989  0.13722  0.30222  1.0000
  C   C64       1.0  0.11299  0.33447  0.45957  1.0000
  H   H97       1.0  0.98748  0.23727  0.40175  1.0000
  C   C65       1.0  0.08311  0.03458  0.32140  1.0000
  C   C66       1.0  0.08265  0.05573  0.32722  1.0000
  C   C67       1.0  0.10477  0.07642  0.33236  1.0000
  C   C68       1.0  0.12760  0.07629  0.33173  1.0000
  C   C69       1.0  0.12808  0.05520  0.32582  1.0000
  C   C70       1.0  0.10595  0.03448  0.32073  1.0000
  H   H98       1.0  0.06526  0.05614  0.32781  1.0000
  H   H99       1.0  0.10418  0.09264  0.33689  1.0000
  H   H100      1.0  0.14550  0.05489  0.32512  1.0000
  H   H101      1.0  0.10655  0.01827  0.31617  1.0000
  H   H102      1.0  0.01322  0.31331  0.37603  1.0000
  C   C71       1.0  0.04519  0.05242  0.26964  1.0000
  H   H103      1.0  0.31239  0.29596  0.39701  1.0000
  C   C72       1.0  0.00176  0.31882  0.36911  1.0000
  C   C73       1.0  0.23024  0.03278  0.39238  1.0000
  C   C74       1.0  0.23228  0.04316  0.37896  1.0000
  C   C75       1.0  0.24266  0.03559  0.36801  1.0000
  H   H104      1.0  0.10450  0.36138  0.47983  1.0000
  H   H105      1.0  0.28439  0.11228  0.28414  1.0000
  H   H106      1.0  0.22229  0.03851  0.40094  1.0000
  H   H107      1.0  0.24396  0.04305  0.35758  1.0000
  H   H108      1.0  0.99398  0.34882  0.35158  1.0000
  C   C76       1.0  0.24017  0.23840  0.39084  1.0000
  C   C77       1.0  0.26342  0.24070  0.39441  1.0000
  C   C78       1.0  0.27092  0.22419  0.38806  1.0000
  C   C79       1.0  0.25520  0.20506  0.37821  1.0000
  C   C80       1.0  0.23179  0.20252  0.37484  1.0000
  C   C81       1.0  0.22438  0.21915  0.38110  1.0000
  H   H109      1.0  0.27556  0.25507  0.40209  1.0000
  H   H110      1.0  0.28897  0.22614  0.39083  1.0000
  H   H111      1.0  0.21953  0.18795  0.36728  1.0000
  H   H112      1.0  0.20631  0.21711  0.37829  1.0000
  C   C82       1.0  0.06072  0.41441  0.39609  1.0000
  C   C83       1.0  0.04073  0.41766  0.40045  1.0000
  C   C84       1.0  0.03711  0.43734  0.39527  1.0000
  C   C85       1.0  0.05334  0.45409  0.38566  1.0000
  C   C86       1.0  0.07329  0.45080  0.38129  1.0000
  C   C87       1.0  0.07692  0.43114  0.38648  1.0000
  H   H113      1.0  0.02819  0.40519  0.40791  1.0000
  H   H114      1.0  0.02163  0.43966  0.39877  1.0000
  H   H115      1.0  0.08599  0.46346  0.37395  1.0000
  H   H116      1.0  0.09248  0.42892  0.38302  1.0000
  C   C88       1.0  0.12212  0.31293  0.42515  1.0000
  C   C89       1.0  0.13581  0.30167  0.43065  1.0000
  C   C90       1.0  0.16153  0.31226  0.42902  1.0000
  C   C91       1.0  0.17385  0.33400  0.42152  1.0000
  C   C92       1.0  0.16018  0.34539  0.41618  1.0000
  C   C93       1.0  0.13453  0.33505  0.41805  1.0000
  H   H117      1.0  0.12647  0.28467  0.43628  1.0000
  H   H118      1.0  0.17179  0.30359  0.43354  1.0000
  H   H119      1.0  0.16948  0.36227  0.41043  1.0000
  H   H120      1.0  0.12435  0.34402  0.41379  1.0000
  H   H121      1.0  0.01677  0.34520  0.39428  1.0000
  H   H122      1.0  0.27743  0.30507  0.36708  1.0000
  C   C94       1.0  0.29002  0.27357  0.48431  1.0000
  S   S51       1.0  0.00607  0.03104  0.30565  1.0000
  H   H123      1.0  0.03764  0.35948  0.35768  1.0000
  C   C95       1.0  0.28617  0.30986  0.47727  1.0000
  C   C96       1.0  0.28637  0.28754  0.47361  1.0000
  C   C97       1.0  0.30901  0.28627  0.36861  1.0000
  H   H124      1.0  0.16880  0.04692  0.38822  1.0000
  H   H125      1.0  0.99595  0.37116  0.36513  1.0000
  H   H126      1.0  0.11750  0.31962  0.45585  1.0000
  H   H127      1.0  0.15459  0.09173  0.36930  1.0000
  N   N6        1.0  0.14483  0.05399  0.37410  1.0000
  C   C98       1.0  0.12246  0.03091  0.37726  1.0000
  C   C99       1.0  0.16306  0.06144  0.38624  1.0000
  H   H128      1.0  0.12981  0.07782  0.38124  1.0000
  C   C100      1.0  0.15563  0.04957  0.36113  1.0000
  H   H129      1.0  0.07389  0.28888  0.45929  1.0000
  H   H130      1.0  0.00743  0.36791  0.38989  1.0000
  H   H131      1.0  0.30953  0.07647  0.31745  1.0000
  C   C101      1.0  0.00071  0.48978  0.31103  1.0000
  H   H132      1.0  0.10832  0.02492  0.36830  1.0000
  H   H133      1.0  0.27139  0.08666  0.33290  1.0000
  H   H134      1.0  0.05358  0.07263  0.26775  1.0000
  H   H135      1.0  0.00399  0.48615  0.32186  1.0000
  C   C102      1.0  0.13814  0.07399  0.37173  1.0000
  C   C103      1.0  0.07498  0.05925  0.28882  1.0000
  C   C104      1.0  0.31789  0.14687  0.28236  1.0000
  C   C105      1.0  0.08310  0.05138  0.26468  1.0000
  H   H136      1.0  0.06485  0.01250  0.28197  1.0000
  H   H137      1.0  0.25815  0.01156  0.36184  1.0000
  H   H138      1.0  0.16226  0.03563  0.36276  1.0000
  H   H139      1.0  0.29041  0.25650  0.48129  1.0000
  H   H140      1.0  0.18023  0.07873  0.38416  1.0000
  H   H141      1.0  0.07513  0.04125  0.25423  1.0000
  H   H142      1.0  0.09274  0.07163  0.26275  1.0000
  C   C106      1.0  0.29627  0.13042  0.28912  1.0000
  H   H143      1.0  0.12469  0.06915  0.36250  1.0000
  H   H144      1.0  0.14208  0.04293  0.35189  1.0000
  C   C107      1.0  0.30553  0.16075  0.30852  1.0000
  H   H145      1.0  0.04311  0.00729  0.26735  1.0000
  C   C108      1.0  0.07062  0.30449  0.46315  1.0000
  H   H146      1.0  0.03919  0.38140  0.37141  1.0000
  N   N7        1.0  0.06374  0.04540  0.27514  1.0000
  H   H147      1.0  0.30009  0.28361  0.35778  1.0000
  N   N8        1.0  0.00781  0.34506  0.37212  1.0000
  N   N9        1.0  0.17098  0.27519  0.39345  1.0000
  C   C109      1.0  0.16076  0.24952  0.38732  1.0000
  C   C110      1.0  0.15166  0.28320  0.39322  1.0000
  C   C111      1.0  0.19178  0.29213  0.38501  1.0000
  C   C112      1.0  0.17987  0.27601  0.40832  1.0000
  H   H148      1.0  0.17510  0.24313  0.38738  1.0000
  H   H149      1.0  0.15390  0.24810  0.37608  1.0000
  H   H150      1.0  0.14518  0.23626  0.39355  1.0000
  H   H151      1.0  0.15920  0.30283  0.39735  1.0000
  H   H152      1.0  0.14400  0.28215  0.38222  1.0000
  H   H153      1.0  0.13609  0.27161  0.40000  1.0000
  H   H154      1.0  0.19993  0.31170  0.38943  1.0000
  H   H155      1.0  0.18584  0.29199  0.37372  1.0000
  H   H156      1.0  0.20680  0.28676  0.38507  1.0000
  H   H157      1.0  0.18962  0.29540  0.41286  1.0000
  H   H158      1.0  0.19317  0.26847  0.40903  1.0000
  H   H159      1.0  0.16447  0.26503  0.41533  1.0000
  C   C113      1.0  0.25060  0.01764  0.37045  1.0000
  H   H160      1.0  0.08916  0.05447  0.29323  1.0000
  H   H161      1.0  0.03020  0.04805  0.27723  1.0000
  H   H162      1.0  0.08405  0.07971  0.28763  1.0000
  H   H163      1.0  0.28877  0.32489  0.38292  1.0000
  H   H164      1.0  0.15565  0.06499  0.39623  1.0000
  C   C114      1.0  0.28724  0.30765  0.37760  1.0000
  C   C115      1.0  0.23856  0.01515  0.39489  1.0000
  H   H165      1.0  0.17174  0.06690  0.35802  1.0000
  H   H166      1.0  0.03673  0.01337  0.28514  1.0000
  H   H167      1.0  0.09728  0.04612  0.26847  1.0000
  C   C116      1.0  0.10124  0.31605  0.48239  1.0000
  H   H168      1.0  0.29964  0.09890  0.31310  1.0000
  N   N10       1.0  0.31063  0.10024  0.33516  1.0000
  C   C117      1.0  0.08793  0.34545  0.47464  1.0000
  H   H169      1.0  0.06411  0.31073  0.45373  1.0000
  H   H170      1.0  0.12684  0.01539  0.37898  1.0000
  N   N11       1.0  0.09321  0.32513  0.46993  1.0000
  H   H171      1.0  0.08170  0.35265  0.46549  1.0000
  H   H172      1.0  0.28401  0.28118  0.46254  1.0000
  C   C118      1.0  0.03392  0.36147  0.36904  1.0000
  H   H173      1.0  0.23702  0.00752  0.40530  1.0000
  S   S52       1.0  0.05595  0.00812  0.31448  1.0000
  H   H174      1.0  0.05513  0.29713  0.47057  1.0000
  C   C119      1.0  0.31306  0.09586  0.31985  1.0000
  C   C120      1.0  0.24856  0.00725  0.38388  1.0000
  C   C121      1.0  0.99166  0.35140  0.36312  1.0000
  C   C122      1.0  0.31609  0.12639  0.33784  1.0000
  H   H175      1.0  0.30094  0.16639  0.31854  1.0000
  H   H176      1.0  0.06089  0.05470  0.29704  1.0000
  C   C123      1.0  0.00339  0.31143  0.47915  1.0000
  S   S53       1.0  0.04784  0.47875  0.37965  1.0000
  H   H177      1.0  0.04664  0.35726  0.37573  1.0000
  C   C124      1.0  0.05161  0.01844  0.27744  1.0000
  H   H178      1.0  0.10529  0.30065  0.47917  1.0000
  C   C125      1.0  0.00392  0.34858  0.38729  1.0000
  H   H179      1.0  0.29908  0.05042  0.48158  1.0000
  H   H180      1.0  0.29728  0.26948  0.37454  1.0000
  H   H181      1.0  0.99861  0.15796  0.34428  1.0000
  H   H182      1.0  0.28258  0.08639  0.35071  1.0000
  Fe  Fe27      1.0  0.01607  0.00161  0.31220  1.0000
  N   N12       1.0  0.31181  0.30920  0.37608  1.0000
  H   H183      1.0  0.27529  0.29182  0.38414  1.0000
  H   H184      1.0  0.31508  0.13060  0.34935  1.0000
  H   H185      1.0  0.00486  0.31543  0.35782  1.0000
  H   H186      1.0  0.07284  0.33895  0.48233  1.0000
  S   S54       1.0  0.31956  0.37327  0.39608  1.0000
  H   H187      1.0  0.31877  0.32969  0.35696  1.0000
  Fe  Fe28      1.0  0.28051  0.02002  0.56588  1.0000
  Fe  Fe29      1.0  0.30520  0.26583  0.53605  1.0000
  H   H188      1.0  0.07004  0.00242  0.65546  1.0000
  S   S55       1.0  0.28127  0.03272  0.54337  1.0000
  H   H189      1.0  0.09717  0.00033  0.62914  1.0000
  S   S56       1.0  0.30819  0.00598  0.56231  1.0000
  C   C126      1.0  0.31644  0.13196  0.54990  1.0000
  H   H190      1.0  0.25558  0.17580  0.60992  1.0000
  H   H191      1.0  0.09276  0.03759  0.62262  1.0000
  C   C127      1.0  0.28016  0.22192  0.60026  1.0000
  Fe  Fe30      1.0  0.29040  0.26964  0.56659  1.0000
  S   S57       1.0  0.26649  0.27609  0.58282  1.0000
  S   S58       1.0  0.27862  0.23746  0.55066  1.0000
  Fe  Fe31      1.0  0.00757  0.01838  0.65746  1.0000
  S   S59       1.0  0.03296  0.04945  0.64333  1.0000
  H   H192      1.0  0.26523  0.17426  0.59216  1.0000
  Fe  Fe32      1.0  0.09259  0.23965  0.61743  1.0000
  S   S60       1.0  0.09062  0.23517  0.64114  1.0000
  S   S61       1.0  0.07852  0.26164  0.60403  1.0000
  Fe  Fe33      1.0  0.13209  0.22203  0.61500  1.0000
  S   S62       1.0  0.13304  0.21599  0.63858  1.0000
  S   S63       1.0  0.15246  0.21454  0.59689  1.0000
  Fe  Fe34      1.0  0.09141  0.19879  0.63641  1.0000
  S   S64       1.0  0.06429  0.16568  0.64867  1.0000
  Fe  Fe35      1.0  0.13197  0.25237  0.64192  1.0000
  S   S65       1.0  0.15923  0.28701  0.65510  1.0000
  S   S66       1.0  0.09036  0.20227  0.61261  1.0000
  S   S67       1.0  0.13406  0.25929  0.61851  1.0000
  Fe  Fe36      1.0  0.17156  0.36797  0.72761  1.0000
  S   S68       1.0  0.14575  0.33266  0.71431  1.0000
  S   S69       1.0  0.19211  0.40703  0.72042  1.0000
  H   H193      1.0  0.29469  0.30988  0.51356  1.0000
  H   H194      1.0  0.99323  0.46854  0.70152  1.0000
  N   N13       1.0  0.25473  0.20285  0.59604  1.0000
  C   C128      1.0  0.31843  0.09401  0.49745  1.0000
  H   H195      1.0  0.01665  0.27620  0.57753  1.0000
  H   H196      1.0  0.29570  0.03872  0.51329  1.0000
  C   C129      1.0  0.15564  0.29883  0.67190  1.0000
  C   C130      1.0  0.13540  0.28535  0.68022  1.0000
  C   C131      1.0  0.13279  0.29599  0.69319  1.0000
  C   C132      1.0  0.15053  0.32000  0.69812  1.0000
  C   C133      1.0  0.17095  0.33333  0.68989  1.0000
  C   C134      1.0  0.17343  0.32280  0.67684  1.0000
  H   H197      1.0  0.12175  0.26676  0.67668  1.0000
  H   H198      1.0  0.11700  0.28547  0.69952  1.0000
  H   H199      1.0  0.18474  0.35180  0.69354  1.0000
  H   H200      1.0  0.18924  0.33333  0.67054  1.0000
  H   H201      1.0  0.02948  0.00248  0.63544  1.0000
  C   C135      1.0  0.04164  0.08176  0.64511  1.0000
  C   C136      1.0  0.05825  0.09817  0.63555  1.0000
  C   C137      1.0  0.06554  0.12389  0.63651  1.0000
  C   C138      1.0  0.05621  0.13351  0.64704  1.0000
  C   C139      1.0  0.03962  0.11708  0.65659  1.0000
  C   C140      1.0  0.03241  0.09139  0.65567  1.0000
  H   H202      1.0  0.06550  0.09098  0.62733  1.0000
  H   H203      1.0  0.07827  0.13625  0.62908  1.0000
  H   H204      1.0  0.03229  0.12429  0.66478  1.0000
  H   H205      1.0  0.01966  0.07907  0.66311  1.0000
  C   C141      1.0  0.30398  0.15119  0.56892  1.0000
  C   C142      1.0  0.31640  0.05567  0.48806  1.0000
  S   S70       1.0  0.26185  0.43685  0.72741  1.0000
  S   S71       1.0  0.31678  0.00432  0.51929  1.0000
  C   C143      1.0  0.01978  0.26297  0.58353  1.0000
  C   C144      1.0  0.04362  0.26941  0.58925  1.0000
  C   C145      1.0  0.04806  0.25247  0.59712  1.0000
  C   C146      1.0  0.02836  0.22895  0.59919  1.0000
  C   C147      1.0  0.00454  0.22251  0.59345  1.0000
  C   C148      1.0  0.99154  0.30389  0.50411  1.0000
  H   H206      1.0  0.05869  0.28766  0.58758  1.0000
  H   H207      1.0  0.03144  0.21570  0.60521  1.0000
  H   H208      1.0  0.23037  0.19171  0.57731  1.0000
  C   C149      1.0  0.29318  0.28146  0.49881  1.0000
  H   H209      1.0  0.09532  0.02856  0.64805  1.0000
  C   C150      1.0  0.14138  0.47707  0.73108  1.0000
  C   C151      1.0  0.29263  0.30361  0.50249  1.0000
  S   S72       1.0  0.02427  0.99964  0.67095  1.0000
  H   H210      1.0  0.21802  0.47730  0.71854  1.0000
  H   H211      1.0  0.30137  0.11452  0.56946  1.0000
  C   C152      1.0  0.23435  0.25962  0.58593  1.0000
  C   C153      1.0  0.22554  0.26620  0.59817  1.0000
  C   C154      1.0  0.20053  0.25281  0.60161  1.0000
  C   C155      1.0  0.18400  0.23255  0.59286  1.0000
  C   C156      1.0  0.19270  0.22615  0.58052  1.0000
  C   C157      1.0  0.21767  0.23968  0.57700  1.0000
  H   H212      1.0  0.23823  0.28162  0.60515  1.0000
  H   H213      1.0  0.19415  0.25799  0.61115  1.0000
  H   H214      1.0  0.18005  0.21059  0.57362  1.0000
  H   H215      1.0  0.22398  0.23465  0.56740  1.0000
  S   S73       1.0  0.24364  0.00316  0.57704  1.0000
  H   H216      1.0  0.28917  0.33495  0.49475  1.0000
  H   H217      1.0  0.12217  0.34843  0.65237  1.0000
  H   H218      1.0  0.06534  0.01818  0.61177  1.0000
  C   C158      1.0  0.99694  0.99788  0.72626  1.0000
  C   C159      1.0  0.31044  0.17260  0.56108  1.0000
  S   S74       1.0  0.00933  0.01238  0.71019  1.0000
  N   N14       1.0  0.11892  0.24545  0.57098  1.0000
  C   C160      1.0  0.10066  0.22342  0.57810  1.0000
  C   C161      1.0  0.13338  0.23797  0.56148  1.0000
  C   C162      1.0  0.13578  0.26419  0.58181  1.0000
  C   C163      1.0  0.10583  0.25621  0.56262  1.0000
  H   H219      1.0  0.08980  0.22846  0.58563  1.0000
  H   H220      1.0  0.10984  0.21455  0.58430  1.0000
  H   H221      1.0  0.08732  0.20904  0.57029  1.0000
  H   H222      1.0  0.14744  0.25413  0.55595  1.0000
  H   H223      1.0  0.14346  0.22988  0.56764  1.0000
  H   H224      1.0  0.12128  0.22366  0.55323  1.0000
  H   H225      1.0  0.14991  0.28104  0.57684  1.0000
  H   H226      1.0  0.14590  0.25665  0.58836  1.0000
  H   H227      1.0  0.12548  0.27024  0.58919  1.0000
  H   H228      1.0  0.11900  0.27304  0.55719  1.0000
  H   H229      1.0  0.09466  0.26179  0.56963  1.0000
  H   H230      1.0  0.09293  0.24259  0.55433  1.0000
  H   H231      1.0  0.29399  0.21937  0.59394  1.0000
  H   H232      1.0  0.24557  0.47388  0.71678  1.0000
  H   H233      1.0  0.26192  0.20008  0.57395  1.0000
  S   S75       1.0  0.29923  0.26368  0.51166  1.0000
  H   H234      1.0  0.12492  0.31621  0.62750  1.0000
  N   N15       1.0  0.31781  0.07034  0.50120  1.0000
  Fe  Fe37      1.0  0.99697  0.99712  0.68732  1.0000
  H   H235      1.0  0.21753  0.19374  0.60130  1.0000
  Fe  Fe38      1.0  0.31140  0.23410  0.55950  1.0000
  H   H236      1.0  0.28458  0.22119  0.61173  1.0000
  H   H237      1.0  0.14036  0.32145  0.64483  1.0000
  C   C164      1.0  0.12295  0.48388  0.73443  1.0000
  H   H238      1.0  0.07964  0.30000  0.62552  1.0000
  C   C165      1.0  0.23263  0.47495  0.72453  1.0000
  H   H239      1.0  0.06208  0.29361  0.64135  1.0000
  H   H240      1.0  0.08932  0.33679  0.65106  1.0000
  C   C166      1.0  0.07239  0.02587  0.62279  1.0000
  H   H241      1.0  0.12073  0.29054  0.63794  1.0000
  H   H242      1.0  0.29594  0.06702  0.51933  1.0000
  C   C167      1.0  0.10503  0.33579  0.64597  1.0000
  C   C168      1.0  0.09940  0.30093  0.65982  1.0000
  H   H243      1.0  0.29647  0.15014  0.57933  1.0000
  H   H244      1.0  0.10665  0.34326  0.63515  1.0000
  S   S76       1.0  0.30949  0.05800  0.57412  1.0000
  N   N16       1.0  0.10144  0.31005  0.64525  1.0000
  H   H245      1.0  0.09750  0.28183  0.65973  1.0000
  C   C169      1.0  0.29598  0.05604  0.50964  1.0000
  H   H246      1.0  0.07543  0.27428  0.63588  1.0000
  H   H247      1.0  0.23924  0.22614  0.60323  1.0000
  C   C170      1.0  0.23701  0.20711  0.60456  1.0000
  C   C171      1.0  0.30683  0.13095  0.56337  1.0000
  C   C172      1.0  0.00889  0.31728  0.49388  1.0000
  C   C173      1.0  0.29310  0.45192  0.73440  1.0000
  C   C174      1.0  0.00006  0.23944  0.58560  1.0000
  C   C175      1.0  0.25199  0.17786  0.59850  1.0000
  C   C176      1.0  0.07864  0.29384  0.63665  1.0000
  C   C177      1.0  0.12280  0.30966  0.63856  1.0000
  H   H248      1.0  0.27845  0.05055  0.50336  1.0000
  H   H249      1.0  0.28281  0.24103  0.59847  1.0000
  C   C178      1.0  0.24985  0.20462  0.58075  1.0000
  Fe  Fe39      1.0  0.22310  0.41222  0.73600  1.0000
  H   H250      1.0  0.23969  0.20528  0.61614  1.0000
  H   H251      1.0  0.11612  0.31311  0.66667  1.0000
  S   S77       1.0  0.30644  0.19753  0.56874  1.0000
  H   H252      1.0  0.99621  0.30848  0.51536  1.0000
  S   S78       1.0  0.31465  0.29844  0.55140  1.0000
  H   H253      1.0  0.08317  0.30035  0.66515  1.0000
  H   H254      1.0  0.25354  0.22376  0.57836  1.0000
  H   H255      1.0  0.30699  0.47074  0.71497  1.0000
  H   H256      1.0  0.23305  0.16305  0.59530  1.0000
  Fe  Fe40      1.0  0.31232  0.06961  0.55154  1.0000
  C   C179      1.0  0.31188  0.46789  0.72565  1.0000
  H   H257      1.0  0.30154  0.09065  0.49106  1.0000
  H   H258      1.0  0.06445  0.03843  0.62571  1.0000
  Fe  Fe41      1.0  0.31036  0.02078  0.54013  1.0000
  H   H259      1.0  0.15387  0.48634  0.72273  1.0000
  S   S79       1.0  0.16788  0.45106  0.73387  1.0000
  H   H260      1.0  0.02673  0.33227  0.49741  1.0000
  H   H261      1.0  0.22332  0.45658  0.72936  1.0000
  H   H262      1.0  0.26715  0.99493  0.50902  1.0000
  H   H263      1.0  0.06682  0.02921  0.65091  1.0000
  C   C180      1.0  0.28938  0.31777  0.49178  1.0000
  H   H264      1.0  0.08669  0.30886  0.49040  1.0000
  N   N17       1.0  0.06562  0.00586  0.63297  1.0000
  H   H265      1.0  0.98947  0.20425  0.59513  1.0000
  C   C181      1.0  0.07489  0.01700  0.64748  1.0000
  H   H266      1.0  0.27822  0.49030  0.73623  1.0000
  H   H267      1.0  0.11830  0.33113  0.48776  1.0000
  H   H268      1.0  0.31665  0.03807  0.49059  1.0000
  H   H269      1.0  0.31944  0.10539  0.50722  1.0000
  C   C182      1.0  0.32006  0.17359  0.54762  1.0000
  Fe  Fe42      1.0  0.28946  0.02220  0.90974  1.0000
  H   H270      1.0  0.13362  0.32803  0.83489  1.0000
  H   H271      1.0  0.00920  0.43847  0.85201  1.0000
  S   S80       1.0  0.15292  0.37888  0.74490  1.0000
  H   H272      1.0  0.04895  0.16440  0.79864  1.0000
  S   S81       1.0  0.28079  0.03447  0.93089  1.0000
  H   H273      1.0  0.01132  0.28802  0.89083  1.0000
  S   S82       1.0  0.28209  0.24198  0.92155  1.0000
  H   H274      1.0  0.01119  0.48686  0.78695  1.0000
  H   H275      1.0  0.08501  0.32542  0.84585  1.0000
  Fe  Fe43      1.0  0.29120  0.27340  0.90691  1.0000
  S   S83       1.0  0.26552  0.28238  0.89300  1.0000
  H   H276      1.0  0.20095  0.27536  0.92857  1.0000
  H   H277      1.0  0.00177  0.07357  0.82527  1.0000
  S   S84       1.0  0.03937  0.05968  0.81660  1.0000
  S   S85       1.0  0.31304  0.30356  0.92370  1.0000
  Fe  Fe44      1.0  0.09023  0.25235  0.85569  1.0000
  S   S86       1.0  0.07753  0.23563  0.83356  1.0000
  S   S87       1.0  0.07384  0.27667  0.86424  1.0000
  Fe  Fe45      1.0  0.12804  0.23259  0.85762  1.0000
  S   S88       1.0  0.11777  0.21486  0.83533  1.0000
  S   S89       1.0  0.15170  0.22183  0.87218  1.0000
  Fe  Fe46      1.0  0.11767  0.25046  0.82917  1.0000
  S   S90       1.0  0.12633  0.26445  0.80656  1.0000
  Fe  Fe47      1.0  0.07864  0.20166  0.84131  1.0000
  S   S91       1.0  0.04553  0.16378  0.83594  1.0000
  S   S92       1.0  0.13087  0.26924  0.85103  1.0000
  S   S93       1.0  0.08835  0.21733  0.86390  1.0000
  C   C183      1.0  0.21415  0.28516  0.93777  1.0000
  H   H278      1.0  0.98972  0.40905  0.84279  1.0000
  C   C184      1.0  0.10664  0.47212  0.74523  1.0000
  C   C185      1.0  0.31970  0.18269  0.91487  1.0000
  Fe  Fe48      1.0  0.31022  0.07304  0.92595  1.0000
  C   C186      1.0  0.09201  0.33336  0.83534  1.0000
  C   C187      1.0  0.29974  0.44878  0.74826  1.0000
  H   H279      1.0  0.11513  0.19076  0.78928  1.0000
  Fe  Fe49      1.0  0.18562  0.38420  0.75881  1.0000
  S   S94       1.0  0.18297  0.37347  0.78218  1.0000
  S   S95       1.0  0.20758  0.42495  0.75399  1.0000
  N   N18       1.0  0.23966  0.29133  0.93424  1.0000
  H   H280      1.0  0.06638  0.28339  0.83416  1.0000
  H   H281      1.0  0.00089  0.01303  0.76199  1.0000
  C   C188      1.0  0.10895  0.45331  0.75245  1.0000
  S   S96       1.0  0.28413  0.26869  0.95882  1.0000
  H   H282      1.0  0.08245  0.22813  0.78494  1.0000
  H   H283      1.0  0.12846  0.43165  0.75459  1.0000
  C   C189      1.0  0.26420  0.49046  0.74347  1.0000
  C   C190      1.0  0.14296  0.29489  0.80003  1.0000
  C   C191      1.0  0.15819  0.31565  0.80890  1.0000
  C   C192      1.0  0.17026  0.33949  0.80326  1.0000
  C   C193      1.0  0.16765  0.34290  0.78866  1.0000
  C   C194      1.0  0.15267  0.32209  0.77977  1.0000
  C   C195      1.0  0.14042  0.29828  0.78543  1.0000
  H   H284      1.0  0.16102  0.31335  0.82005  1.0000
  H   H285      1.0  0.18203  0.35541  0.81020  1.0000
  H   H286      1.0  0.15051  0.32437  0.76852  1.0000
  H   H287      1.0  0.12888  0.28242  0.77840  1.0000
  C   C196      1.0  0.04054  0.08847  0.82173  1.0000
  C   C197      1.0  0.06342  0.11028  0.82215  1.0000
  C   C198      1.0  0.06531  0.13348  0.82646  1.0000
  C   C199      1.0  0.04428  0.13509  0.83043  1.0000
  C   C200      1.0  0.02139  0.11337  0.82987  1.0000
  C   C201      1.0  0.01950  0.09016  0.82557  1.0000
  H   H288      1.0  0.07975  0.10914  0.81908  1.0000
  H   H289      1.0  0.08292  0.15010  0.82657  1.0000
  H   H290      1.0  0.00498  0.11443  0.83283  1.0000
  H   H291      1.0  0.99394  0.41931  0.87520  1.0000
  Fe  Fe50      1.0  0.30503  0.27230  0.93828  1.0000
  H   H292      1.0  0.11788  0.22024  0.78426  1.0000
  H   H293      1.0  0.11462  0.21233  0.80252  1.0000
  H   H294      1.0  0.05889  0.29529  0.81855  1.0000
  H   H295      1.0  0.21261  0.30220  0.94066  1.0000
  C   C202      1.0  0.00705  0.25121  0.89310  1.0000
  C   C203      1.0  0.01635  0.23482  0.88921  1.0000
  C   C204      1.0  0.03657  0.24223  0.88031  1.0000
  C   C205      1.0  0.04791  0.26627  0.87524  1.0000
  C   C206      1.0  0.03856  0.28266  0.87907  1.0000
  C   C207      1.0  0.01819  0.27517  0.88791  1.0000
  H   H296      1.0  0.04353  0.22942  0.87749  1.0000
  H   H297      1.0  0.04720  0.30132  0.87526  1.0000
  H   H298      1.0  0.31683  0.12700  0.90422  1.0000
  H   H299      1.0  0.28562  0.43669  0.75517  1.0000
  H   H300      1.0  0.05296  0.20452  0.79043  1.0000
  C   C208      1.0  0.07358  0.29230  0.82390  1.0000
  C   C209      1.0  0.23390  0.26493  0.88724  1.0000
  C   C210      1.0  0.22331  0.27634  0.87868  1.0000
  C   C211      1.0  0.19826  0.26348  0.87396  1.0000
  C   C212      1.0  0.18342  0.23902  0.87780  1.0000
  C   C213      1.0  0.19396  0.22765  0.88645  1.0000
  C   C214      1.0  0.21906  0.24048  0.89113  1.0000
  H   H301      1.0  0.23461  0.29524  0.87560  1.0000
  H   H302      1.0  0.19047  0.27250  0.86733  1.0000
  H   H303      1.0  0.18270  0.20874  0.88949  1.0000
  H   H304      1.0  0.22694  0.23141  0.89764  1.0000
  S   S97       1.0  0.08410  0.48104  0.75079  1.0000
  S   S98       1.0  0.30911  0.10885  0.93353  1.0000
  H   H305      1.0  0.07476  0.15818  0.79788  1.0000
  H   H306      1.0  0.07496  0.18056  0.81081  1.0000
  C   C215      1.0  0.27176  0.27661  0.98584  1.0000
  C   C216      1.0  0.24708  0.30751  0.92193  1.0000
  H   H307      1.0  0.22800  0.25760  0.92138  1.0000
  H   H308      1.0  0.24632  0.32512  0.92420  1.0000
  H   H309      1.0  0.07823  0.22021  0.80321  1.0000
  H   H310      1.0  0.23494  0.29803  0.91228  1.0000
  H   H311      1.0  0.20799  0.27280  0.94696  1.0000
  H   H312      1.0  0.07651  0.27872  0.81710  1.0000
  N   N19       1.0  0.10664  0.14648  0.86476  1.0000
  C   C217      1.0  0.09174  0.15971  0.86527  1.0000
  C   C218      1.0  0.12453  0.15636  0.85337  1.0000
  C   C219      1.0  0.09017  0.11961  0.86181  1.0000
  C   C220      1.0  0.12018  0.15038  0.87863  1.0000
  H   H313      1.0  0.08176  0.15786  0.85489  1.0000
  H   H314      1.0  0.10359  0.17989  0.86783  1.0000
  H   H315      1.0  0.07766  0.15248  0.87352  1.0000
  H   H316      1.0  0.13640  0.14710  0.85283  1.0000
  H   H317      1.0  0.11503  0.15358  0.84274  1.0000
  H   H318      1.0  0.13699  0.17670  0.85518  1.0000
  H   H319      1.0  0.10078  0.10904  0.86109  1.0000
  H   H320      1.0  0.07934  0.11611  0.85154  1.0000
  H   H321      1.0  0.07660  0.11153  0.87028  1.0000
  H   H322      1.0  0.13164  0.14065  0.87868  1.0000
  H   H323      1.0  0.10732  0.14349  0.88752  1.0000
  H   H324      1.0  0.13287  0.17053  0.88108  1.0000
  N   N20       1.0  0.08122  0.19313  0.78943  1.0000
  C   C221      1.0  0.07374  0.18260  0.77468  1.0000
  C   C222      1.0  0.06948  0.17318  0.79959  1.0000
  C   C223      1.0  0.07329  0.21230  0.79208  1.0000
  C   C224      1.0  0.10837  0.20452  0.79143  1.0000
  H   H325      1.0  0.08229  0.19725  0.76676  1.0000
  H   H326      1.0  0.05334  0.17380  0.77281  1.0000
  H   H327      1.0  0.07947  0.16808  0.77231  1.0000
  H   H328      1.0  0.16381  0.99935  0.87373  1.0000
  H   H329      1.0  0.02320  0.29677  0.98157  1.0000
  H   H330      1.0  0.07797  0.33758  0.83018  1.0000
  H   H331      1.0  0.12370  0.34434  0.81377  1.0000
  C   C225      1.0  0.98739  0.29010  0.97327  1.0000
  H   H332      1.0  0.27598  0.30883  0.94444  1.0000
  C   C226      1.0  0.11544  0.31097  0.83362  1.0000
  C   C227      1.0  0.00568  0.29571  0.98421  1.0000
  C   C228      1.0  0.99452  0.48606  0.79104  1.0000
  N   N21       1.0  0.09672  0.31590  0.82631  1.0000
  H   H333      1.0  0.09653  0.44407  0.76084  1.0000
  C   C229      1.0  0.31460  0.17784  0.92922  1.0000
  H   H334      1.0  0.25399  0.26089  0.98298  1.0000
  H   H335      1.0  0.10979  0.30405  0.84445  1.0000
  C   C230      1.0  0.25663  0.30437  0.94667  1.0000
  C   C231      1.0  0.12708  0.44619  0.74893  1.0000
  C   C232      1.0  0.29053  0.28467  0.97591  1.0000
  H   H336      1.0  0.09242  0.33126  0.80670  1.0000
  H   H337      1.0  0.10916  0.31387  0.80532  1.0000
  H   H338      1.0  0.25156  0.29265  0.95616  1.0000
  C   C233      1.0  0.10585  0.32685  0.81244  1.0000
  H   H339      1.0  0.99096  0.28699  0.96236  1.0000
  H   H340      1.0  0.30742  0.15168  0.94578  1.0000
  C   C234      1.0  0.24080  0.26818  0.93058  1.0000
  H   H341      1.0  0.25654  0.32209  0.94970  1.0000
  S   S99       1.0  0.02679  0.49139  0.73816  1.0000
  H   H342      1.0  0.26628  0.31248  0.91898  1.0000
  Fe  Fe51      1.0  0.00503  0.02172  0.81344  1.0000
  H   H343      1.0  0.23625  0.25582  0.93976  1.0000
  H   H344      1.0  0.10918  0.35126  0.83749  1.0000
  H   H345      1.0  0.25963  0.27235  0.92751  1.0000
  H   H346      1.0  0.00795  0.21627  0.89318  1.0000
  H   H347      1.0  0.11823  0.29660  0.82758  1.0000
  Fe  Fe52      1.0  0.31154  0.02782  0.93996  1.0000
  C   C235      1.0  0.31100  0.15501  0.93461  1.0000
  C   C236      1.0  0.29867  0.99510  0.97533  1.0000
  S   S100      1.0  0.31684  0.01683  0.96262  1.0000
  Fe  Fe53      1.0  0.31790  0.24307  0.91545  1.0000
  H   H348      1.0  0.25553  0.47204  0.74843  1.0000
  H   H349      1.0  0.21757  0.47715  0.75077  1.0000
  C   C237      1.0  0.00483  0.01217  0.73916  1.0000
  C   C238      1.0  0.14354  0.45809  0.73824  1.0000
  H   H350      1.0  0.99090  0.45716  0.86859  1.0000
  C   C239      1.0  0.31205  0.13651  0.92575  1.0000
  C   C240      1.0  0.31342  0.30500  0.97983  1.0000
  S   S101      1.0  0.26163  0.00113  0.89113  1.0000
  Fe  Fe54      1.0  0.17597  0.41854  0.73873  1.0000
  H   H351      1.0  0.31376  0.19180  0.93623  1.0000
  C   C241      1.0  0.31661  0.14116  0.91131  1.0000
  C   C242      1.0  0.99033  0.42645  0.84725  1.0000
  H   H352      1.0  0.01875  0.03148  0.73911  1.0000
  S   S102      1.0  0.20349  0.37182  0.74185  1.0000
  C   C243      1.0  0.99473  0.00177  0.75214  1.0000
  H   H353      1.0  0.99489  0.46595  0.80953  1.0000
  S   S103      1.0  0.31908  0.01367  0.91897  1.0000
  S   S104      1.0  0.31690  0.06138  0.90429  1.0000
  H   H354      1.0  0.14209  0.99538  0.88720  1.0000
  H   H355      1.0  0.98752  0.43636  0.83812  1.0000
  Fe  Fe55      1.0  0.02502  0.70039  0.03870  1.0000
  S   S105      1.0  0.03835  0.74128  0.04253  1.0000
  H   H356      1.0  0.31299  0.88148  0.09374  1.0000
  Fe  Fe56      1.0  0.04118  0.69450  0.06944  1.0000
  S   S106      1.0  0.05488  0.73541  0.07531  1.0000
  S   S107      1.0  0.03922  0.66769  0.08688  1.0000
  Fe  Fe57      1.0  0.02014  0.73084  0.06374  1.0000
  Fe  Fe58      1.0  0.07191  0.74267  0.05376  1.0000
  S   S108      1.0  0.11199  0.76984  0.04852  1.0000
  S   S109      1.0  0.00540  0.68987  0.05934  1.0000
  S   S110      1.0  0.05979  0.70190  0.04846  1.0000
  Fe  Fe59      1.0  0.25937  0.93838  0.03329  1.0000
  S   S111      1.0  0.23210  0.94653  0.04472  1.0000
  S   S112      1.0  0.25359  0.93941  0.00914  1.0000
  Fe  Fe60      1.0  0.27786  0.92583  0.06150  1.0000
  S   S113      1.0  0.25188  0.93436  0.07433  1.0000
  H   H357      1.0  0.21991  0.88824  0.08954  1.0000
  Fe  Fe61      1.0  0.22327  0.91236  0.05693  1.0000
  S   S114      1.0  0.18357  0.88580  0.06255  1.0000
  Fe  Fe62      1.0  0.26287  0.96763  0.06099  1.0000
  S   S115      1.0  0.24838  0.90249  0.04453  1.0000
  S   S116      1.0  0.29100  0.96096  0.04912  1.0000
  Fe  Fe63      1.0  0.07186  0.50607  0.11154  1.0000
  H   H358      1.0  0.08712  0.98706  0.14216  1.0000
  Fe  Fe64      1.0  0.07097  0.55674  0.11256  1.0000
  S   S117      1.0  0.07316  0.55948  0.13656  1.0000
  S   S118      1.0  0.07563  0.58568  0.09606  1.0000
  Fe  Fe65      1.0  0.10229  0.54685  0.13492  1.0000
  S   S119      1.0  0.13718  0.56785  0.14943  1.0000
  Fe  Fe66      1.0  0.04587  0.51851  0.13578  1.0000
  C   C244      1.0  0.06056  0.96631  0.11757  1.0000
  S   S120      1.0  0.10141  0.54605  0.11112  1.0000
  S   S121      1.0  0.04145  0.51677  0.11167  1.0000
  H   H359      1.0  0.08269  0.55396  0.07175  1.0000
  S   S122      1.0  0.30025  0.68200  0.16750  1.0000
  C   C245      1.0  0.00252  0.98377  0.23673  1.0000
  H   H360      1.0  0.15002  0.86573  0.99389  1.0000
  Fe  Fe67      1.0  0.28509  0.64499  0.15543  1.0000
  S   S123      1.0  0.25285  0.63262  0.13889  1.0000
  S   S124      1.0  0.28958  0.62504  0.17414  1.0000
  H   H361      1.0  0.23012  0.82356  0.08828  1.0000
  C   C246      1.0  0.01187  0.50136  0.19089  1.0000
  H   H362      1.0  0.00662  0.72223  0.00710  1.0000
  Fe  Fe68      1.0  0.30724  0.66249  0.18582  1.0000
  S   S125      1.0  0.01928  0.98530  0.16890  1.0000
  H   H363      1.0  0.28591  0.68845  0.13790  1.0000
  H   H364      1.0  0.24717  0.86757  0.06993  1.0000
  C   C247      1.0  0.29637  0.97837  0.99911  1.0000
  C   C248      1.0  0.22703  0.85701  0.07166  1.0000
  C   C249      1.0  0.16928  0.58511  0.14608  1.0000
  C   C250      1.0  0.18645  0.59466  0.15775  1.0000
  C   C251      1.0  0.21202  0.60885  0.15575  1.0000
  C   C252      1.0  0.22080  0.61399  0.14199  1.0000
  C   C253      1.0  0.20361  0.60461  0.13028  1.0000
  C   C254      1.0  0.17805  0.59012  0.13229  1.0000
  H   H365      1.0  0.17995  0.59098  0.16847  1.0000
  H   H366      1.0  0.22489  0.61596  0.16487  1.0000
  H   H367      1.0  0.21015  0.60833  0.11959  1.0000
  H   H368      1.0  0.16518  0.58272  0.12318  1.0000
  H   H369      1.0  0.18455  0.84754  0.08413  1.0000
  C   C255      1.0  0.06478  0.60797  0.09365  1.0000
  C   C256      1.0  0.05040  0.61222  0.10358  1.0000
  C   C257      1.0  0.04280  0.63050  0.10129  1.0000
  C   C258      1.0  0.04925  0.64469  0.08902  1.0000
  C   C259      1.0  0.06358  0.64035  0.07907  1.0000
  C   C260      1.0  0.07132  0.62220  0.08141  1.0000
  H   H370      1.0  0.04508  0.60147  0.11303  1.0000
  H   H371      1.0  0.03170  0.63362  0.10906  1.0000
  H   H372      1.0  0.06877  0.65108  0.06961  1.0000
  H   H373      1.0  0.08250  0.61922  0.07365  1.0000
  C   C261      1.0  0.13139  0.80213  0.05256  1.0000
  C   C262      1.0  0.12354  0.81681  0.06038  1.0000
  C   C263      1.0  0.13972  0.84236  0.06324  1.0000
  C   C264      1.0  0.16388  0.85360  0.05833  1.0000
  C   C265      1.0  0.17174  0.83894  0.05049  1.0000
  C   C266      1.0  0.15560  0.81340  0.04766  1.0000
  H   H374      1.0  0.10501  0.80846  0.06423  1.0000
  H   H375      1.0  0.13340  0.85346  0.06935  1.0000
  H   H376      1.0  0.19018  0.84720  0.04658  1.0000
  H   H377      1.0  0.16184  0.80219  0.04161  1.0000
  H   H378      1.0  0.16781  0.65929  0.13016  1.0000
  C   C267      1.0  0.27154  0.96112  0.99637  1.0000
  H   H379      1.0  0.14796  0.66402  0.11759  1.0000
  H   H380      1.0  0.03388  0.95369  0.14968  1.0000
  H   H381      1.0  0.01459  0.52833  0.06778  1.0000
  H   H382      1.0  0.16185  0.83621  0.00483  1.0000
  C   C268      1.0  0.07267  0.99240  0.13916  1.0000
  C   C269      1.0  0.04848  0.52459  0.05160  1.0000
  H   H383      1.0  0.13889  0.86986  0.01077  1.0000
  N   N22       1.0  0.17589  0.87465  0.01170  1.0000
  C   C270      1.0  0.16776  0.84833  0.01475  1.0000
  H   H384      1.0  0.28872  0.69402  0.09875  1.0000
  N   N23       1.0  0.22205  0.85416  0.08698  1.0000
  N   N24       1.0  0.12957  0.63203  0.13022  1.0000
  C   C271      1.0  0.13188  0.62435  0.14474  1.0000
  C   C272      1.0  0.10507  0.63080  0.12795  1.0000
  C   C273      1.0  0.13227  0.61519  0.11962  1.0000
  C   C274      1.0  0.14911  0.65775  0.12849  1.0000
  H   H385      1.0  0.14996  0.62452  0.14668  1.0000
  H   H386      1.0  0.11739  0.60503  0.14647  1.0000
  H   H387      1.0  0.13017  0.63669  0.15309  1.0000
  H   H388      1.0  0.10210  0.64296  0.13587  1.0000
  H   H389      1.0  0.10283  0.63664  0.11711  1.0000
  H   H390      1.0  0.08986  0.61153  0.12884  1.0000
  H   H391      1.0  0.12992  0.61988  0.10850  1.0000
  H   H392      1.0  0.11808  0.59567  0.12088  1.0000
  H   H393      1.0  0.15061  0.61577  0.12086  1.0000
  H   H394      1.0  0.14754  0.67099  0.13628  1.0000
  C   C275      1.0  0.18273  0.88978  0.02522  1.0000
  H   H395      1.0  0.05399  0.94297  0.14216  1.0000
  C   C276      1.0  0.29952  0.57478  0.19428  1.0000
  C   C277      1.0  0.99322  0.68321  0.00229  1.0000
  C   C278      1.0  0.29015  0.59778  0.21235  1.0000
  H   H396      1.0  0.04518  0.95105  0.11110  1.0000
  H   H397      1.0  0.99919  0.93231  0.19817  1.0000
  H   H398      1.0  0.21983  0.83869  0.06577  1.0000
  S   S126      1.0  0.00403  0.67662  0.01862  1.0000
  H   H399      1.0  0.27786  0.71006  0.11066  1.0000
  H   H400      1.0  0.20373  0.90341  0.99980  1.0000
  H   H401      1.0  0.27297  0.65858  0.23537  1.0000
  H   H402      1.0  0.23617  0.98284  0.08798  1.0000
  H   H403      1.0  0.15187  0.84104  0.02192  1.0000
  S   S127      1.0  0.00909  0.49991  0.14709  1.0000
  C   C279      1.0  0.04054  0.94979  0.13948  1.0000
  H   H404      1.0  0.28153  0.55785  0.19535  1.0000
  H   H405      1.0  0.27149  0.58166  0.21320  1.0000
  H   H406      1.0  0.23247  0.83972  0.10505  1.0000
  S   S128      1.0  0.07503  0.50573  0.13558  1.0000
  N   N25       1.0  0.05169  0.97214  0.13091  1.0000
  C   C280      1.0  0.03294  0.98013  0.12744  1.0000
  H   H407      1.0  0.16100  0.89644  0.00188  1.0000
  H   H408      1.0  0.31304  0.56880  0.19043  1.0000
  C   C281      1.0  0.99652  0.70696  0.99942  1.0000
  H   H409      1.0  0.18814  0.82003  0.08311  1.0000
  H   H410      1.0  0.19761  0.88817  0.03134  1.0000
  C   C282      1.0  0.30091  0.70638  0.13437  1.0000
  C   C283      1.0  0.23026  0.87893  0.09405  1.0000
  S   S129      1.0  0.29539  0.90695  0.07521  1.0000
  C   C284      1.0  0.03366  0.53623  0.07258  1.0000
  C   C285      1.0  0.31156  0.57472  0.21894  1.0000
  H   H411      1.0  0.25029  0.89138  0.09262  1.0000
  S   S130      1.0  0.29393  0.66591  0.20785  1.0000
  N   N26       1.0  0.30837  0.58980  0.20783  1.0000
  C   C286      1.0  0.23574  0.84220  0.09347  1.0000
  H   H412      1.0  0.28839  0.61054  0.20468  1.0000
  C   C287      1.0  0.00127  0.49696  0.16539  1.0000
  H   H413      1.0  0.02422  0.93431  0.13372  1.0000
  C   C288      1.0  0.01909  0.50470  0.17660  1.0000
  H   H414      1.0  0.32032  0.68255  0.10732  1.0000
  H   H415      1.0  0.19079  0.83569  0.10011  1.0000
  H   H416      1.0  0.21829  0.86740  0.06668  1.0000
  H   H417      1.0  0.26963  0.67799  0.11315  1.0000
  S   S131      1.0  0.99444  0.74771  0.06844  1.0000
  H   H418      1.0  0.22728  0.87762  0.10569  1.0000
  C   C289      1.0  0.19753  0.88379  0.00264  1.0000
  H   H419      1.0  0.24911  0.98912  0.01024  1.0000
  H   H420      1.0  0.18288  0.84599  0.02009  1.0000
  H   H421      1.0  0.05829  0.51464  0.04723  1.0000
  H   H422      1.0  0.07487  0.96038  0.11978  1.0000
  H   H423      1.0  0.25604  0.85367  0.09232  1.0000
  H   H424      1.0  0.29702  0.58562  0.18565  1.0000
  H   H425      1.0  0.03845  0.51316  0.17426  1.0000
  C   C290      1.0  0.15554  0.87676  0.00421  1.0000
  H   H426      1.0  0.18958  0.90986  0.02333  1.0000
  H   H427      1.0  0.07104  0.53270  0.08573  1.0000
  H   H428      1.0  0.29471  0.72074  0.13572  1.0000
  C   C291      1.0  0.07182  0.53389  0.07398  1.0000
  N   N27       1.0  0.04673  0.52273  0.06722  1.0000
  H   H429      1.0  0.04361  0.55632  0.07019  1.0000
  C   C292      1.0  0.19524  0.83863  0.08868  1.0000
  H   H430      1.0  0.02587  0.50728  0.19943  1.0000
  H   H431      1.0  0.16675  0.88379  0.03227  1.0000
  H   H432      1.0  0.05876  0.54435  0.04862  1.0000
  H   H433      1.0  0.03224  0.53548  0.08437  1.0000
  H   H434      1.0  0.08224  0.52409  0.07035  1.0000
  H   H435      1.0  0.98821  0.91343  0.18175  1.0000
  H   H436      1.0  0.29555  0.60793  0.22294  1.0000
  C   C293      1.0  0.30433  0.66054  0.22452  1.0000
  H   H437      1.0  0.31720  0.71191  0.14180  1.0000
  H   H438      1.0  0.01670  0.96532  0.12130  1.0000
  H   H439      1.0  0.29384  0.55786  0.22076  1.0000
  H   H440      1.0  0.02597  0.98470  0.13729  1.0000
  N   N28       1.0  0.30708  0.70399  0.11950  1.0000
  H   H441      1.0  0.30121  0.66661  0.12174  1.0000
  C   C294      1.0  0.28484  0.69621  0.11007  1.0000
  H   H442      1.0  0.21363  0.88346  0.00820  1.0000
  C   C295      1.0  0.28999  0.65742  0.23648  1.0000
  H   H443      1.0  0.06895  0.98284  0.11086  1.0000
  C   C296      1.0  0.03305  0.49627  0.07074  1.0000
  H   H444      1.0  0.30541  0.97843  0.00916  1.0000
  H   H445      1.0  0.02985  0.51636  0.04615  1.0000
  C   C297      1.0  0.31563  0.68505  0.11841  1.0000
  H   H446      1.0  0.19341  0.87240  0.99250  1.0000
  H   H447      1.0  0.31826  0.58555  0.22931  1.0000
  S   S132      1.0  0.00823  0.98590  0.20781  1.0000
  H   H448      1.0  0.01040  0.97120  0.23631  1.0000
  H   H449      1.0  0.27737  0.99189  0.02970  1.0000
  H   H450      1.0  0.03148  0.49419  0.08247  1.0000
  Fe  Fe69      1.0  0.07104  0.74368  0.42575  1.0000
  S   S133      1.0  0.05477  0.70669  0.43649  1.0000
  S   S134      1.0  0.10997  0.77332  0.43362  1.0000
  Fe  Fe70      1.0  0.02159  0.72968  0.40936  1.0000
  S   S135      1.0  0.00229  0.69287  0.41949  1.0000
  H   H451      1.0  0.05479  0.73426  0.47559  1.0000
  Fe  Fe71      1.0  0.02184  0.71292  0.44020  1.0000
  C   C298      1.0  0.01664  0.71015  0.36420  1.0000
  Fe  Fe72      1.0  0.03670  0.68946  0.41485  1.0000
  S   S136      1.0  0.02779  0.65276  0.40256  1.0000
  S   S137      1.0  0.03881  0.75037  0.43022  1.0000
  S   S138      1.0  0.05535  0.72585  0.40397  1.0000
  Fe  Fe73      1.0  0.26201  0.95121  0.43665  1.0000
  S   S139      1.0  0.23027  0.94578  0.42155  1.0000
  S   S140      1.0  0.25830  0.96707  0.45849  1.0000
  Fe  Fe74      1.0  0.28372  0.92938  0.41445  1.0000
  S   S141      1.0  0.25356  0.92339  0.39845  1.0000
  H   H452      1.0  0.21115  0.81166  0.38873  1.0000
  Fe  Fe75      1.0  0.25877  0.96132  0.40506  1.0000
  H   H453      1.0  0.23171  0.55635  0.35921  1.0000
  Fe  Fe76      1.0  0.22674  0.90811  0.41588  1.0000
  S   S142      1.0  0.18992  0.87504  0.40774  1.0000
  S   S143      1.0  0.29110  0.96884  0.42015  1.0000
  S   S144      1.0  0.25644  0.91222  0.43191  1.0000
  H   H454      1.0  0.07803  0.78726  0.45152  1.0000
  S   S145      1.0  0.07896  0.50984  0.34164  1.0000
  Fe  Fe77      1.0  0.08259  0.56611  0.36456  1.0000
  S   S146      1.0  0.09579  0.56995  0.34216  1.0000
  S   S147      1.0  0.08985  0.59945  0.37971  1.0000
  Fe  Fe78      1.0  0.06121  0.53386  0.33661  1.0000
  S   S148      1.0  0.04521  0.53388  0.31430  1.0000
  Fe  Fe79      1.0  0.11308  0.54599  0.34788  1.0000
  S   S149      1.0  0.14892  0.54955  0.33865  1.0000
  S   S150      1.0  0.04668  0.53189  0.35865  1.0000
  S   S151      1.0  0.10271  0.54458  0.37086  1.0000
  C   C299      1.0  0.99355  0.68025  0.38144  1.0000
  C   C300      1.0  0.29800  0.97810  0.47783  1.0000
  C   C301      1.0  0.05342  0.54366  0.42278  1.0000
  C   C302      1.0  0.24053  0.57656  0.35719  1.0000
  Fe  Fe80      1.0  0.28632  0.64920  0.31461  1.0000
  S   S152      1.0  0.24896  0.64409  0.32210  1.0000
  H   H455      1.0  0.28220  0.57753  0.33366  1.0000
  H   H456      1.0  0.25169  0.57326  0.32997  1.0000
  H   H457      1.0  0.08741  0.58473  0.41053  1.0000
  H   H458      1.0  0.14729  0.57048  0.28837  1.0000
  H   H459      1.0  0.22809  0.57951  0.34955  1.0000
  H   H460      1.0  0.03650  0.76781  0.46158  1.0000
  H   H461      1.0  0.28368  0.59272  0.37235  1.0000
  S   S153      1.0  0.30759  0.67695  0.29809  1.0000
  Fe  Fe81      1.0  0.06730  0.51033  0.36420  1.0000
  C   C303      1.0  0.17619  0.57617  0.33374  1.0000
  C   C304      1.0  0.19421  0.57271  0.32644  1.0000
  C   C305      1.0  0.21640  0.59321  0.32262  1.0000
  C   C306      1.0  0.22099  0.61749  0.32620  1.0000
  C   C307      1.0  0.20278  0.62093  0.33327  1.0000
  C   C308      1.0  0.18052  0.60045  0.33701  1.0000
  H   H462      1.0  0.19097  0.55402  0.32372  1.0000
  H   H463      1.0  0.22986  0.59029  0.31681  1.0000
  H   H464      1.0  0.20601  0.63962  0.33600  1.0000
  H   H465      1.0  0.16689  0.60350  0.34259  1.0000
  H   H466      1.0  0.00224  0.71639  0.36350  1.0000
  C   C309      1.0  0.04564  0.63864  0.39609  1.0000
  C   C310      1.0  0.03377  0.61648  0.38751  1.0000
  C   C311      1.0  0.04696  0.60443  0.38221  1.0000
  C   C312      1.0  0.07226  0.61429  0.38551  1.0000
  C   C313      1.0  0.08410  0.63640  0.39412  1.0000
  C   C314      1.0  0.07097  0.64858  0.39930  1.0000
  H   H467      1.0  0.01418  0.60853  0.38497  1.0000
  H   H468      1.0  0.03751  0.58747  0.37563  1.0000
  H   H469      1.0  0.10365  0.64424  0.39677  1.0000
  H   H470      1.0  0.08042  0.66555  0.40588  1.0000
  C   C315      1.0  0.13178  0.80169  0.42626  1.0000
  C   C316      1.0  0.15389  0.81722  0.43413  1.0000
  C   C317      1.0  0.17176  0.83981  0.42877  1.0000
  C   C318      1.0  0.16783  0.84714  0.41537  1.0000
  C   C319      1.0  0.14580  0.83155  0.40747  1.0000
  C   C320      1.0  0.12785  0.80908  0.41288  1.0000
  H   H471      1.0  0.15723  0.81175  0.44448  1.0000
  H   H472      1.0  0.18854  0.85149  0.43501  1.0000
  H   H473      1.0  0.14251  0.83688  0.39707  1.0000
  H   H474      1.0  0.11103  0.79740  0.40666  1.0000
  H   H475      1.0  0.23867  0.85284  0.37927  1.0000
  H   H476      1.0  0.05776  0.74286  0.45748  1.0000
  H   H477      1.0  0.27700  0.62344  0.35838  1.0000
  H   H478      1.0  0.28582  0.64962  0.25890  1.0000
  N   N29       1.0  0.06684  0.54474  0.40976  1.0000
  C   C321      1.0  0.27463  0.97636  0.47543  1.0000
  H   H479      1.0  0.30663  0.97332  0.46923  1.0000
  C   C322      1.0  0.99156  0.49883  0.28289  1.0000
  N   N30       1.0  0.00588  0.68372  0.36776  1.0000
  H   H480      1.0  0.03954  0.68764  0.37775  1.0000
  C   C323      1.0  0.07175  0.52320  0.40880  1.0000
  H   H481      1.0  0.19932  0.82624  0.40100  1.0000
  H   H482      1.0  0.08325  0.52306  0.41810  1.0000
  C   C324      1.0  0.99528  0.69903  0.47766  1.0000
  H   H483      1.0  0.26063  0.87129  0.41712  1.0000
  H   H484      1.0  0.04952  0.55974  0.42377  1.0000
  N   N31       1.0  0.07001  0.77358  0.47264  1.0000
  C   C325      1.0  0.24210  0.85475  0.41551  1.0000
  C   C326      1.0  0.09049  0.56808  0.41023  1.0000
  H   H485      1.0  0.10457  0.79270  0.46232  1.0000
  H   H486      1.0  0.09758  0.56670  0.31132  1.0000
  H   H487      1.0  0.09931  0.50876  0.29937  1.0000
  C   C327      1.0  0.01780  0.51151  0.30489  1.0000
  H   H488      1.0  0.25756  0.82214  0.40710  1.0000
  H   H489      1.0  0.21201  0.80707  0.40753  1.0000
  C   C328      1.0  0.27598  0.61203  0.34868  1.0000
  H   H490      1.0  0.24041  0.84168  0.42395  1.0000
  H   H491      1.0  0.01391  0.67696  0.47490  1.0000
  H   H492      1.0  0.03540  0.52635  0.42265  1.0000
  N   N32       1.0  0.11324  0.54833  0.29854  1.0000
  C   C329      1.0  0.09744  0.54618  0.28588  1.0000
  C   C330      1.0  0.10167  0.52498  0.30621  1.0000
  C   C331      1.0  0.11591  0.56928  0.30803  1.0000
  C   C332      1.0  0.13792  0.55292  0.29413  1.0000
  H   H493      1.0  0.00679  0.69239  0.39002  1.0000
  H   H494      1.0  0.10543  0.56353  0.27987  1.0000
  H   H495      1.0  0.02593  0.71358  0.35388  1.0000
  H   H496      1.0  0.25610  0.55090  0.34002  1.0000
  H   H497      1.0  0.08307  0.52099  0.30977  1.0000
  H   H498      1.0  0.25672  0.82679  0.38829  1.0000
  H   H499      1.0  0.25941  0.87789  0.39118  1.0000
  C   C333      1.0  0.08612  0.79201  0.46263  1.0000
  H   H500      1.0  0.12723  0.57109  0.31788  1.0000
  H   H501      1.0  0.10112  0.56941  0.40055  1.0000
  H   H502      1.0  0.03283  0.75889  0.47967  1.0000
  H   H503      1.0  0.27717  0.85204  0.40026  1.0000
  H   H504      1.0  0.06429  0.54405  0.43253  1.0000
  C   C334      1.0  0.98759  0.66801  0.35644  1.0000
  N   N33       1.0  0.17868  0.92984  0.38582  1.0000
  C   C335      1.0  0.16578  0.91497  0.39800  1.0000
  C   C336      1.0  0.18872  0.95659  0.38972  1.0000
  C   C337      1.0  0.16119  0.92310  0.37338  1.0000
  C   C338      1.0  0.19918  0.92474  0.38217  1.0000
  H   H505      1.0  0.15802  0.89465  0.39543  1.0000
  H   H506      1.0  0.15035  0.91849  0.40120  1.0000
  H   H507      1.0  0.17859  0.91930  0.40750  1.0000
  H   H508      1.0  0.19860  0.96833  0.38076  1.0000
  H   H509      1.0  0.17396  0.96131  0.39272  1.0000
  H   H510      1.0  0.20235  0.96232  0.39893  1.0000
  H   H511      1.0  0.17043  0.93402  0.36401  1.0000
  H   H512      1.0  0.14546  0.92671  0.37576  1.0000
  H   H513      1.0  0.15343  0.90302  0.37015  1.0000
  H   H514      1.0  0.20947  0.93565  0.37303  1.0000
  H   H515      1.0  0.19257  0.90463  0.37951  1.0000
  H   H516      1.0  0.21279  0.93009  0.39127  1.0000
  H   H517      1.0  0.04717  0.55976  0.39754  1.0000
  S   S154      1.0  0.00250  0.71342  0.46087  1.0000
  S   S155      1.0  0.29495  0.61966  0.30560  1.0000
  S   S156      1.0  0.00597  0.74407  0.39169  1.0000
  C   C339      1.0  0.24099  0.86102  0.39029  1.0000
  H   H518      1.0  0.09494  0.53053  0.27846  1.0000
  H   H519      1.0  0.24568  0.98128  0.48514  1.0000
  H   H520      1.0  0.26480  0.61537  0.34034  1.0000
  C   C340      1.0  0.01311  0.51587  0.29077  1.0000
  C   C341      1.0  0.25840  0.83559  0.39909  1.0000
  C   C342      1.0  0.21428  0.82099  0.39950  1.0000
  H   H521      1.0  0.12504  0.58729  0.30270  1.0000
  C   C343      1.0  0.05167  0.54405  0.39713  1.0000
  H   H522      1.0  0.02611  0.53265  0.28591  1.0000
  H   H523      1.0  0.07866  0.54261  0.28901  1.0000
  C   C344      1.0  0.26372  0.57109  0.33824  1.0000
  N   N34       1.0  0.26543  0.58537  0.35159  1.0000
  N   N35       1.0  0.23893  0.84304  0.40109  1.0000
  H   H524      1.0  0.29502  0.61935  0.34486  1.0000
  H   H525      1.0  0.15011  0.55464  0.30357  1.0000
  H   H526      1.0  0.22674  0.86727  0.39156  1.0000
  H   H527      1.0  0.24122  0.58673  0.36736  1.0000
  H   H528      1.0  0.10241  0.56953  0.41969  1.0000
  C   C345      1.0  0.29723  0.65236  0.24984  1.0000
  H   H529      1.0  0.30049  0.58824  0.35822  1.0000
  S   S157      1.0  0.30569  0.90956  0.40656  1.0000
  C   C346      1.0  0.28160  0.58188  0.36222  1.0000
  H   H530      1.0  0.27421  0.56198  0.36472  1.0000
  H   H531      1.0  0.22798  0.86100  0.41731  1.0000
  C   C347      1.0  0.00322  0.68205  0.48197  1.0000
  H   H532      1.0  0.08480  0.74850  0.46787  1.0000
  H   H533      1.0  0.03408  0.52628  0.39598  1.0000
  H   H534      1.0  0.01821  0.65661  0.37177  1.0000
  H   H535      1.0  0.98815  0.50254  0.27209  1.0000
  S   S158      1.0  0.99253  0.97338  0.29466  1.0000
  H   H536      1.0  0.03055  0.72248  0.37257  1.0000
  H   H537      1.0  0.08164  0.52332  0.39900  1.0000
  H   H538      1.0  0.13672  0.53748  0.28698  1.0000
  C   C348      1.0  0.06679  0.74873  0.46827  1.0000
  C   C349      1.0  0.04565  0.77300  0.47244  1.0000
  H   H539      1.0  0.11298  0.52593  0.31588  1.0000
  H   H540      1.0  0.06175  0.54577  0.38726  1.0000
  H   H541      1.0  0.08906  0.81104  0.46554  1.0000
  H   H542      1.0  0.03568  0.67908  0.35903  1.0000
  C   C350      1.0  0.08144  0.78047  0.48720  1.0000
  C   C351      1.0  0.02569  0.67648  0.36907  1.0000
  H   H543      1.0  0.04722  0.79135  0.47575  1.0000
  Fe  Fe82      1.0  0.31882  0.64863  0.29038  1.0000
  S   S159      1.0  0.25715  0.98332  0.38594  1.0000
  C   C352      1.0  0.99580  0.98986  0.24992  1.0000
  H   H544      1.0  0.05429  0.50524  0.40827  1.0000
  H   H545      1.0  0.99830  0.98186  0.25956  1.0000
  C   C353      1.0  0.31895  0.65039  0.25132  1.0000
  S   S160      1.0  0.31858  0.66523  0.33068  1.0000
  H   H546      1.0  0.99627  0.67007  0.34596  1.0000
  C   C354      1.0  0.26380  0.98270  0.48681  1.0000
  S   S161      1.0  0.02110  0.52332  0.70153  1.0000
  H   H547      1.0  0.10513  0.76390  0.62118  1.0000
  H   H548      1.0  0.99201  0.75215  0.61272  1.0000
  H   H549      1.0  0.03074  0.98138  0.62219  1.0000
  Fe  Fe83      1.0  0.09068  0.84613  0.61558  1.0000
  S   S162      1.0  0.08127  0.84746  0.63856  1.0000
  S   S163      1.0  0.06961  0.82042  0.59615  1.0000
  Fe  Fe84      1.0  0.14501  0.88719  0.62115  1.0000
  S   S164      1.0  0.13959  0.89072  0.64459  1.0000
  S   S165      1.0  0.18182  0.90309  0.60993  1.0000
  Fe  Fe85      1.0  0.11805  0.84896  0.64425  1.0000
  S   S166      1.0  0.12027  0.81965  0.65821  1.0000
  Fe  Fe86      1.0  0.10331  0.88923  0.63737  1.0000
  S   S167      1.0  0.09570  0.91932  0.64769  1.0000
  S   S168      1.0  0.12597  0.84541  0.62131  1.0000
  S   S169      1.0  0.11016  0.88791  0.61391  1.0000
  Fe  Fe87      1.0  0.03904  0.52277  0.72315  1.0000
  H   H550      1.0  0.05664  0.75766  0.60774  1.0000
  S   S170      1.0  0.07985  0.53581  0.72762  1.0000
  C   C355      1.0  0.25799  0.51912  0.72878  1.0000
  S   S171      1.0  0.20104  0.77965  0.72488  1.0000
  S   S172      1.0  0.18129  0.83269  0.71693  1.0000
  C   C356      1.0  0.07665  0.98976  0.62887  1.0000
  S   S173      1.0  0.14500  0.71061  0.73200  1.0000
  H   H551      1.0  0.99641  0.52753  0.67628  1.0000
  H   H552      1.0  0.09972  0.78815  0.61414  1.0000
  H   H553      1.0  0.24464  0.87003  0.68809  1.0000
  C   C357      1.0  0.29952  0.99263  0.50274  1.0000
  C   C358      1.0  0.13704  0.82374  0.67468  1.0000
  C   C359      1.0  0.15196  0.84723  0.68120  1.0000
  C   C360      1.0  0.16499  0.84951  0.69423  1.0000
  C   C361      1.0  0.16330  0.82841  0.70091  1.0000
  C   C362      1.0  0.14842  0.80490  0.69437  1.0000
  C   C363      1.0  0.13540  0.80262  0.68134  1.0000
  H   H554      1.0  0.15337  0.86364  0.67626  1.0000
  H   H555      1.0  0.17639  0.86780  0.69918  1.0000
  H   H556      1.0  0.14686  0.78848  0.69937  1.0000
  H   H557      1.0  0.12387  0.78434  0.67643  1.0000
  H   H558      1.0  0.24765  0.82130  0.71009  1.0000
  C   C364      1.0  0.02508  0.92782  0.65102  1.0000
  C   C365      1.0  0.04691  0.94412  0.65863  1.0000
  C   C366      1.0  0.06822  0.94105  0.65757  1.0000
  C   C367      1.0  0.06796  0.92159  0.64898  1.0000
  C   C368      1.0  0.04607  0.90517  0.64147  1.0000
  C   C369      1.0  0.02477  0.90830  0.64249  1.0000
  H   H559      1.0  0.04732  0.95893  0.66543  1.0000
  H   H560      1.0  0.08501  0.95373  0.66351  1.0000
  H   H561      1.0  0.04556  0.89013  0.63483  1.0000
  H   H562      1.0  0.00795  0.89552  0.63662  1.0000
  C   C370      1.0  0.11502  0.65966  0.73118  1.0000
  H   H563      1.0  0.00342  0.65838  0.49863  1.0000
  H   H564      1.0  0.27167  0.51933  0.72113  1.0000
  H   H565      1.0  0.26958  0.84889  0.68307  1.0000
  H   H566      1.0  0.06122  0.73302  0.61483  1.0000
  H   H567      1.0  0.24442  0.52295  0.72273  1.0000
  C   C371      1.0  0.22772  0.97581  0.58681  1.0000
  C   C372      1.0  0.20680  0.97256  0.59421  1.0000
  C   C373      1.0  0.19306  0.95091  0.60176  1.0000
  C   C374      1.0  0.19980  0.93194  0.60181  1.0000
  C   C375      1.0  0.22082  0.93525  0.59449  1.0000
  C   C376      1.0  0.23475  0.95705  0.58707  1.0000
  H   H568      1.0  0.98913  0.53281  0.72194  1.0000
  H   H569      1.0  0.17721  0.94892  0.60750  1.0000
  H   H570      1.0  0.22630  0.92078  0.59446  1.0000
  H   H571      1.0  0.25076  0.95923  0.58145  1.0000
  Fe  Fe88      1.0  0.18479  0.80467  0.73130  1.0000
  C   C377      1.0  0.10688  0.63501  0.73541  1.0000
  H   H572      1.0  0.03673  0.73870  0.62098  1.0000
  C   C378      1.0  0.98825  0.50794  0.67835  1.0000
  C   C379      1.0  0.99945  0.74402  0.59143  1.0000
  C   C380      1.0  0.01562  0.75313  0.58028  1.0000
  C   C381      1.0  0.03678  0.77664  0.58189  1.0000
  C   C382      1.0  0.04204  0.79139  0.59459  1.0000
  C   C383      1.0  0.02549  0.78253  0.60559  1.0000
  C   C384      1.0  0.00450  0.75890  0.60406  1.0000
  H   H573      1.0  0.01199  0.74195  0.57050  1.0000
  H   H574      1.0  0.04929  0.78334  0.57324  1.0000
  H   H575      1.0  0.02874  0.79393  0.61525  1.0000
  H   H576      1.0  0.10490  0.66310  0.72271  1.0000
  N   N36       1.0  0.13971  0.89052  0.57244  1.0000
  C   C385      1.0  0.12665  0.88848  0.55864  1.0000
  C   C386      1.0  0.12657  0.86711  0.57994  1.0000
  C   C387      1.0  0.14036  0.91128  0.58129  1.0000
  C   C388      1.0  0.16521  0.89524  0.56992  1.0000
  H   H577      1.0  0.13609  0.90595  0.55280  1.0000
  H   H578      1.0  0.10731  0.88478  0.56018  1.0000
  H   H579      1.0  0.12581  0.87300  0.55167  1.0000
  H   H580      1.0  0.13611  0.86805  0.59038  1.0000
  H   H581      1.0  0.10737  0.86314  0.58221  1.0000
  H   H582      1.0  0.12543  0.85089  0.57360  1.0000
  H   H583      1.0  0.15154  0.92957  0.57651  1.0000
  H   H584      1.0  0.14869  0.91230  0.59208  1.0000
  H   H585      1.0  0.12150  0.90896  0.58284  1.0000
  H   H586      1.0  0.17627  0.91357  0.56514  1.0000
  H   H587      1.0  0.16546  0.88057  0.56272  1.0000
  H   H588      1.0  0.17512  0.89550  0.58004  1.0000
  H   H589      1.0  0.05361  0.74258  0.64612  1.0000
  H   H590      1.0  0.25682  0.81599  0.68503  1.0000
  H   H591      1.0  0.07016  0.98114  0.61795  1.0000
  C   C389      1.0  0.24319  0.83610  0.70659  1.0000
  C   C390      1.0  0.22780  0.85160  0.68755  1.0000
  H   H592      1.0  0.21448  0.85314  0.69479  1.0000
  H   H593      1.0  0.22952  0.83657  0.71402  1.0000
  H   H594      1.0  0.24538  0.82755  0.67084  1.0000
  H   H595      1.0  0.26025  0.85426  0.70808  1.0000
  H   H596      1.0  0.20231  0.80357  0.67917  1.0000
  C   C391      1.0  0.21071  0.80731  0.69019  1.0000
  H   H597      1.0  0.04576  0.77588  0.63538  1.0000
  N   N37       1.0  0.23345  0.83149  0.69164  1.0000
  H   H598      1.0  0.28116  0.84908  0.72962  1.0000
  H   H599      1.0  0.19650  0.80681  0.69747  1.0000
  C   C392      1.0  0.99717  0.50026  0.69013  1.0000
  H   H600      1.0  0.07659  0.79675  0.64173  1.0000
  H   H601      1.0  0.03269  0.97616  0.64073  1.0000
  C   C393      1.0  0.25214  0.83096  0.68221  1.0000
  H   H602      1.0  0.07812  0.73718  0.63965  1.0000
  H   H603      1.0  0.21437  0.79165  0.69290  1.0000
  S   S174      1.0  0.99789  0.93126  0.65164  1.0000
  H   H604      1.0  0.06788  0.79653  0.62343  1.0000
  H   H605      1.0  0.08522  0.76461  0.65055  1.0000
  H   H606      1.0  0.21937  0.84825  0.67654  1.0000
  C   C394      1.0  0.03847  0.99082  0.63279  1.0000
  N   N38       1.0  0.07315  0.76537  0.62897  1.0000
  C   C395      1.0  0.09856  0.77763  0.62385  1.0000
  C   C396      1.0  0.06544  0.78440  0.63251  1.0000
  C   C397      1.0  0.07246  0.75176  0.64187  1.0000
  C   C398      1.0  0.05621  0.74788  0.61766  1.0000
  H   H607      1.0  0.11179  0.79117  0.63208  1.0000
  Fe  Fe89      1.0  0.99371  0.96366  0.66162  1.0000
  C   C399      1.0  0.99718  0.67150  0.49547  1.0000
  H   H608      1.0  0.07153  0.97425  0.63623  1.0000
  C   C400      1.0  0.27601  0.99058  0.50039  1.0000
  H   H609      1.0  0.09072  0.61983  0.73017  1.0000
  H   H610      1.0  0.20128  0.98701  0.59416  1.0000
  C   C401      1.0  0.31033  0.98623  0.49137  1.0000
  H   H611      1.0  0.06964  0.76685  0.49497  1.0000
  C   C402      1.0  0.29771  0.84851  0.73320  1.0000
  H   H612      1.0  0.12138  0.49818  0.72864  1.0000
  N   N39       1.0  0.24560  0.49498  0.73562  1.0000
  H   H613      1.0  0.08419  0.79916  0.49086  1.0000
  H   H614      1.0  0.09979  0.78092  0.48770  1.0000
  H   H615      1.0  0.26802  0.53468  0.73683  1.0000
  H   H616      1.0  0.21202  0.90713  0.85707  1.0000
  C   C403      1.0  0.17273  0.86635  0.84628  1.0000
  C   C404      1.0  0.22753  0.49530  0.74563  1.0000
  H   H617      1.0  0.08176  0.68214  0.76968  1.0000
  Fe  Fe90      1.0  0.09404  0.89350  0.85140  1.0000
  S   S175      1.0  0.09564  0.88069  0.87339  1.0000
  S   S176      1.0  0.09009  0.92857  0.84829  1.0000
  Fe  Fe91      1.0  0.11007  0.85683  0.83808  1.0000
  S   S177      1.0  0.11232  0.84117  0.85931  1.0000
  S   S178      1.0  0.12223  0.85203  0.81586  1.0000
  Fe  Fe92      1.0  0.07638  0.84160  0.86360  1.0000
  S   S179      1.0  0.04299  0.81605  0.87635  1.0000
  Fe  Fe93      1.0  0.13114  0.88129  0.86761  1.0000
  S   S180      1.0  0.16365  0.89629  0.88398  1.0000
  S   S181      1.0  0.07278  0.85469  0.84171  1.0000
  S   S182      1.0  0.13103  0.89670  0.84634  1.0000
  H   H618      1.0  0.98926  0.72937  0.98453  1.0000
  H   H619      1.0  0.99254  0.77397  0.94081  1.0000
  C   C405      1.0  0.11207  0.71759  0.78896  1.0000
  C   C406      1.0  0.14371  0.71981  0.77347  1.0000
  Fe  Fe94      1.0  0.02723  0.51906  0.75475  1.0000
  H   H620      1.0  0.01546  0.96663  0.77536  1.0000
  S   S183      1.0  0.06680  0.53199  0.76167  1.0000
  Fe  Fe95      1.0  0.18146  0.79062  0.76268  1.0000
  S   S184      1.0  0.19823  0.76527  0.75828  1.0000
  S   S185      1.0  0.16862  0.78918  0.78555  1.0000
  C   C407      1.0  0.19929  0.86999  0.82696  1.0000
  H   H621      1.0  0.12374  0.73733  0.79286  1.0000
  H   H622      1.0  0.02372  0.77083  0.91649  1.0000
  N   N40       1.0  0.14605  0.96286  0.88208  1.0000
  H   H623      1.0  0.10673  0.94002  0.87907  1.0000
  H   H624      1.0  0.16917  0.53755  0.75403  1.0000
  H   H625      1.0  0.15102  0.64674  0.76126  1.0000
  H   H626      1.0  0.10517  0.68434  0.75789  1.0000
  C   C408      1.0  0.14579  0.98596  0.87796  1.0000
  H   H627      1.0  0.16266  0.97787  0.90295  1.0000
  C   C409      1.0  0.99321  0.75003  0.89191  1.0000
  H   H628      1.0  0.11955  0.56209  0.77040  1.0000
  H   H629      1.0  0.99894  0.78777  0.89129  1.0000
  C   C410      1.0  0.15577  0.53550  0.76231  1.0000
  H   H630      1.0  0.18409  0.91332  0.84001  1.0000
  C   C411      1.0  0.11250  0.73016  0.76480  1.0000
  C   C412      1.0  0.13444  0.83372  0.80767  1.0000
  C   C413      1.0  0.13794  0.81580  0.81493  1.0000
  C   C414      1.0  0.14846  0.80239  0.80799  1.0000
  C   C415      1.0  0.15551  0.80665  0.79376  1.0000
  C   C416      1.0  0.15199  0.82455  0.78653  1.0000
  C   C417      1.0  0.14155  0.83798  0.79346  1.0000
  H   H631      1.0  0.13244  0.81218  0.82583  1.0000
  H   H632      1.0  0.15107  0.78856  0.81368  1.0000
  H   H633      1.0  0.15728  0.82804  0.77558  1.0000
  H   H634      1.0  0.13892  0.85179  0.78774  1.0000
  C   C418      1.0  0.02076  0.93247  0.83162  1.0000
  C   C419      1.0  0.01951  0.90937  0.83442  1.0000
  C   C420      1.0  0.04062  0.90779  0.83929  1.0000
  C   C421      1.0  0.06321  0.92938  0.84152  1.0000
  C   C422      1.0  0.06450  0.95248  0.83861  1.0000
  C   C423      1.0  0.04343  0.95404  0.83361  1.0000
  H   H635      1.0  0.00208  0.89255  0.83290  1.0000
  H   H636      1.0  0.03933  0.88990  0.84151  1.0000
  H   H637      1.0  0.08189  0.96929  0.84028  1.0000
  H   H638      1.0  0.04468  0.97195  0.83149  1.0000
  H   H639      1.0  0.14063  0.51593  0.76126  1.0000
  C   C424      1.0  0.99371  0.64562  0.87151  1.0000
  H   H640      1.0  0.11697  0.95392  0.89675  1.0000
  C   C425      1.0  0.00197  0.73341  0.88790  1.0000
  C   C426      1.0  0.00696  0.72864  0.93046  1.0000
  H   H641      1.0  0.20320  0.91544  0.82540  1.0000
  H   H642      1.0  0.04625  0.94393  0.78854  1.0000
  C   C427      1.0  0.02738  0.93837  0.79227  1.0000
  C   C428      1.0  0.23460  0.97177  0.88948  1.0000
  C   C429      1.0  0.22587  0.95595  0.90084  1.0000
  C   C430      1.0  0.20425  0.93286  0.89893  1.0000
  C   C431      1.0  0.19099  0.92540  0.88571  1.0000
  C   C432      1.0  0.19983  0.94113  0.87432  1.0000
  C   C433      1.0  0.22144  0.96418  0.87622  1.0000
  H   H643      1.0  0.03947  0.75456  0.95183  1.0000
  H   H644      1.0  0.19774  0.92076  0.90779  1.0000
  H   H645      1.0  0.19016  0.93551  0.86403  1.0000
  C   C434      1.0  0.16555  0.96867  0.89331  1.0000
  H   H646      1.0  0.16956  0.96331  0.86540  1.0000
  H   H647      1.0  0.10540  0.67455  0.77568  1.0000
  C   C435      1.0  0.00600  0.77514  0.88823  1.0000
  C   C436      1.0  0.02764  0.78402  0.88045  1.0000
  C   C437      1.0  0.03639  0.76738  0.87643  1.0000
  C   C438      1.0  0.02361  0.74225  0.88013  1.0000
  S   S186      1.0  0.03810  0.55010  0.73950  1.0000
  H   H648      1.0  0.01158  0.64514  0.87241  1.0000
  H   H649      1.0  0.05296  0.77387  0.87045  1.0000
  H   H650      1.0  0.03054  0.72959  0.87692  1.0000
  H   H651      1.0  0.02306  0.92360  0.80009  1.0000
  C   C439      1.0  0.01517  0.94986  0.77016  1.0000
  H   H652      1.0  0.11846  0.53055  0.74460  1.0000
  H   H653      1.0  0.00879  0.74197  0.95812  1.0000
  H   H654      1.0  0.14798  0.70707  0.77981  1.0000
  H   H655      1.0  0.15587  0.85638  0.83917  1.0000
  H   H656      1.0  0.04824  0.77183  0.92765  1.0000
  H   H657      1.0  0.11194  0.52971  0.77035  1.0000
  C   C440      1.0  0.14892  0.67490  0.74867  1.0000
  H   H658      1.0  0.02801  0.95466  0.79829  1.0000
  C   C441      1.0  0.00834  0.90784  0.77280  1.0000
  H   H659      1.0  0.99374  0.71353  0.93698  1.0000
  H   H660      1.0  0.03487  0.79182  0.93186  1.0000
  H   H661      1.0  0.02394  0.72649  0.92993  1.0000
  C   C442      1.0  0.18786  0.90223  0.83177  1.0000
  N   N41       1.0  0.19393  0.88387  0.83830  1.0000
  H   H662      1.0  0.00354  0.89230  0.78012  1.0000
  Fe  Fe96      1.0  0.17263  0.75128  0.73885  1.0000
  H   H663      1.0  0.20301  0.85527  0.83138  1.0000
  H   H664      1.0  0.99770  0.66532  0.87357  1.0000
  N   N42       1.0  0.14597  0.55333  0.76063  1.0000
  H   H665      1.0  0.22096  0.88359  0.85320  1.0000
  Fe  Fe97      1.0  0.07777  0.56105  0.74505  1.0000
  H   H666      1.0  0.17109  0.89291  0.82448  1.0000
  Fe  Fe98      1.0  0.06750  0.50637  0.74401  1.0000
  H   H667      1.0  0.99857  0.72539  0.91948  1.0000
  H   H668      1.0  0.18425  0.98124  0.88950  1.0000
  H   H669      1.0  0.23201  0.91068  0.84268  1.0000
  C   C443      1.0  0.21572  0.89690  0.84822  1.0000
  H   H670      1.0  0.18344  0.86066  0.81907  1.0000
  H   H671      1.0  0.21559  0.88252  0.82094  1.0000
  H   H672      1.0  0.17647  0.85204  0.85125  1.0000
  H   H673      1.0  0.99448  0.90085  0.76369  1.0000
  H   H674      1.0  0.22814  0.97623  0.86735  1.0000
  H   H675      1.0  0.09290  0.72625  0.76505  1.0000
  H   H676      1.0  0.15610  0.73913  0.77766  1.0000
  C   C444      1.0  0.12176  0.94551  0.88748  1.0000
  C   C445      1.0  0.98929  0.75553  0.93636  1.0000
  C   C446      1.0  0.12750  0.54907  0.77145  1.0000
  H   H677      1.0  0.00136  0.94400  0.76104  1.0000
  C   C447      1.0  0.02229  0.75642  0.95132  1.0000
  H   H678      1.0  0.15910  0.59281  0.76118  1.0000
  N   N43       1.0  0.01231  0.75339  0.93648  1.0000
  S   S187      1.0  0.01089  0.99249  0.80119  1.0000
  S   S188      1.0  0.21051  0.82186  0.75080  1.0000
  C   C448      1.0  0.16622  0.57911  0.76247  1.0000
  H   H679      1.0  0.13568  0.55179  0.78247  1.0000
  C   C449      1.0  0.15103  0.95114  0.86949  1.0000
  S   S189      1.0  0.11067  0.59921  0.75196  1.0000
  C   C450      1.0  0.13420  0.54961  0.74624  1.0000
  H   H680      1.0  0.15019  0.93308  0.87208  1.0000
  H   H681      1.0  0.09244  0.71328  0.78986  1.0000
  C   C451      1.0  0.10172  0.68753  0.76917  1.0000
  H   H682      1.0  0.11635  0.72767  0.75349  1.0000
  H   H683      1.0  0.14876  0.71844  0.76233  1.0000
  C   C452      1.0  0.11975  0.63005  0.74628  1.0000
  H   H684      1.0  0.18043  0.58304  0.75441  1.0000
  H   H685      1.0  0.23584  0.96146  0.91108  1.0000
  N   N44       1.0  0.00880  0.92975  0.78026  1.0000
  H   H686      1.0  0.12691  0.56300  0.74453  1.0000
  H   H687      1.0  0.16832  0.87619  0.85501  1.0000
  S   S190      1.0  0.99294  0.51191  0.76722  1.0000
  H   H688      1.0  0.12423  0.75012  0.76818  1.0000
  N   N45       1.0  0.11746  0.71374  0.77411  1.0000
  H   H689      1.0  0.03363  0.95568  0.76573  1.0000
  H   H690      1.0  0.12155  0.92811  0.89099  1.0000
  H   H691      1.0  0.21312  0.49848  0.74003  1.0000
  C   C453      1.0  0.14079  0.65023  0.75289  1.0000
  H   H692      1.0  0.02665  0.91241  0.76848  1.0000
  H   H693      1.0  0.23658  0.50997  0.75426  1.0000
  H   H694      1.0  0.16594  0.95149  0.89672  1.0000
  H   H695      1.0  0.13119  0.98198  0.86948  1.0000
  H   H696      1.0  0.16513  0.53798  0.77297  1.0000
  H   H697      1.0  0.16532  0.69000  0.75373  1.0000
  H   H698      1.0  0.11581  0.70563  0.79630  1.0000
  H   H699      1.0  0.17548  0.58275  0.77325  1.0000
  S   S191      1.0  0.26674  0.80574  0.74746  1.0000
  C   C454      1.0  0.29582  0.82978  0.74216  1.0000
  S   S192      1.0  0.15480  0.77557  0.74370  1.0000
  C   C455      1.0  0.03061  0.77285  0.92778  1.0000
  H   H700      1.0  0.13726  0.94730  0.86060  1.0000
  H   H701      1.0  0.31663  0.81545  0.75392  1.0000
  H   H702      1.0  0.02652  0.77487  0.95624  1.0000
  C   C456      1.0  0.31777  0.82980  0.74699  1.0000
  C   C457      1.0  0.27378  0.97790  0.97262  1.0000
  Fe  Fe99      1.0  0.22551  0.79566  0.74490  1.0000
  S   S193      1.0  0.99346  0.93332  0.82577  1.0000
  H   H703      1.0  0.00387  0.63605  0.89802  1.0000
  H   H704      1.0  0.27412  0.50489  0.75211  1.0000
  H   H705      1.0  0.99031  0.65652  0.89895  1.0000
  H   H706      1.0  0.26495  0.97749  0.96243  1.0000
  C   C458      1.0  0.26038  0.96098  0.98305  1.0000
  H   H707      1.0  0.24124  0.94767  0.98073  1.0000
  Fe  Fe100     1.0  0.99004  0.96684  0.81828  1.0000
  H   H708      1.0  0.14737  0.55214  0.73774  1.0000
  H   H709      1.0  0.98821  0.60135  0.87952  1.0000
  C   C459      1.0  0.13610  0.67983  0.73773  1.0000
  H   H710      1.0  0.47674  0.47267  0.15466  1.0000
  Fe  Fe101     1.0  0.50303  0.45970  0.22379  1.0000
  S   S194      1.0  0.52637  0.44016  0.22118  1.0000
  H   H711      1.0  0.39557  0.14406  0.18286  1.0000
  Fe  Fe102     1.0  0.51685  0.03488  0.22671  1.0000
  S   S195      1.0  0.52674  0.07435  0.22152  1.0000
  H   H712      1.0  0.56844  0.00505  0.14092  1.0000
  Fe  Fe103     1.0  0.36740  0.17508  0.22738  1.0000
  C   C460      1.0  0.39075  0.10264  0.19512  1.0000
  S   S196      1.0  0.33942  0.14627  0.21110  1.0000
  C   C461      1.0  0.32288  0.17811  0.17756  1.0000
  C   C462      1.0  0.48710  0.00388  0.18712  1.0000
  H   H713      1.0  0.34688  0.19122  0.19663  1.0000
  C   C463      1.0  0.36008  0.42474  0.04448  1.0000
  H   H714      1.0  0.41819  0.41932  0.13987  1.0000
  H   H715      1.0  0.36137  0.43949  0.03733  1.0000
  H   H716      1.0  0.47604  0.35852  0.22170  1.0000
  H   H717      1.0  0.47738  0.45999  0.12319  1.0000
  H   H718      1.0  0.47339  0.44349  0.14773  1.0000
  H   H719      1.0  0.33069  0.19412  0.10755  1.0000
  H   H720      1.0  0.32137  0.24444  0.12471  1.0000
  C   C464      1.0  0.34639  0.38099  0.04708  1.0000
  H   H721      1.0  0.44755  0.48816  0.14532  1.0000
  S   S197      1.0  0.41156  0.46808  0.10331  1.0000
  H   H722      1.0  0.37913  0.42939  0.04831  1.0000
  S   S198      1.0  0.40724  0.19798  0.22254  1.0000
  H   H723      1.0  0.39523  0.99801  0.13052  1.0000
  H   H724      1.0  0.45061  0.44433  0.15911  1.0000
  C   C465      1.0  0.43175  0.43021  0.13187  1.0000
  H   H725      1.0  0.32939  0.22346  0.13379  1.0000
  H   H726      1.0  0.45051  0.31418  0.21357  1.0000
  H   H727      1.0  0.36085  0.10913  0.21351  1.0000
  C   C466      1.0  0.45465  0.31897  0.22485  1.0000
  H   H728      1.0  0.45666  0.47130  0.11707  1.0000
  H   H729      1.0  0.42104  0.43104  0.12229  1.0000
  H   H730      1.0  0.36563  0.12829  0.19036  1.0000
  Fe  Fe104     1.0  0.40730  0.22873  0.23666  1.0000
  H   H731      1.0  0.32851  0.19664  0.17397  1.0000
  C   C467      1.0  0.34085  0.43903  0.08592  1.0000
  C   C468      1.0  0.36404  0.45569  0.09247  1.0000
  C   C469      1.0  0.38166  0.44778  0.09537  1.0000
  C   C470      1.0  0.37560  0.42292  0.09167  1.0000
  C   C471      1.0  0.35231  0.40618  0.08526  1.0000
  H   H732      1.0  0.36831  0.47469  0.09520  1.0000
  H   H733      1.0  0.38901  0.41651  0.09385  1.0000
  H   H734      1.0  0.34796  0.38713  0.08266  1.0000
  C   C472      1.0  0.33336  0.17510  0.19043  1.0000
  H   H735      1.0  0.34373  0.23652  0.11746  1.0000
  N   N46       1.0  0.39479  0.12612  0.20243  1.0000
  C   C473      1.0  0.47611  0.99492  0.17336  1.0000
  H   H736      1.0  0.36176  0.41296  0.01674  1.0000
  H   H737      1.0  0.33533  0.33235  0.99647  1.0000
  C   C474      1.0  0.38113  0.12050  0.21571  1.0000
  H   H738      1.0  0.43237  0.14693  0.19617  1.0000
  C   C475      1.0  0.46655  0.46939  0.12669  1.0000
  H   H739      1.0  0.39734  0.09213  0.20198  1.0000
  H   H740      1.0  0.44166  0.41972  0.12859  1.0000
  N   N47       1.0  0.44909  0.45545  0.13768  1.0000
  H   H741      1.0  0.51755  0.28386  0.22717  1.0000
  H   H742      1.0  0.40081  0.10617  0.18504  1.0000
  H   H743      1.0  0.47079  0.00627  0.16698  1.0000
  H   H744      1.0  0.49015  0.02192  0.19122  1.0000
  C   C476      1.0  0.46918  0.34423  0.22943  1.0000
  N   N48       1.0  0.34733  0.39981  0.03720  1.0000
  C   C477      1.0  0.46303  0.45383  0.15033  1.0000
  H   H745      1.0  0.42892  0.13213  0.21282  1.0000
  H   H746      1.0  0.38724  0.11029  0.22308  1.0000
  C   C478      1.0  0.64731  0.14864  0.23473  1.0000
  H   H747      1.0  0.38844  0.15724  0.19829  1.0000
  H   H748      1.0  0.38399  0.13786  0.22146  1.0000
  C   C479      1.0  0.44553  0.29987  0.23465  1.0000
  H   H749      1.0  0.36516  0.38489  0.05098  1.0000
  H   H750      1.0  0.37078  0.09033  0.19239  1.0000
  H   H751      1.0  0.42510  0.15941  0.21184  1.0000
  H   H752      1.0  0.42323  0.46889  0.13271  1.0000
  C   C480      1.0  0.42145  0.14184  0.20593  1.0000
  S   S199      1.0  0.42876  0.26812  0.22801  1.0000
  C   C481      1.0  0.32642  0.15127  0.19518  1.0000
  S   S200      1.0  0.59675  0.11930  0.23646  1.0000
  S   S201      1.0  0.50819  0.99977  0.21293  1.0000
  H   H753      1.0  0.35002  0.42578  0.05399  1.0000
  S   S202      1.0  0.47561  0.46044  0.20696  1.0000
  C   C482      1.0  0.38580  0.13950  0.19303  1.0000
  C   C483      1.0  0.32607  0.22901  0.12306  1.0000
  H   H754      1.0  0.33573  0.38051  0.05656  1.0000
  H   H755      1.0  0.42264  0.45947  0.15066  1.0000
  C   C484      1.0  0.43500  0.46853  0.14180  1.0000
  C   C485      1.0  0.36075  0.39908  0.02449  1.0000
  H   H756      1.0  0.64993  0.00911  0.98893  1.0000
  H   H757      1.0  0.33730  0.36201  0.04184  1.0000
  H   H758      1.0  0.32751  0.44551  0.08368  1.0000
  H   H759      1.0  0.47992  0.48854  0.13079  1.0000
  H   H760      1.0  0.47305  0.25676  0.22120  1.0000
  H   H761      1.0  0.53096  0.00820  0.13329  1.0000
  C   C486      1.0  0.33474  0.41416  0.08228  1.0000
  Fe  Fe105     1.0  0.55559  0.47229  0.23509  1.0000
  H   H762      1.0  0.64262  0.16292  0.23162  1.0000
  C   C487      1.0  0.47326  0.24400  0.22941  1.0000
  C   C488      1.0  0.45779  0.48013  0.18647  1.0000
  H   H763      1.0  0.47658  0.22933  0.22411  1.0000
  H   H764      1.0  0.35135  0.38037  0.01884  1.0000
  H   H765      1.0  0.32908  0.00825  0.99085  1.0000
  C   C489      1.0  0.51658  0.27034  0.23520  1.0000
  H   H766      1.0  0.37995  0.40303  0.02745  1.0000
  H   H767      1.0  0.52147  0.25680  0.22985  1.0000
  C   C490      1.0  0.32193  0.39426  0.03275  1.0000
  H   H768      1.0  0.41029  0.99329  0.10718  1.0000
  H   H769      1.0  0.43979  0.46617  0.18948  1.0000
  H   H770      1.0  0.45440  0.23465  0.23353  1.0000
  C   C491      1.0  0.47906  0.48203  0.19367  1.0000
  H   H771      1.0  0.32186  0.40798  0.02523  1.0000
  C   C492      1.0  0.62819  0.12474  0.23735  1.0000
  S   S203      1.0  0.53268  0.49243  0.23638  1.0000
  H   H772      1.0  0.61953  0.46880  0.23699  1.0000
  C   C493      1.0  0.63400  0.48781  0.23661  1.0000
  H   H773      1.0  0.33479  0.13965  0.33438  1.0000
  Fe  Fe106     1.0  0.51693  0.47128  0.25600  1.0000
  S   S204      1.0  0.54081  0.45246  0.25527  1.0000
  H   H774      1.0  0.32681  0.09833  0.35535  1.0000
  C   C494      1.0  0.47950  0.15408  0.23941  1.0000
  H   H775      1.0  0.38099  0.44248  0.36944  1.0000
  H   H776      1.0  0.48628  0.28988  0.24028  1.0000
  C   C495      1.0  0.48055  0.99427  0.28585  1.0000
  Fe  Fe107     1.0  0.52362  0.04695  0.25915  1.0000
  S   S205      1.0  0.53386  0.08722  0.25621  1.0000
  S   S206      1.0  0.52753  0.03286  0.28102  1.0000
  H   H777      1.0  0.32616  0.32915  0.39625  1.0000
  S   S207      1.0  0.48535  0.43988  0.24370  1.0000
  C   C496      1.0  0.48592  0.27617  0.24800  1.0000
  H   H778      1.0  0.47072  0.33643  0.26500  1.0000
  H   H779      1.0  0.62793  0.13295  0.26608  1.0000
  C   C497      1.0  0.63798  0.99735  0.36929  1.0000
  Fe  Fe108     1.0  0.37691  0.19134  0.25893  1.0000
  S   S208      1.0  0.41801  0.21531  0.25632  1.0000
  S   S209      1.0  0.36185  0.19148  0.28108  1.0000
  S   S210      1.0  0.39528  0.48857  0.38702  1.0000
  H   H780      1.0  0.47417  0.99979  0.27645  1.0000
  H   H781      1.0  0.60105  0.07685  0.27323  1.0000
  H   H782      1.0  0.63569  0.14384  0.28431  1.0000
  H   H783      1.0  0.59407  0.14164  0.28469  1.0000
  H   H784      1.0  0.44419  0.29227  0.25693  1.0000
  Fe  Fe109     1.0  0.50252  0.07327  0.23964  1.0000
  C   C498      1.0  0.47158  0.47831  0.28454  1.0000
  H   H785      1.0  0.41763  0.12357  0.24367  1.0000
  H   H786      1.0  0.57104  0.07492  0.27403  1.0000
  H   H787      1.0  0.35172  0.39825  0.37345  1.0000
  H   H788      1.0  0.34601  0.33282  0.36644  1.0000
  C   C499      1.0  0.59998  0.10415  0.29591  1.0000
  S   S211      1.0  0.49089  0.03281  0.24378  1.0000
  H   H789      1.0  0.49454  0.17263  0.23847  1.0000
  H   H790      1.0  0.42613  0.08744  0.24251  1.0000
  H   H791      1.0  0.65292  0.99499  0.39598  1.0000
  N   N49       1.0  0.60099  0.11053  0.28079  1.0000
  H   H792      1.0  0.64379  0.01761  0.36948  1.0000
  C   C500      1.0  0.32823  0.09528  0.34373  1.0000
  C   C501      1.0  0.47528  0.35084  0.24394  1.0000
  S   S212      1.0  0.54925  0.04669  0.24246  1.0000
  H   H793      1.0  0.46574  0.46819  0.27433  1.0000
  S   S213      1.0  0.49496  0.38226  0.25043  1.0000
  C   C502      1.0  0.50536  0.00758  0.29053  1.0000
  C   C503      1.0  0.32370  0.31193  0.39037  1.0000
  H   H794      1.0  0.60716  0.12105  0.30317  1.0000
  H   H795      1.0  0.59098  0.09141  0.26022  1.0000
  Fe  Fe110     1.0  0.55771  0.08598  0.23849  1.0000
  C   C504      1.0  0.51303  0.00046  0.30305  1.0000
  C   C505      1.0  0.45388  0.47818  0.29389  1.0000
  H   H796      1.0  0.62051  0.08806  0.24334  1.0000
  C   C506      1.0  0.49120  0.23985  0.25166  1.0000
  C   C507      1.0  0.46613  0.33175  0.25376  1.0000
  H   H797      1.0  0.46708  0.26715  0.25229  1.0000
  H   H798      1.0  0.58604  0.12805  0.26689  1.0000
  C   C508      1.0  0.62686  0.12675  0.27719  1.0000
  H   H799      1.0  0.50473  0.24941  0.26073  1.0000
  C   C509      1.0  0.37369  0.45645  0.38903  1.0000
  C   C510      1.0  0.35976  0.44958  0.40137  1.0000
  C   C511      1.0  0.34288  0.42443  0.40364  1.0000
  C   C512      1.0  0.33984  0.40561  0.39364  1.0000
  C   C513      1.0  0.35379  0.41248  0.38130  1.0000
  C   C514      1.0  0.37047  0.43765  0.37897  1.0000
  H   H800      1.0  0.36198  0.46384  0.40926  1.0000
  C   C515      1.0  0.45536  0.15073  0.24099  1.0000
  C   C516      1.0  0.58635  0.12372  0.27834  1.0000
  H   H801      1.0  0.33180  0.10874  0.31626  1.0000
  C   C517      1.0  0.63478  0.10661  0.24140  1.0000
  C   C518      1.0  0.43621  0.12653  0.24220  1.0000
  H   H802      1.0  0.58064  0.09148  0.29878  1.0000
  C   C519      1.0  0.45113  0.30655  0.24919  1.0000
  N   N50       1.0  0.46134  0.40216  0.28224  1.0000
  C   C520      1.0  0.48622  0.42288  0.28017  1.0000
  C   C521      1.0  0.44928  0.40966  0.29342  1.0000
  C   C522      1.0  0.46356  0.38017  0.28662  1.0000
  C   C523      1.0  0.44638  0.39598  0.26872  1.0000
  H   H803      1.0  0.49610  0.41767  0.27206  1.0000
  H   H804      1.0  0.49788  0.42862  0.29022  1.0000
  H   H805      1.0  0.48524  0.43954  0.27645  1.0000
  H   H806      1.0  0.43051  0.39443  0.29535  1.0000
  H   H807      1.0  0.46025  0.41481  0.30372  1.0000
  H   H808      1.0  0.44725  0.42615  0.29037  1.0000
  H   H809      1.0  0.44514  0.36403  0.28815  1.0000
  H   H810      1.0  0.47478  0.38415  0.29676  1.0000
  H   H811      1.0  0.47272  0.37423  0.27838  1.0000
  H   H812      1.0  0.45502  0.39034  0.26003  1.0000
  H   H813      1.0  0.44438  0.41218  0.26505  1.0000
  H   H814      1.0  0.42753  0.38029  0.26984  1.0000
  H   H815      1.0  0.56685  0.11231  0.28130  1.0000
  S   S214      1.0  0.37604  0.15859  0.24669  1.0000
  H   H816      1.0  0.47260  0.22962  0.25615  1.0000
  H   H817      1.0  0.33226  0.06611  0.48123  1.0000
  C   C524      1.0  0.59061  0.08742  0.27169  1.0000
  Fe  Fe111     1.0  0.50982  0.42174  0.24175  1.0000
  H   H818      1.0  0.61108  0.09443  0.29815  1.0000
  H   H819      1.0  0.33934  0.19513  0.30688  1.0000
  H   H820      1.0  0.34764  0.10768  0.34095  1.0000
  H   H821      1.0  0.53212  0.01066  0.30684  1.0000
  H   H822      1.0  0.63822  0.11695  0.27800  1.0000
  H   H823      1.0  0.43445  0.46774  0.29082  1.0000
  H   H824      1.0  0.33242  0.41962  0.41319  1.0000
  H   H825      1.0  0.49548  0.22550  0.24678  1.0000
  H   H826      1.0  0.32467  0.07571  0.34197  1.0000
  H   H827      1.0  0.49926  0.28672  0.25699  1.0000
  Fe  Fe112     1.0  0.41607  0.18348  0.24243  1.0000
  C   C525      1.0  0.44112  0.10605  0.24160  1.0000
  H   H828      1.0  0.50311  0.13658  0.23777  1.0000
  S   S215      1.0  0.47004  0.08253  0.23904  1.0000
  H   H829      1.0  0.34227  0.31311  0.38969  1.0000
  S   S216      1.0  0.45023  0.17733  0.24092  1.0000
  C   C526      1.0  0.46109  0.49156  0.30713  1.0000
  H   H830      1.0  0.32248  0.14133  0.27230  1.0000
  C   C527      1.0  0.46528  0.10937  0.24005  1.0000
  S   S217      1.0  0.36619  0.20666  0.23988  1.0000
  C   C528      1.0  0.33366  0.17031  0.28872  1.0000
  C   C529      1.0  0.48447  0.13362  0.23902  1.0000
  C   C530      1.0  0.32732  0.17706  0.30185  1.0000
  S   S218      1.0  0.43793  0.49073  0.31841  1.0000
  C   C531      1.0  0.32728  0.33098  0.36776  1.0000
  N   N51       1.0  0.49177  0.25760  0.24108  1.0000
  C   C532      1.0  0.49674  0.49165  0.28842  1.0000
  H   H831      1.0  0.53101  0.28083  0.24373  1.0000
  H   H832      1.0  0.32977  0.34858  0.37314  1.0000
  H   H833      1.0  0.32716  0.28664  0.36738  1.0000
  S   S219      1.0  0.51993  0.49189  0.27735  1.0000
  N   N52       1.0  0.49780  0.47167  0.73231  1.0000
  S   S220      1.0  0.34160  0.05843  0.54697  1.0000
  H   H834      1.0  0.53599  0.48053  0.73486  1.0000
  H   H835      1.0  0.40115  0.16631  0.56607  1.0000
  Fe  Fe113     1.0  0.33751  0.04496  0.56921  1.0000
  S   S221      1.0  0.36924  0.05939  0.58640  1.0000
  H   H836      1.0  0.34194  0.08654  0.51979  1.0000
  Fe  Fe114     1.0  0.34562  0.29162  0.55982  1.0000
  S   S222      1.0  0.38654  0.32155  0.56092  1.0000
  S   S223      1.0  0.33712  0.25992  0.54382  1.0000
  Fe  Fe115     1.0  0.55017  0.47202  0.61164  1.0000
  S   S224      1.0  0.56264  0.46653  0.63342  1.0000
  Fe  Fe116     1.0  0.49623  0.42998  0.61538  1.0000
  S   S225      1.0  0.50606  0.42303  0.63752  1.0000
  S   S226      1.0  0.45515  0.40410  0.60911  1.0000
  Fe  Fe117     1.0  0.52692  0.46456  0.64088  1.0000
  C   C533      1.0  0.59683  0.35783  0.68914  1.0000
  Fe  Fe118     1.0  0.54054  0.42543  0.62832  1.0000
  S   S227      1.0  0.54909  0.39279  0.62996  1.0000
  S   S228      1.0  0.51538  0.47198  0.61926  1.0000
  S   S229      1.0  0.52983  0.43058  0.60607  1.0000
  C   C534      1.0  0.37645  0.43132  0.69467  1.0000
  H   H837      1.0  0.58944  0.43892  0.61994  1.0000
  C   C535      1.0  0.36256  0.32783  0.50040  1.0000
  S   S230      1.0  0.61532  0.26382  0.63713  1.0000
  S   S231      1.0  0.61912  0.31299  0.66877  1.0000
  Fe  Fe119     1.0  0.50672  0.07700  0.61025  1.0000
  S   S232      1.0  0.50583  0.08999  0.63272  1.0000
  S   S233      1.0  0.47778  0.06869  0.59202  1.0000
  Fe  Fe120     1.0  0.55144  0.06810  0.61728  1.0000
  S   S234      1.0  0.55275  0.07986  0.64044  1.0000
  S   S235      1.0  0.57421  0.04889  0.61008  1.0000
  Fe  Fe121     1.0  0.51144  0.05778  0.63958  1.0000
  S   S236      1.0  0.48502  0.03560  0.65680  1.0000
  Fe  Fe122     1.0  0.54734  0.11161  0.63230  1.0000
  S   S237      1.0  0.56794  0.14691  0.64681  1.0000
  S   S238      1.0  0.51009  0.04359  0.61708  1.0000
  S   S239      1.0  0.54830  0.10104  0.60904  1.0000
  N   N53       1.0  0.37057  0.32875  0.51549  1.0000
  Fe  Fe123     1.0  0.63558  0.29669  0.65324  1.0000
  C   C536      1.0  0.48678  0.01574  0.66986  1.0000
  H   H838      1.0  0.62065  0.48567  0.59290  1.0000
  H   H839      1.0  0.35732  0.08632  0.50376  1.0000
  C   C537      1.0  0.60178  0.23137  0.64012  1.0000
  C   C538      1.0  0.59032  0.21413  0.62854  1.0000
  C   C539      1.0  0.57986  0.18826  0.63033  1.0000
  C   C540      1.0  0.58080  0.17929  0.64376  1.0000
  C   C541      1.0  0.59239  0.19656  0.65532  1.0000
  C   C542      1.0  0.60281  0.22241  0.65353  1.0000
  H   H840      1.0  0.58946  0.22082  0.61810  1.0000
  H   H841      1.0  0.57107  0.17529  0.62133  1.0000
  H   H842      1.0  0.59328  0.18991  0.66576  1.0000
  H   H843      1.0  0.61158  0.23538  0.66255  1.0000
  H   H844      1.0  0.35480  0.12752  0.59155  1.0000
  C   C543      1.0  0.48136  0.46558  0.67099  1.0000
  C   C544      1.0  0.46319  0.46468  0.68024  1.0000
  H   H845      1.0  0.47683  0.45088  0.66292  1.0000
  H   H846      1.0  0.44475  0.44917  0.67917  1.0000
  C   C545      1.0  0.57417  0.39081  0.63865  1.0000
  C   C546      1.0  0.59282  0.41083  0.64665  1.0000
  C   C547      1.0  0.61231  0.40826  0.65333  1.0000
  C   C548      1.0  0.61342  0.38571  0.65211  1.0000
  C   C549      1.0  0.59476  0.36571  0.64413  1.0000
  C   C550      1.0  0.57529  0.36829  0.63744  1.0000
  H   H847      1.0  0.59212  0.42819  0.64780  1.0000
  H   H848      1.0  0.62659  0.42381  0.65954  1.0000
  H   H849      1.0  0.59535  0.34828  0.64307  1.0000
  H   H850      1.0  0.56102  0.35268  0.63126  1.0000
  H   H851      1.0  0.44012  0.03246  0.63912  1.0000
  C   C551      1.0  0.35703  0.11698  0.58233  1.0000
  C   C552      1.0  0.61087  0.04032  0.59885  1.0000
  C   C553      1.0  0.60174  0.05754  0.60052  1.0000
  C   C554      1.0  0.61452  0.08069  0.59444  1.0000
  H   H852      1.0  0.62984  0.02397  0.56145  1.0000
  H   H853      1.0  0.36788  0.11294  0.55516  1.0000
  H   H854      1.0  0.60123  0.02237  0.60351  1.0000
  H   H855      1.0  0.60782  0.09417  0.59559  1.0000
  C   C555      1.0  0.43649  0.38173  0.59533  1.0000
  C   C556      1.0  0.41110  0.36685  0.59738  1.0000
  C   C557      1.0  0.39560  0.34828  0.58710  1.0000
  C   C558      1.0  0.40524  0.34439  0.57449  1.0000
  C   C559      1.0  0.43064  0.35925  0.57242  1.0000
  C   C560      1.0  0.44617  0.37774  0.58274  1.0000
  H   H856      1.0  0.40331  0.36972  0.60703  1.0000
  H   H857      1.0  0.37614  0.33718  0.58887  1.0000
  H   H858      1.0  0.43835  0.35658  0.56270  1.0000
  H   H859      1.0  0.46553  0.38915  0.58084  1.0000
  H   H860      1.0  0.39886  0.45798  0.71865  1.0000
  C   C561      1.0  0.39944  0.06193  0.58759  1.0000
  C   C562      1.0  0.40919  0.05398  0.57647  1.0000
  C   C563      1.0  0.43323  0.05646  0.57800  1.0000
  C   C564      1.0  0.44788  0.06687  0.59062  1.0000
  C   C565      1.0  0.43821  0.07502  0.60169  1.0000
  C   C566      1.0  0.41416  0.07250  0.60019  1.0000
  H   H861      1.0  0.39822  0.04585  0.56671  1.0000
  H   H862      1.0  0.44049  0.05016  0.56932  1.0000
  H   H863      1.0  0.44933  0.08344  0.61138  1.0000
  H   H864      1.0  0.40691  0.07884  0.60885  1.0000
  H   H865      1.0  0.47761  0.45534  0.71244  1.0000
  H   H866      1.0  0.45653  0.01821  0.60374  1.0000
  H   H867      1.0  0.39492  0.36814  0.51632  1.0000
  Fe  Fe124     1.0  0.64971  0.31741  0.68428  1.0000
  C   C567      1.0  0.44175  0.03234  0.62734  1.0000
  C   C568      1.0  0.46756  0.00500  0.67940  1.0000
  H   H868      1.0  0.61551  0.39117  0.71137  1.0000
  C   C569      1.0  0.40118  0.13581  0.58641  1.0000
  C   C570      1.0  0.37172  0.30563  0.51849  1.0000
  H   H869      1.0  0.49454  0.36963  0.63230  1.0000
  H   H870      1.0  0.39698  0.44054  0.69435  1.0000
  S   S240      1.0  0.32223  0.26536  0.57610  1.0000
  H   H871      1.0  0.51015  0.37596  0.60760  1.0000
  C   C571      1.0  0.38327  0.15507  0.57112  1.0000
  H   H872      1.0  0.34424  0.31135  0.49792  1.0000
  N   N54       1.0  0.36814  0.44612  0.70360  1.0000
  H   H873      1.0  0.60631  0.37741  0.68577  1.0000
  H   H874      1.0  0.35848  0.33236  0.53629  1.0000
  H   H875      1.0  0.33395  0.44382  0.71037  1.0000
  H   H876      1.0  0.57686  0.35218  0.68985  1.0000
  H   H877      1.0  0.42749  0.01745  0.59994  1.0000
  H   H878      1.0  0.43199  0.04212  0.62280  1.0000
  Fe  Fe125     1.0  0.64643  0.35046  0.66150  1.0000
  H   H879      1.0  0.38094  0.09850  0.56653  1.0000
  N   N55       1.0  0.43174  0.00678  0.62106  1.0000
  H   H880      1.0  0.44978  0.32245  0.59720  1.0000
  H   H881      1.0  0.59745  0.00978  0.55658  1.0000
  H   H882      1.0  0.46726  0.37097  0.62617  1.0000
  H   H883      1.0  0.37288  0.46035  0.72534  1.0000
  H   H884      1.0  0.59554  0.43155  0.60236  1.0000
  N   N56       1.0  0.62290  0.46697  0.61153  1.0000
  H   H885      1.0  0.62688  0.01492  0.52180  1.0000
  C   C572      1.0  0.64519  0.06923  0.58522  1.0000
  H   H886      1.0  0.40157  0.35140  0.52973  1.0000
  H   H887      1.0  0.60640  0.04177  0.52221  1.0000
  H   H888      1.0  0.37745  0.30561  0.52985  1.0000
  H   H889      1.0  0.40926  0.34927  0.51157  1.0000
  H   H890      1.0  0.47671  0.31502  0.62364  1.0000
  H   H891      1.0  0.35338  0.28895  0.51644  1.0000
  C   C573      1.0  0.62204  0.01113  0.53314  1.0000
  H   H892      1.0  0.45202  0.00875  0.67855  1.0000
  C   C574      1.0  0.38275  0.11675  0.56338  1.0000
  C   C575      1.0  0.37833  0.44882  0.71835  1.0000
  H   H893      1.0  0.61419  0.04239  0.56147  1.0000
  C   C576      1.0  0.59710  0.44703  0.60961  1.0000
  H   H894      1.0  0.46453  0.34448  0.63540  1.0000
  H   H895      1.0  0.63179  0.44818  0.62793  1.0000
  H   H896      1.0  0.36961  0.46978  0.68666  1.0000
  C   C577      1.0  0.49052  0.36516  0.60372  1.0000
  C   C578      1.0  0.47552  0.35827  0.62753  1.0000
  C   C579      1.0  0.63244  0.04609  0.59131  1.0000
  H   H897      1.0  0.59561  0.31610  0.69848  1.0000
  H   H898      1.0  0.48793  0.32029  0.60587  1.0000
  C   C580      1.0  0.35269  0.33108  0.52482  1.0000
  H   H899      1.0  0.58497  0.45418  0.60493  1.0000
  H   H900      1.0  0.35499  0.09909  0.58631  1.0000
  H   H901      1.0  0.60159  0.05355  0.53896  1.0000
  H   H902      1.0  0.63919  0.03264  0.59024  1.0000
  H   H903      1.0  0.49022  0.35681  0.59298  1.0000
  H   H904      1.0  0.50977  0.46406  0.71224  1.0000
  C   C581      1.0  0.37700  0.47102  0.69776  1.0000
  H   H905      1.0  0.40039  0.14644  0.59604  1.0000
  C   C582      1.0  0.61539  0.02683  0.55565  1.0000
  H   H906      1.0  0.59873  0.34627  0.68035  1.0000
  C   C583      1.0  0.49340  0.45626  0.71903  1.0000
  H   H907      1.0  0.41966  0.14648  0.58188  1.0000
  H   H908      1.0  0.36820  0.15195  0.56314  1.0000
  C   C584      1.0  0.64579  0.05473  0.54005  1.0000
  C   C585      1.0  0.63602  0.08642  0.58684  1.0000
  H   H909      1.0  0.34146  0.11254  0.57449  1.0000
  H   H910      1.0  0.64565  0.10438  0.58219  1.0000
  H   H911      1.0  0.63122  0.46315  0.58976  1.0000
  H   H912      1.0  0.61729  0.47952  0.63210  1.0000
  C   C586      1.0  0.39520  0.35037  0.51837  1.0000
  H   H913      1.0  0.48333  0.37869  0.60237  1.0000
  C   C587      1.0  0.48721  0.32966  0.61605  1.0000
  N   N57       1.0  0.62140  0.03251  0.54060  1.0000
  H   H914      1.0  0.37135  0.48283  0.70433  1.0000
  C   C588      1.0  0.45029  0.33120  0.60785  1.0000
  N   N58       1.0  0.54297  0.10263  0.68196  1.0000
  C   C589      1.0  0.52678  0.10612  0.67138  1.0000
  C   C590      1.0  0.56901  0.11737  0.67817  1.0000
  C   C591      1.0  0.53643  0.07599  0.68200  1.0000
  C   C592      1.0  0.53959  0.11107  0.69625  1.0000
  H   H915      1.0  0.50691  0.09487  0.67364  1.0000
  H   H916      1.0  0.52927  0.10033  0.66050  1.0000
  H   H917      1.0  0.53112  0.12601  0.67098  1.0000
  H   H918      1.0  0.58187  0.11539  0.68594  1.0000
  H   H919      1.0  0.57221  0.11151  0.66742  1.0000
  H   H920      1.0  0.57439  0.13753  0.67774  1.0000
  H   H921      1.0  0.54834  0.07253  0.68976  1.0000
  H   H922      1.0  0.53843  0.06895  0.67130  1.0000
  H   H923      1.0  0.51687  0.06433  0.68480  1.0000
  H   H924      1.0  0.55150  0.10865  0.70453  1.0000
  H   H925      1.0  0.52010  0.10038  0.69939  1.0000
  H   H926      1.0  0.54441  0.13113  0.69654  1.0000
  N   N59       1.0  0.60765  0.35506  0.70279  1.0000
  C   C593      1.0  0.33692  0.48023  0.73058  1.0000
  H   H927      1.0  0.60274  0.32596  0.71687  1.0000
  H   H928      1.0  0.64437  0.38144  0.69719  1.0000
  H   H929      1.0  0.33355  0.41445  0.70791  1.0000
  H   H930      1.0  0.33472  0.10541  0.49111  1.0000
  H   H931      1.0  0.37030  0.41248  0.69881  1.0000
  H   H932      1.0  0.33058  0.15450  0.53169  1.0000
  H   H933      1.0  0.65011  0.24167  0.63048  1.0000
  H   H934      1.0  0.34039  0.05806  0.51285  1.0000
  C   C594      1.0  0.63424  0.30395  0.73552  1.0000
  C   C595      1.0  0.63399  0.36231  0.70113  1.0000
  H   H935      1.0  0.33247  0.43118  0.69268  1.0000
  H   H936      1.0  0.63800  0.44151  0.61023  1.0000
  C   C596      1.0  0.43641  0.00779  0.60566  1.0000
  H   H937      1.0  0.65122  0.05946  0.52888  1.0000
  C   C597      1.0  0.46870  0.48366  0.69077  1.0000
  H   H938      1.0  0.44109  0.34302  0.60646  1.0000
  N   N60       1.0  0.47586  0.34604  0.61378  1.0000
  H   H939      1.0  0.43881  0.31620  0.61500  1.0000
  H   H940      1.0  0.63608  0.34950  0.69334  1.0000
  H   H941      1.0  0.50653  0.34048  0.62057  1.0000
  H   H942      1.0  0.33407  0.31471  0.52319  1.0000
  H   H943      1.0  0.40075  0.12679  0.55824  1.0000
  C   C598      1.0  0.59449  0.32885  0.70684  1.0000
  C   C599      1.0  0.63200  0.47756  0.59759  1.0000
  H   H944      1.0  0.39989  0.11795  0.59002  1.0000
  S   S241      1.0  0.44539  0.48092  0.70261  1.0000
  N   N61       1.0  0.38110  0.13120  0.57582  1.0000
  H   H945      1.0  0.38194  0.16643  0.58022  1.0000
  H   H946      1.0  0.61334  0.36940  0.72448  1.0000
  H   H947      1.0  0.58375  0.02108  0.53390  1.0000
  C   C600      1.0  0.60242  0.03743  0.53359  1.0000
  C   C601      1.0  0.60544  0.37125  0.71404  1.0000
  C   C602      1.0  0.44392  0.99389  0.62824  1.0000
  S   S242      1.0  0.63564  0.30376  0.70630  1.0000
  C   C603      1.0  0.34086  0.43334  0.70361  1.0000
  H   H948      1.0  0.57462  0.32272  0.70846  1.0000
  C   C604      1.0  0.64747  0.31661  0.72375  1.0000
  H   H949      1.0  0.39754  0.48105  0.69752  1.0000
  H   H950      1.0  0.37170  0.43048  0.72325  1.0000
  H   H951      1.0  0.46427  0.00389  0.62713  1.0000
  H   H952      1.0  0.36066  0.34459  0.49784  1.0000
  H   H953      1.0  0.52167  0.01878  0.66390  1.0000
  H   H954      1.0  0.38509  0.30321  0.51170  1.0000
  C   C605      1.0  0.50677  0.01076  0.67116  1.0000
  S   S243      1.0  0.52948  0.48680  0.66154  1.0000
  H   H955      1.0  0.48909  0.43686  0.72131  1.0000
  H   H956      1.0  0.58581  0.36645  0.71552  1.0000
  C   C606      1.0  0.62400  0.48678  0.62146  1.0000
  H   H957      1.0  0.36910  0.42893  0.68345  1.0000
  C   C607      1.0  0.50540  0.48534  0.67230  1.0000
  S   S244      1.0  0.63822  0.38347  0.66097  1.0000
  C   C608      1.0  0.63840  0.45650  0.61746  1.0000
  H   H958      1.0  0.46164  0.04356  0.62520  1.0000
  H   H959      1.0  0.35072  0.34793  0.52264  1.0000
  H   H960      1.0  0.60398  0.99398  0.53331  1.0000
  H   H961      1.0  0.37582  0.32651  0.49302  1.0000
  C   C609      1.0  0.32312  0.15344  0.54211  1.0000
  H   H962      1.0  0.45912  0.45963  0.73443  1.0000
  H   H963      1.0  0.63622  0.00694  0.53813  1.0000
  H   H964      1.0  0.61748  0.28652  0.73376  1.0000
  H   H965      1.0  0.39513  0.00240  0.61764  1.0000
  H   H966      1.0  0.32514  0.18989  0.54145  1.0000
  H   H967      1.0  0.64310  0.36144  0.71134  1.0000
  C   C610      1.0  0.34041  0.07561  0.50976  1.0000
  C   C611      1.0  0.40485  0.99319  0.62303  1.0000
  H   H968      1.0  0.64612  0.07124  0.54568  1.0000
  C   C612      1.0  0.50743  0.99521  0.68185  1.0000
  S   S245      1.0  0.32114  0.10732  0.54247  1.0000
  H   H969      1.0  0.65139  0.49275  0.59860  1.0000
  H   H970      1.0  0.35099  0.49265  0.72379  1.0000
  S   S246      1.0  0.34023  0.06703  0.93627  1.0000
  H   H971      1.0  0.45008  0.46459  0.80170  1.0000
  Fe  Fe126     1.0  0.34591  0.05364  0.91478  1.0000
  S   S247      1.0  0.38668  0.07451  0.90834  1.0000
  H   H972      1.0  0.62876  0.04981  0.93917  1.0000
  Fe  Fe127     1.0  0.34631  0.29999  0.91695  1.0000
  H   H973      1.0  0.47075  0.44204  0.74409  1.0000
  S   S248      1.0  0.38537  0.33308  0.91562  1.0000
  H   H974      1.0  0.54799  0.22250  0.83324  1.0000
  S   S249      1.0  0.34025  0.27100  0.93316  1.0000
  Fe  Fe128     1.0  0.49815  0.07158  0.86109  1.0000
  S   S250      1.0  0.50872  0.09014  0.84000  1.0000
  S   S251      1.0  0.45856  0.05137  0.86910  1.0000
  Fe  Fe129     1.0  0.55123  0.07858  0.86764  1.0000
  S   S252      1.0  0.56464  0.09686  0.84692  1.0000
  S   S253      1.0  0.57659  0.08035  0.88661  1.0000
  Fe  Fe130     1.0  0.54420  0.11846  0.85148  1.0000
  S   S254      1.0  0.56364  0.16119  0.85371  1.0000
  Fe  Fe131     1.0  0.52843  0.06709  0.83689  1.0000
  S   S255      1.0  0.53138  0.04927  0.81570  1.0000
  S   S256      1.0  0.53191  0.10129  0.87273  1.0000
  S   S257      1.0  0.51647  0.04722  0.85741  1.0000
  Fe  Fe132     1.0  0.51041  0.45581  0.83740  1.0000
  S   S258      1.0  0.50034  0.45605  0.86037  1.0000
  C   C613      1.0  0.47537  0.46104  0.74073  1.0000
  Fe  Fe133     1.0  0.54637  0.43501  0.84524  1.0000
  S   S259      1.0  0.53699  0.43269  0.86835  1.0000
  S   S260      1.0  0.57972  0.43045  0.83847  1.0000
  Fe  Fe134     1.0  0.49708  0.41773  0.86083  1.0000
  S   S261      1.0  0.46067  0.38287  0.86553  1.0000
  Fe  Fe135     1.0  0.54110  0.47129  0.86600  1.0000
  S   S262      1.0  0.50645  0.41718  0.83770  1.0000
  S   S263      1.0  0.55131  0.47400  0.84305  1.0000
  H   H975      1.0  0.58805  0.46732  0.88164  1.0000
  S   S264      1.0  0.62243  0.30546  0.79722  1.0000
  S   S265      1.0  0.62509  0.24803  0.81148  1.0000
  Fe  Fe136     1.0  0.62708  0.33249  0.81544  1.0000
  S   S266      1.0  0.59197  0.33445  0.82133  1.0000
  H   H976      1.0  0.45869  0.41702  0.84228  1.0000
  H   H977      1.0  0.64966  0.03830  0.94436  1.0000
  C   C614      1.0  0.62327  0.16100  0.85534  1.0000
  N   N62       1.0  0.49199  0.04961  0.90703  1.0000
  H   H978      1.0  0.59694  0.26732  0.82543  1.0000
  H   H979      1.0  0.58040  0.26324  0.84148  1.0000
  H   H980      1.0  0.43949  0.41014  0.82647  1.0000
  H   H981      1.0  0.60237  0.47982  0.85022  1.0000
  H   H982      1.0  0.41692  0.39333  0.86309  1.0000
  C   C615      1.0  0.64703  0.17209  0.87767  1.0000
  H   H983      1.0  0.44411  0.42267  0.86556  1.0000
  C   C616      1.0  0.58255  0.40337  0.83383  1.0000
  C   C617      1.0  0.56246  0.37943  0.83352  1.0000
  C   C618      1.0  0.56571  0.35860  0.82969  1.0000
  C   C619      1.0  0.58902  0.36139  0.82617  1.0000
  C   C620      1.0  0.60912  0.38533  0.82654  1.0000
  C   C621      1.0  0.60586  0.40615  0.83033  1.0000
  H   H984      1.0  0.54443  0.37696  0.83616  1.0000
  H   H985      1.0  0.55001  0.34020  0.82943  1.0000
  H   H986      1.0  0.62714  0.38781  0.82385  1.0000
  H   H987      1.0  0.62153  0.42456  0.83048  1.0000
  C   C622      1.0  0.50802  0.02529  0.80450  1.0000
  H   H988      1.0  0.64472  0.13282  0.86242  1.0000
  C   C623      1.0  0.34362  0.47673  0.74435  1.0000
  H   H989      1.0  0.64543  0.07603  0.91232  1.0000
  H   H990      1.0  0.64456  0.04169  0.92587  1.0000
  C   C624      1.0  0.58095  0.18491  0.84179  1.0000
  C   C625      1.0  0.58400  0.17962  0.82761  1.0000
  C   C626      1.0  0.59782  0.19916  0.81861  1.0000
  C   C627      1.0  0.60884  0.22422  0.82361  1.0000
  C   C628      1.0  0.60611  0.22946  0.83787  1.0000
  C   C629      1.0  0.59215  0.20995  0.84685  1.0000
  H   H991      1.0  0.57559  0.16051  0.82353  1.0000
  H   H992      1.0  0.59985  0.19481  0.80762  1.0000
  H   H993      1.0  0.61492  0.24853  0.84203  1.0000
  H   H994      1.0  0.59013  0.21429  0.85783  1.0000
  C   C630      1.0  0.63405  0.05190  0.89341  1.0000
  C   C631      1.0  0.61770  0.04370  0.88132  1.0000
  C   C632      1.0  0.60041  0.05254  0.87888  1.0000
  C   C633      1.0  0.59889  0.06944  0.88867  1.0000
  C   C634      1.0  0.61524  0.07769  0.90077  1.0000
  C   C635      1.0  0.63284  0.06920  0.90307  1.0000
  H   H995      1.0  0.58804  0.04593  0.86953  1.0000
  H   H996      1.0  0.61437  0.09084  0.90842  1.0000
  H   H997      1.0  0.32962  0.45832  0.76388  1.0000
  H   H998      1.0  0.53224  0.21812  0.81614  1.0000
  C   C636      1.0  0.40555  0.34723  0.90138  1.0000
  C   C637      1.0  0.39963  0.33785  0.88724  1.0000
  C   C638      1.0  0.41678  0.34894  0.87653  1.0000
  C   C639      1.0  0.43992  0.36988  0.87966  1.0000
  C   C640      1.0  0.44564  0.37958  0.89375  1.0000
  C   C641      1.0  0.42865  0.36820  0.90451  1.0000
  H   H999      1.0  0.38189  0.32196  0.88455  1.0000
  H   H1000     1.0  0.41203  0.34126  0.86569  1.0000
  H   H1001     1.0  0.46326  0.39566  0.89639  1.0000
  H   H1002     1.0  0.43349  0.37575  0.91538  1.0000
  C   C642      1.0  0.40599  0.06772  0.89702  1.0000
  C   C643      1.0  0.39834  0.04423  0.89043  1.0000
  C   C644      1.0  0.41456  0.03978  0.88181  1.0000
  C   C645      1.0  0.43859  0.05873  0.87951  1.0000
  C   C646      1.0  0.44621  0.08228  0.88604  1.0000
  C   C647      1.0  0.43007  0.08667  0.89477  1.0000
  H   H1003     1.0  0.37995  0.02942  0.89203  1.0000
  H   H1004     1.0  0.40837  0.02146  0.87686  1.0000
  H   H1005     1.0  0.46450  0.09715  0.88435  1.0000
  H   H1006     1.0  0.43626  0.10493  0.89976  1.0000
  H   H1007     1.0  0.62123  0.17822  0.85602  1.0000
  H   H1008     1.0  0.53316  0.02976  0.78787  1.0000
  H   H1009     1.0  0.63233  0.30346  0.75852  1.0000
  H   H1010     1.0  0.46043  0.01408  0.90993  1.0000
  H   H1011     1.0  0.50065  0.03026  0.92315  1.0000
  N   N63       1.0  0.62171  0.48458  0.87040  1.0000
  C   C648      1.0  0.53966  0.26173  0.82826  1.0000
  N   N64       1.0  0.40303  0.27378  0.91218  1.0000
  C   C649      1.0  0.39001  0.25097  0.92021  1.0000
  C   C650      1.0  0.41363  0.29582  0.92218  1.0000
  C   C651      1.0  0.38537  0.27572  0.90200  1.0000
  C   C652      1.0  0.42300  0.27267  0.90425  1.0000
  H   H1012     1.0  0.38173  0.23399  0.91297  1.0000
  H   H1013     1.0  0.37443  0.25102  0.92602  1.0000
  H   H1014     1.0  0.40256  0.24901  0.92821  1.0000
  H   H1015     1.0  0.42286  0.31342  0.91641  1.0000
  H   H1016     1.0  0.39903  0.29708  0.92845  1.0000
  H   H1017     1.0  0.42742  0.29537  0.92990  1.0000
  H   H1018     1.0  0.37126  0.27852  0.90774  1.0000
  H   H1019     1.0  0.37539  0.25861  0.89496  1.0000
  H   H1020     1.0  0.39471  0.29186  0.89514  1.0000
  H   H1021     1.0  0.43323  0.28979  0.89819  1.0000
  H   H1022     1.0  0.41550  0.25650  0.89642  1.0000
  H   H1023     1.0  0.43661  0.27099  0.91157  1.0000
  S   S267      1.0  0.37500  0.49148  0.75117  1.0000
  S   S268      1.0  0.64431  0.31639  0.83064  1.0000
  S   S269      1.0  0.32664  0.21199  0.90771  1.0000
  H   H1024     1.0  0.52466  0.06120  0.92050  1.0000
  H   H1025     1.0  0.32807  0.31148  0.97237  1.0000
  H   H1026     1.0  0.60908  0.45510  0.88514  1.0000
  H   H1027     1.0  0.49758  0.05662  0.92972  1.0000
  C   C653      1.0  0.50426  0.04941  0.92073  1.0000
  H   H1028     1.0  0.61850  0.00436  0.95724  1.0000
  H   H1029     1.0  0.63977  0.16500  0.84907  1.0000
  H   H1030     1.0  0.64552  0.18954  0.87893  1.0000
  H   H1031     1.0  0.60367  0.01420  0.91384  1.0000
  H   H1032     1.0  0.59993  0.16376  0.87857  1.0000
  H   H1033     1.0  0.52161  0.25182  0.82220  1.0000
  H   H1034     1.0  0.48934  0.08279  0.91256  1.0000
  H   H1035     1.0  0.53666  0.25624  0.83953  1.0000
  C   C654      1.0  0.51437  0.01932  0.79117  1.0000
  H   H1036     1.0  0.56386  0.22436  0.81721  1.0000
  H   H1037     1.0  0.56883  0.28444  0.80664  1.0000
  N   N65       1.0  0.55842  0.25610  0.82200  1.0000
  C   C655      1.0  0.43919  0.40738  0.83815  1.0000
  S   S270      1.0  0.48477  0.46122  0.82126  1.0000
  C   C656      1.0  0.46830  0.47694  0.79816  1.0000
  H   H1038     1.0  0.41419  0.42099  0.86684  1.0000
  C   C657      1.0  0.62802  0.12961  0.86829  1.0000
  H   H1039     1.0  0.60679  0.14685  0.84906  1.0000
  C   C658      1.0  0.63532  0.03621  0.93617  1.0000
  C   C659      1.0  0.46503  0.03356  0.90767  1.0000
  H   H1040     1.0  0.60341  0.14024  0.88821  1.0000
  H   H1041     1.0  0.45530  0.03285  0.89737  1.0000
  H   H1042     1.0  0.61181  0.11422  0.86247  1.0000
  N   N66       1.0  0.61494  0.01046  0.93508  1.0000
  H   H1043     1.0  0.48889  0.07626  0.89382  1.0000
  H   H1044     1.0  0.59159  0.44737  0.86847  1.0000
  H   H1045     1.0  0.62952  0.12263  0.87892  1.0000
  C   C660      1.0  0.49715  0.07534  0.90431  1.0000
  H   H1046     1.0  0.49222  0.03957  0.88496  1.0000
  H   H1047     1.0  0.54554  0.28208  0.82818  1.0000
  N   N67       1.0  0.62527  0.15242  0.86966  1.0000
  H   H1048     1.0  0.51735  0.08809  0.90411  1.0000
  S   S271      1.0  0.43522  0.49086  0.74150  1.0000
  C   C661      1.0  0.56208  0.26401  0.80713  1.0000
  C   C662      1.0  0.58194  0.26972  0.83042  1.0000
  N   N68       1.0  0.38410  0.14006  0.91844  1.0000
  C   C663      1.0  0.38493  0.12784  0.93166  1.0000
  C   C664      1.0  0.40747  0.14801  0.91110  1.0000
  C   C665      1.0  0.38046  0.16184  0.92207  1.0000
  C   C666      1.0  0.36339  0.12235  0.90893  1.0000
  H   H1049     1.0  0.40043  0.14053  0.93908  1.0000
  H   H1050     1.0  0.38732  0.11108  0.92932  1.0000
  H   H1051     1.0  0.36750  0.12164  0.93746  1.0000
  H   H1052     1.0  0.40733  0.15704  0.90099  1.0000
  H   H1053     1.0  0.42361  0.16132  0.91794  1.0000
  H   H1054     1.0  0.41049  0.13174  0.90830  1.0000
  H   H1055     1.0  0.37860  0.17094  0.91234  1.0000
  H   H1056     1.0  0.39602  0.17590  0.92896  1.0000
  H   H1057     1.0  0.36326  0.15624  0.92801  1.0000
  H   H1058     1.0  0.36116  0.13120  0.89920  1.0000
  H   H1059     1.0  0.34569  0.11465  0.91444  1.0000
  H   H1060     1.0  0.36610  0.10630  0.90537  1.0000
  C   C667      1.0  0.64261  0.31350  0.74958  1.0000
  H   H1061     1.0  0.57596  0.25974  0.80205  1.0000
  H   H1062     1.0  0.45694  0.04050  0.91603  1.0000
  H   H1063     1.0  0.58805  0.29002  0.83119  1.0000
  H   H1064     1.0  0.64907  0.16622  0.88854  1.0000
  H   H1065     1.0  0.47844  0.01614  0.81880  1.0000
  H   H1066     1.0  0.61842  0.03036  0.87375  1.0000
  C   C668      1.0  0.60430  0.00340  0.94921  1.0000
  H   H1067     1.0  0.58604  0.13238  0.87162  1.0000
  C   C669      1.0  0.55018  0.22908  0.82217  1.0000
  C   C670      1.0  0.60175  0.46262  0.87670  1.0000
  H   H1068     1.0  0.54464  0.25444  0.80048  1.0000
  C   C671      1.0  0.50158  0.04019  0.89538  1.0000
  N   N69       1.0  0.42428  0.41719  0.84544  1.0000
  C   C672      1.0  0.39852  0.40387  0.83964  1.0000
  C   C673      1.0  0.43459  0.44405  0.84304  1.0000
  H   H1069     1.0  0.43218  0.38721  0.83983  1.0000
  C   C674      1.0  0.42485  0.41343  0.86090  1.0000
  H   H1070     1.0  0.39028  0.38353  0.84126  1.0000
  H   H1071     1.0  0.39748  0.40634  0.82798  1.0000
  H   H1072     1.0  0.38671  0.41074  0.84493  1.0000
  H   H1073     1.0  0.45410  0.45460  0.84720  1.0000
  H   H1074     1.0  0.43468  0.44759  0.83146  1.0000
  H   H1075     1.0  0.42389  0.45218  0.84838  1.0000
  C   C675      1.0  0.60277  0.14705  0.87741  1.0000
  C   C676      1.0  0.48922  0.47902  0.80585  1.0000
  C   C677      1.0  0.49660  0.00023  0.78198  1.0000
  Fe  Fe137     1.0  0.64131  0.29065  0.81214  1.0000
  H   H1076     1.0  0.47776  0.47279  0.75057  1.0000
  C   C678      1.0  0.48361  0.01178  0.80859  1.0000
  H   H1077     1.0  0.51494  0.45337  0.74377  1.0000
  C   C679      1.0  0.59587  0.00892  0.92457  1.0000
  H   H1078     1.0  0.63248  0.99813  0.91960  1.0000
  H   H1079     1.0  0.58842  0.02175  0.92771  1.0000
  C   C680      1.0  0.47066  0.49082  0.78599  1.0000
  H   H1080     1.0  0.52225  0.48377  0.75096  1.0000
  H   H1081     1.0  0.52178  0.05225  0.89428  1.0000
  H   H1082     1.0  0.49847  0.02099  0.89716  1.0000
  S   S272      1.0  0.32507  0.27218  0.89913  1.0000
  C   C681      1.0  0.63936  0.47750  0.86395  1.0000
  H   H1083     1.0  0.45435  0.48910  0.78030  1.0000
  H   H1084     1.0  0.32448  0.16762  0.89484  1.0000
  C   C682      1.0  0.32479  0.46109  0.75317  1.0000
  H   H1085     1.0  0.50178  0.99627  0.77168  1.0000
  H   H1086     1.0  0.63000  0.46245  0.85546  1.0000
  H   H1087     1.0  0.64781  0.47045  0.87202  1.0000
  C   C683      1.0  0.51869  0.47235  0.74083  1.0000
  H   H1088     1.0  0.59721  0.01607  0.95326  1.0000
  H   H1089     1.0  0.63925  0.99444  0.93789  1.0000
  C   C684      1.0  0.32077  0.16421  0.90599  1.0000
  C   C685      1.0  0.62449  0.99342  0.93031  1.0000
  Fe  Fe138     1.0  0.62127  0.93252  0.05945  1.0000
  H   H1090     1.0  0.44296  0.49498  0.17047  1.0000
  S   S273      1.0  0.58021  0.92211  0.06171  1.0000
  C   C686      1.0  0.41622  0.96805  0.12903  1.0000
  Fe  Fe139     1.0  0.32799  0.63585  0.16680  1.0000
  C   C687      1.0  0.37524  0.93712  0.12119  1.0000
  S   S274      1.0  0.63069  0.90946  0.04379  1.0000
  H   H1091     1.0  0.33252  0.69045  0.12536  1.0000
  N   N70       1.0  0.65314  0.75375  0.00575  1.0000
  Fe  Fe140     1.0  0.63202  0.68720  0.06349  1.0000
  C   C688      1.0  0.49009  0.96611  0.18994  1.0000
  S   S275      1.0  0.60557  0.65009  0.07326  1.0000
  S   S276      1.0  0.34393  0.60892  0.17001  1.0000
  H   H1092     1.0  0.49875  0.93980  0.13608  1.0000
  S   S277      1.0  0.63228  0.70477  0.04249  1.0000
  C   C689      1.0  0.38232  0.97768  0.12979  1.0000
  Fe  Fe141     1.0  0.44682  0.92549  0.13685  1.0000
  S   S278      1.0  0.45944  0.93292  0.11444  1.0000
  S   S279      1.0  0.45825  0.96148  0.15033  1.0000
  Fe  Fe142     1.0  0.41708  0.86884  0.12957  1.0000
  S   S280      1.0  0.42862  0.87312  0.10664  1.0000
  S   S281      1.0  0.38708  0.83432  0.13975  1.0000
  Fe  Fe143     1.0  0.46694  0.90033  0.11577  1.0000
  S   S282      1.0  0.50676  0.90672  0.11273  1.0000
  Fe  Fe144     1.0  0.42038  0.90574  0.10711  1.0000
  S   S283      1.0  0.40374  0.91954  0.08943  1.0000
  S   S284      1.0  0.45563  0.89381  0.13876  1.0000
  S   S285      1.0  0.40740  0.90045  0.12944  1.0000
  Fe  Fe145     1.0  0.47102  0.56306  0.11047  1.0000
  S   S286      1.0  0.46514  0.57334  0.13271  1.0000
  S   S287      1.0  0.49577  0.59619  0.09695  1.0000
  Fe  Fe146     1.0  0.42835  0.50825  0.11296  1.0000
  S   S288      1.0  0.41997  0.51629  0.13524  1.0000
  Fe  Fe147     1.0  0.42442  0.55269  0.12694  1.0000
  S   S289      1.0  0.40108  0.57310  0.12660  1.0000
  Fe  Fe148     1.0  0.46145  0.53632  0.13913  1.0000
  H   H1093     1.0  0.49552  0.95483  0.19631  1.0000
  S   S290      1.0  0.43021  0.54315  0.10440  1.0000
  S   S291      1.0  0.46983  0.52729  0.11715  1.0000
  H   H1094     1.0  0.52538  0.93714  0.14158  1.0000
  H   H1095     1.0  0.35756  0.93309  0.11547  1.0000
  H   H1096     1.0  0.33173  0.72727  0.10399  1.0000
  S   S292      1.0  0.36674  0.72248  0.14900  1.0000
  S   S293      1.0  0.34579  0.67237  0.17959  1.0000
  H   H1097     1.0  0.50167  0.98055  0.13124  1.0000
  C   C690      1.0  0.33233  0.61192  0.20579  1.0000
  H   H1098     1.0  0.63333  0.67276  0.10276  1.0000
  C   C691      1.0  0.39779  0.97291  0.10715  1.0000
  H   H1099     1.0  0.47578  0.93899  0.17216  1.0000
  C   C692      1.0  0.64704  0.53144  0.23407  1.0000
  H   H1100     1.0  0.36468  0.97493  0.12456  1.0000
  H   H1101     1.0  0.52197  0.53031  0.17578  1.0000
  S   S294      1.0  0.63747  0.76955  0.04713  1.0000
  C   C693      1.0  0.38588  0.58323  0.13908  1.0000
  C   C694      1.0  0.37526  0.59792  0.13429  1.0000
  C   C695      1.0  0.36276  0.60629  0.14362  1.0000
  C   C696      1.0  0.36048  0.59985  0.15789  1.0000
  C   C697      1.0  0.37121  0.58527  0.16271  1.0000
  C   C698      1.0  0.38396  0.57712  0.15340  1.0000
  H   H1102     1.0  0.37649  0.60267  0.12322  1.0000
  H   H1103     1.0  0.35454  0.61737  0.13972  1.0000
  H   H1104     1.0  0.36958  0.58015  0.17372  1.0000
  H   H1105     1.0  0.39197  0.56583  0.15726  1.0000
  C   C699      1.0  0.47188  0.97147  0.16784  1.0000
  C   C700      1.0  0.64382  0.83937  0.05000  1.0000
  C   C701      1.0  0.50395  0.51636  0.17876  1.0000
  C   C702      1.0  0.51661  0.94950  0.14227  1.0000
  C   C703      1.0  0.38222  0.80349  0.14244  1.0000
  C   C704      1.0  0.39771  0.79452  0.13703  1.0000
  C   C705      1.0  0.39282  0.76983  0.13932  1.0000
  C   C706      1.0  0.37251  0.75379  0.14710  1.0000
  C   C707      1.0  0.35698  0.76274  0.15250  1.0000
  C   C708      1.0  0.36180  0.78738  0.15014  1.0000
  H   H1106     1.0  0.41345  0.80658  0.13107  1.0000
  H   H1107     1.0  0.40492  0.76314  0.13504  1.0000
  H   H1108     1.0  0.34136  0.75078  0.15855  1.0000
  H   H1109     1.0  0.34972  0.79411  0.15441  1.0000
  H   H1110     1.0  0.37097  0.92972  0.13204  1.0000
  H   H1111     1.0  0.38293  0.92627  0.11547  1.0000
  C   C709      1.0  0.35247  0.89759  0.09195  1.0000
  C   C710      1.0  0.37333  0.91535  0.08545  1.0000
  C   C711      1.0  0.37019  0.93084  0.07565  1.0000
  C   C712      1.0  0.34664  0.92873  0.07242  1.0000
  H   H1112     1.0  0.35445  0.88536  0.09941  1.0000
  H   H1113     1.0  0.38611  0.94455  0.07047  1.0000
  H   H1114     1.0  0.34462  0.94072  0.06482  1.0000
  C   C713      1.0  0.57523  0.63599  0.08019  1.0000
  C   C714      1.0  0.55916  0.64626  0.07882  1.0000
  C   C715      1.0  0.53509  0.63386  0.08406  1.0000
  C   C716      1.0  0.52674  0.61119  0.09094  1.0000
  C   C717      1.0  0.54297  0.60115  0.09253  1.0000
  C   C718      1.0  0.56693  0.61337  0.08712  1.0000
  H   H1115     1.0  0.56509  0.66352  0.07348  1.0000
  H   H1116     1.0  0.52277  0.64182  0.08264  1.0000
  H   H1117     1.0  0.53692  0.58372  0.09770  1.0000
  H   H1118     1.0  0.57900  0.60506  0.08819  1.0000
  C   C719      1.0  0.56042  0.91886  0.07613  1.0000
  C   C720      1.0  0.56848  0.92166  0.09048  1.0000
  C   C721      1.0  0.55180  0.91785  0.10144  1.0000
  C   C722      1.0  0.52689  0.91153  0.09830  1.0000
  C   C723      1.0  0.51893  0.90907  0.08397  1.0000
  C   C724      1.0  0.53554  0.91257  0.07301  1.0000
  H   H1119     1.0  0.58753  0.92667  0.09313  1.0000
  H   H1120     1.0  0.55827  0.91982  0.11245  1.0000
  H   H1121     1.0  0.49991  0.90420  0.08130  1.0000
  H   H1122     1.0  0.52900  0.91033  0.06199  1.0000
  H   H1123     1.0  0.40685  0.96376  0.10104  1.0000
  H   H1124     1.0  0.34019  0.62308  0.21592  1.0000
  H   H1125     1.0  0.34617  0.60663  0.20167  1.0000
  C   C725      1.0  0.32690  0.72818  0.11525  1.0000
  C   C726      1.0  0.63815  0.81496  0.04532  1.0000
  C   C727      1.0  0.48270  0.51434  0.17149  1.0000
  H   H1126     1.0  0.43013  0.98806  0.12980  1.0000
  N   N71       1.0  0.58941  0.85436  0.08073  1.0000
  C   C728      1.0  0.59666  0.85157  0.06617  1.0000
  C   C729      1.0  0.58097  0.87343  0.08106  1.0000
  C   C730      1.0  0.61088  0.86212  0.09082  1.0000
  C   C731      1.0  0.56917  0.83035  0.08483  1.0000
  H   H1127     1.0  0.60267  0.83697  0.06545  1.0000
  H   H1128     1.0  0.61246  0.86913  0.06298  1.0000
  H   H1129     1.0  0.58126  0.84663  0.05814  1.0000
  H   H1130     1.0  0.57522  0.87606  0.09185  1.0000
  H   H1131     1.0  0.59583  0.89179  0.07805  1.0000
  H   H1132     1.0  0.56502  0.86854  0.07342  1.0000
  H   H1133     1.0  0.60602  0.86373  0.10199  1.0000
  H   H1134     1.0  0.62622  0.88056  0.08826  1.0000
  H   H1135     1.0  0.61854  0.84877  0.09035  1.0000
  H   H1136     1.0  0.56312  0.83185  0.09573  1.0000
  H   H1137     1.0  0.57502  0.81560  0.08474  1.0000
  H   H1138     1.0  0.55277  0.82398  0.07735  1.0000
  N   N72       1.0  0.46181  0.63551  0.11411  1.0000
  C   C732      1.0  0.48794  0.64126  0.11617  1.0000
  C   C733      1.0  0.44844  0.61246  0.10506  1.0000
  C   C734      1.0  0.46041  0.65619  0.10706  1.0000
  C   C735      1.0  0.45041  0.63205  0.12811  1.0000
  H   H1139     1.0  0.49707  0.64379  0.10579  1.0000
  H   H1140     1.0  0.48958  0.62582  0.12131  1.0000
  H   H1141     1.0  0.49866  0.65845  0.12299  1.0000
  H   H1142     1.0  0.44913  0.59652  0.11008  1.0000
  H   H1143     1.0  0.42856  0.60727  0.10337  1.0000
  H   H1144     1.0  0.45668  0.61416  0.09445  1.0000
  H   H1145     1.0  0.44087  0.65230  0.10535  1.0000
  H   H1146     1.0  0.46882  0.65920  0.09645  1.0000
  H   H1147     1.0  0.47027  0.67390  0.11359  1.0000
  H   H1148     1.0  0.43066  0.62769  0.12695  1.0000
  H   H1149     1.0  0.46009  0.64893  0.13531  1.0000
  H   H1150     1.0  0.45073  0.61623  0.13360  1.0000
  H   H1151     1.0  0.49202  0.95368  0.22609  1.0000
  C   C736      1.0  0.32578  0.91091  0.07889  1.0000
  C   C737      1.0  0.55602  0.98644  0.14497  1.0000
  H   H1152     1.0  0.34409  0.73409  0.12199  1.0000
  C   C738      1.0  0.53715  0.97078  0.12146  1.0000
  H   H1153     1.0  0.63102  0.76784  0.01604  1.0000
  H   H1154     1.0  0.33044  0.62427  0.19788  1.0000
  C   C739      1.0  0.65344  0.68092  0.10091  1.0000
  N   N73       1.0  0.53238  0.97407  0.13653  1.0000
  H   H1155     1.0  0.42470  0.95792  0.12324  1.0000
  H   H1156     1.0  0.51236  0.95113  0.15359  1.0000
  C   C740      1.0  0.62932  0.75022  0.01110  1.0000
  H   H1157     1.0  0.54894  0.98889  0.11670  1.0000
  H   H1158     1.0  0.41321  0.96125  0.14007  1.0000
  C   C741      1.0  0.45954  0.49632  0.17558  1.0000
  H   H1159     1.0  0.51962  0.96119  0.11483  1.0000
  C   C742      1.0  0.50219  0.50040  0.18980  1.0000
  N   N74       1.0  0.39290  0.96396  0.12179  1.0000
  S   S295      1.0  0.64652  0.72356  0.07619  1.0000
  Fe  Fe149     1.0  0.33752  0.68892  0.16023  1.0000
  C   C743      1.0  0.47896  0.95708  0.17621  1.0000
  S   S296      1.0  0.48636  0.53426  0.15716  1.0000
  S   S297      1.0  0.59647  0.50132  0.23232  1.0000
  H   H1160     1.0  0.63800  0.85030  0.04358  1.0000
  H   H1161     1.0  0.64867  0.66971  0.00651  1.0000
  C   C744      1.0  0.62775  0.50686  0.23456  1.0000
  H   H1162     1.0  0.54656  0.95905  0.12036  1.0000
  Fe  Fe150     1.0  0.64973  0.74165  0.05517  1.0000
  H   H1163     1.0  0.63875  0.64551  0.12006  1.0000
  H   H1164     1.0  0.61470  0.74374  0.00244  1.0000
  C   C745      1.0  0.32892  0.89542  0.08869  1.0000
  H   H1165     1.0  0.37841  0.97131  0.14088  1.0000
  H   H1166     1.0  0.62789  0.80730  0.03530  1.0000
  H   H1167     1.0  0.64256  0.54640  0.23252  1.0000
  H   H1168     1.0  0.32152  0.74320  0.11645  1.0000
  H   H1169     1.0  0.46782  0.92558  0.23244  1.0000
  H   H1170     1.0  0.56601  0.97520  0.14451  1.0000
  H   H1171     1.0  0.62880  0.63188  0.09453  1.0000
  S   S298      1.0  0.64962  0.96875  0.05088  1.0000
  H   H1172     1.0  0.33787  0.66230  0.21705  1.0000
  C   C746      1.0  0.64566  0.80043  0.05346  1.0000
  C   C747      1.0  0.32637  0.65922  0.22610  1.0000
  H   H1173     1.0  0.51873  0.50214  0.19520  1.0000
  H   H1174     1.0  0.62272  0.73628  0.01952  1.0000
  S   S299      1.0  0.64718  0.93300  0.07694  1.0000
  H   H1175     1.0  0.55300  0.98916  0.15639  1.0000
  C   C748      1.0  0.48553  0.94230  0.23566  1.0000
  S   S300      1.0  0.32216  0.65276  0.14712  1.0000
  H   H1176     1.0  0.38041  0.96883  0.10104  1.0000
  C   C749      1.0  0.49417  0.98951  0.19551  1.0000
  H   H1177     1.0  0.47019  0.97680  0.23396  1.0000
  H   H1178     1.0  0.63588  0.72289  0.99036  1.0000
  H   H1179     1.0  0.32525  0.56848  0.21586  1.0000
  H   H1180     1.0  0.65139  0.64673  0.08157  1.0000
  C   C750      1.0  0.65004  0.72999  0.99929  1.0000
  H   H1181     1.0  0.64432  0.71534  0.00730  1.0000
  H   H1182     1.0  0.65024  0.98406  0.00933  1.0000
  H   H1183     1.0  0.51544  0.99200  0.14869  1.0000
  C   C751      1.0  0.51964  0.98945  0.13747  1.0000
  C   C752      1.0  0.64902  0.64105  0.09284  1.0000
  Fe  Fe151     1.0  0.63453  0.94642  0.41399  1.0000
  S   S301      1.0  0.60619  0.95797  0.40480  1.0000
  C   C753      1.0  0.63478  0.81879  0.41689  1.0000
  S   S302      1.0  0.63457  0.92449  0.43307  1.0000
  Fe  Fe152     1.0  0.62770  0.69211  0.41529  1.0000
  S   S303      1.0  0.58676  0.67138  0.40739  1.0000
  S   S304      1.0  0.63761  0.72119  0.43332  1.0000
  Fe  Fe153     1.0  0.41714  0.87085  0.34893  1.0000
  S   S305      1.0  0.43186  0.88689  0.37105  1.0000
  S   S306      1.0  0.38856  0.82960  0.34880  1.0000
  Fe  Fe154     1.0  0.44723  0.92186  0.33596  1.0000
  S   S307      1.0  0.46421  0.94092  0.35736  1.0000
  S   S308      1.0  0.44991  0.93919  0.31416  1.0000
  Fe  Fe155     1.0  0.46918  0.90714  0.36168  1.0000
  S   S309      1.0  0.49782  0.89980  0.37415  1.0000
  Fe  Fe156     1.0  0.42564  0.91911  0.36559  1.0000
  S   S310      1.0  0.41264  0.93845  0.38228  1.0000
  S   S311      1.0  0.45467  0.88932  0.33963  1.0000
  S   S312      1.0  0.40842  0.90199  0.34401  1.0000
  Fe  Fe157     1.0  0.41890  0.51015  0.36848  1.0000
  S   S313      1.0  0.40696  0.51263  0.34593  1.0000
  Fe  Fe158     1.0  0.47277  0.54950  0.36452  1.0000
  S   S314      1.0  0.46502  0.55442  0.34160  1.0000
  S   S315      1.0  0.51116  0.56647  0.37603  1.0000
  Fe  Fe159     1.0  0.43010  0.55409  0.34900  1.0000
  S   S316      1.0  0.42257  0.58234  0.33713  1.0000
  Fe  Fe160     1.0  0.44229  0.51293  0.33937  1.0000
  H   H1184     1.0  0.58494  0.55813  0.25940  1.0000
  S   S317      1.0  0.43961  0.55218  0.37215  1.0000
  H   H1185     1.0  0.49628  0.97142  0.39398  1.0000
  S   S318      1.0  0.45252  0.50738  0.36172  1.0000
  H   H1186     1.0  0.59128  0.50073  0.26234  1.0000
  Fe  Fe161     1.0  0.34041  0.69061  0.31356  1.0000
  S   S319      1.0  0.37115  0.73100  0.31345  1.0000
  S   S320      1.0  0.35253  0.66321  0.30518  1.0000
  H   H1187     1.0  0.63400  0.79065  0.44784  1.0000
  H   H1188     1.0  0.35257  0.69758  0.28224  1.0000
  H   H1189     1.0  0.45778  0.58121  0.31624  1.0000
  C   C754      1.0  0.33512  0.91871  0.39897  1.0000
  H   H1190     1.0  0.41417  0.53357  0.28103  1.0000
  C   C755      1.0  0.48153  0.56835  0.40843  1.0000
  N   N75       1.0  0.46686  0.54192  0.41180  1.0000
  C   C756      1.0  0.46997  0.52608  0.40070  1.0000
  H   H1191     1.0  0.44870  0.95533  0.41045  1.0000
  C   C757      1.0  0.39748  0.58935  0.33677  1.0000
  C   C758      1.0  0.37721  0.57770  0.34537  1.0000
  C   C759      1.0  0.35800  0.58427  0.34479  1.0000
  C   C760      1.0  0.35870  0.60241  0.33557  1.0000
  C   C761      1.0  0.37884  0.61384  0.32686  1.0000
  C   C762      1.0  0.39811  0.60738  0.32750  1.0000
  H   H1192     1.0  0.37644  0.56382  0.35256  1.0000
  H   H1193     1.0  0.34256  0.57531  0.35160  1.0000
  H   H1194     1.0  0.37972  0.62787  0.31976  1.0000
  H   H1195     1.0  0.41373  0.61662  0.32085  1.0000
  C   C763      1.0  0.47158  0.96640  0.30581  1.0000
  C   C764      1.0  0.46386  0.97378  0.29340  1.0000
  N   N76       1.0  0.43590  0.55389  0.29975  1.0000
  H   H1196     1.0  0.44475  0.96354  0.28962  1.0000
  C   C765      1.0  0.38339  0.80274  0.33823  1.0000
  C   C766      1.0  0.36358  0.77962  0.34135  1.0000
  C   C767      1.0  0.35936  0.75753  0.33380  1.0000
  C   C768      1.0  0.37508  0.75826  0.32310  1.0000
  C   C769      1.0  0.39490  0.78138  0.31996  1.0000
  C   C770      1.0  0.39898  0.80352  0.32741  1.0000
  H   H1197     1.0  0.35140  0.77877  0.34969  1.0000
  H   H1198     1.0  0.34404  0.73993  0.33634  1.0000
  H   H1199     1.0  0.40718  0.78218  0.31169  1.0000
  H   H1200     1.0  0.41417  0.82113  0.32478  1.0000
  H   H1201     1.0  0.47964  0.97531  0.41730  1.0000
  C   C771      1.0  0.33920  0.90056  0.39159  1.0000
  C   C772      1.0  0.36241  0.90643  0.38598  1.0000
  C   C773      1.0  0.38220  0.93050  0.38793  1.0000
  C   C774      1.0  0.37814  0.94864  0.39532  1.0000
  C   C775      1.0  0.35476  0.94291  0.40065  1.0000
  H   H1202     1.0  0.36511  0.89218  0.38041  1.0000
  H   H1203     1.0  0.39321  0.96731  0.39697  1.0000
  H   H1204     1.0  0.37010  0.69957  0.26702  1.0000
  C   C776      1.0  0.56650  0.64236  0.39819  1.0000
  C   C777      1.0  0.57291  0.62336  0.39588  1.0000
  C   C778      1.0  0.55586  0.60049  0.38897  1.0000
  C   C779      1.0  0.53226  0.59628  0.38408  1.0000
  C   C780      1.0  0.52589  0.61533  0.38629  1.0000
  C   C781      1.0  0.54282  0.63808  0.39336  1.0000
  H   H1205     1.0  0.59093  0.62620  0.39954  1.0000
  H   H1206     1.0  0.56107  0.58596  0.38740  1.0000
  H   H1207     1.0  0.50789  0.61255  0.38263  1.0000
  H   H1208     1.0  0.53757  0.65256  0.39507  1.0000
  C   C782      1.0  0.57623  0.94135  0.39608  1.0000
  C   C783      1.0  0.56341  0.91536  0.39474  1.0000
  C   C784      1.0  0.53960  0.90313  0.38797  1.0000
  C   C785      1.0  0.52826  0.91660  0.38226  1.0000
  C   C786      1.0  0.54114  0.94262  0.38350  1.0000
  C   C787      1.0  0.56486  0.95484  0.39041  1.0000
  H   H1209     1.0  0.57176  0.90464  0.39905  1.0000
  H   H1210     1.0  0.52993  0.88303  0.38715  1.0000
  H   H1211     1.0  0.53287  0.95335  0.37915  1.0000
  H   H1212     1.0  0.57451  0.97494  0.39138  1.0000
  C   C788      1.0  0.64099  0.77710  0.44989  1.0000
  H   H1213     1.0  0.40687  0.51852  0.30571  1.0000
  H   H1214     1.0  0.64262  0.95676  0.36253  1.0000
  H   H1215     1.0  0.37129  0.75388  0.28704  1.0000
  H   H1216     1.0  0.34745  0.75494  0.27605  1.0000
  H   H1217     1.0  0.49538  0.54244  0.42574  1.0000
  N   N77       1.0  0.44991  0.82095  0.36501  1.0000
  C   C789      1.0  0.47282  0.82165  0.37084  1.0000
  C   C790      1.0  0.43137  0.79497  0.36119  1.0000
  C   C791      1.0  0.45549  0.83579  0.35217  1.0000
  C   C792      1.0  0.43997  0.83158  0.37582  1.0000
  H   H1218     1.0  0.48712  0.84111  0.37379  1.0000
  H   H1219     1.0  0.48087  0.81387  0.36293  1.0000
  H   H1220     1.0  0.46939  0.81072  0.38059  1.0000
  H   H1221     1.0  0.42701  0.78308  0.37057  1.0000
  H   H1222     1.0  0.41371  0.79390  0.35707  1.0000
  H   H1223     1.0  0.43785  0.78654  0.35272  1.0000
  H   H1224     1.0  0.46988  0.85536  0.35461  1.0000
  H   H1225     1.0  0.43878  0.83638  0.34779  1.0000
  H   H1226     1.0  0.46228  0.82794  0.34357  1.0000
  H   H1227     1.0  0.42270  0.83142  0.37172  1.0000
  H   H1228     1.0  0.45346  0.85124  0.37886  1.0000
  H   H1229     1.0  0.43551  0.82087  0.38568  1.0000
  H   H1230     1.0  0.42498  0.53894  0.32026  1.0000
  H   H1231     1.0  0.59544  0.56416  0.28537  1.0000
  H   H1232     1.0  0.46504  0.95248  0.38744  1.0000
  C   C793      1.0  0.58833  0.50837  0.27259  1.0000
  H   H1233     1.0  0.46384  0.52903  0.39005  1.0000
  H   H1234     1.0  0.49210  0.51566  0.32102  1.0000
  H   H1235     1.0  0.64521  0.80536  0.47331  1.0000
  S   S321      1.0  0.33418  0.61028  0.33549  1.0000
  N   N78       1.0  0.35850  0.72784  0.26895  1.0000
  H   H1236     1.0  0.46877  0.55556  0.29104  1.0000
  H   H1237     1.0  0.49937  0.93603  0.23846  1.0000
  C   C794      1.0  0.65211  0.79152  0.47449  1.0000
  S   S322      1.0  0.63718  0.86516  0.41796  1.0000
  H   H1238     1.0  0.33824  0.70265  0.25129  1.0000
  H   H1239     1.0  0.62517  0.75940  0.45299  1.0000
  H   H1240     1.0  0.57056  0.53369  0.28801  1.0000
  H   H1241     1.0  0.40287  0.54512  0.31105  1.0000
  H   H1242     1.0  0.43725  0.54681  0.42059  1.0000
  H   H1243     1.0  0.60129  0.54181  0.29453  1.0000
  H   H1244     1.0  0.38390  0.72128  0.28216  1.0000
  H   H1245     1.0  0.32814  0.72514  0.25567  1.0000
  C   C795      1.0  0.47553  0.53777  0.42579  1.0000
  C   C796      1.0  0.36673  0.71091  0.27532  1.0000
  H   H1246     1.0  0.61500  0.81190  0.41617  1.0000
  H   H1247     1.0  0.32070  0.69929  0.26683  1.0000
  C   C797      1.0  0.45384  0.54426  0.29825  1.0000
  H   H1248     1.0  0.47590  0.57207  0.39778  1.0000
  C   C798      1.0  0.49629  0.98007  0.31066  1.0000
  H   H1249     1.0  0.35212  0.95709  0.40636  1.0000
  C   C799      1.0  0.47370  0.94091  0.26009  1.0000
  C   C800      1.0  0.64433  0.80173  0.41668  1.0000
  H   H1250     1.0  0.46342  0.59220  0.29848  1.0000
  H   H1251     1.0  0.44469  0.52467  0.29388  1.0000
  N   N79       1.0  0.59521  0.53500  0.27181  1.0000
  Fe  Fe162     1.0  0.32817  0.63667  0.32093  1.0000
  C   C801      1.0  0.58030  0.53828  0.26028  1.0000
  H   H1252     1.0  0.50333  0.93070  0.40786  1.0000
  C   C802      1.0  0.44882  0.57988  0.30556  1.0000
  C   C803      1.0  0.33349  0.65389  0.23940  1.0000
  H   H1253     1.0  0.47126  0.95122  0.26934  1.0000
  H   H1254     1.0  0.63055  0.98945  0.35835  1.0000
  H   H1255     1.0  0.43777  0.91408  0.39952  1.0000
  H   H1256     1.0  0.45888  0.50595  0.40270  1.0000
  H   H1257     1.0  0.41052  0.56013  0.28649  1.0000
  H   H1258     1.0  0.49178  0.93316  0.42491  1.0000
  H   H1259     1.0  0.35046  0.65264  0.24050  1.0000
  C   C804      1.0  0.48626  0.50524  0.31089  1.0000
  C   C805      1.0  0.44045  0.53542  0.41226  1.0000
  H   H1260     1.0  0.43575  0.58762  0.30703  1.0000
  C   C806      1.0  0.65052  0.84467  0.41786  1.0000
  H   H1261     1.0  0.59943  0.50523  0.28105  1.0000
  C   C807      1.0  0.41672  0.53840  0.30954  1.0000
  H   H1262     1.0  0.34011  0.72985  0.28777  1.0000
  H   H1263     1.0  0.50256  0.97467  0.32015  1.0000
  C   C808      1.0  0.59048  0.54412  0.28554  1.0000
  H   H1264     1.0  0.42876  0.51543  0.41445  1.0000
  C   C809      1.0  0.35413  0.74229  0.28040  1.0000
  H   H1265     1.0  0.45559  0.92419  0.25763  1.0000
  H   H1266     1.0  0.63188  0.78196  0.41573  1.0000
  H   H1267     1.0  0.63354  0.54711  0.27725  1.0000
  H   H1268     1.0  0.43331  0.53839  0.40189  1.0000
  H   H1269     1.0  0.37218  0.75804  0.25474  1.0000
  C   C810      1.0  0.42415  0.55297  0.28566  1.0000
  H   H1270     1.0  0.48722  0.94107  0.38602  1.0000
  N   N80       1.0  0.47428  0.94101  0.40707  1.0000
  H   H1271     1.0  0.47948  0.58098  0.41644  1.0000
  H   H1272     1.0  0.62757  0.56934  0.26801  1.0000
  C   C811      1.0  0.62167  0.54916  0.26879  1.0000
  H   H1273     1.0  0.62243  0.98860  0.37665  1.0000
  C   C812      1.0  0.33538  0.71313  0.26031  1.0000
  H   H1274     1.0  0.46068  0.90354  0.39864  1.0000
  C   C813      1.0  0.46531  0.95552  0.41574  1.0000
  H   H1275     1.0  0.43809  0.56442  0.27797  1.0000
  H   H1276     1.0  0.39549  0.75639  0.26597  1.0000
  H   H1277     1.0  0.46484  0.51800  0.42865  1.0000
  H   H1278     1.0  0.47355  0.54954  0.43442  1.0000
  H   H1279     1.0  0.63482  0.95619  0.38085  1.0000
  H   H1280     1.0  0.52055  0.97336  0.25508  1.0000
  H   H1281     1.0  0.58335  0.53159  0.24974  1.0000
  S   S323      1.0  0.32860  0.64322  0.26768  1.0000
  C   C814      1.0  0.48104  0.95198  0.39301  1.0000
  C   C815      1.0  0.50636  0.97872  0.25150  1.0000
  H   H1282     1.0  0.44584  0.94881  0.24040  1.0000
  C   C816      1.0  0.37779  0.74503  0.25975  1.0000
  H   H1283     1.0  0.32432  0.88176  0.39022  1.0000
  H   H1284     1.0  0.48709  0.93447  0.26367  1.0000
  C   C817      1.0  0.45448  0.91503  0.40511  1.0000
  H   H1285     1.0  0.56854  0.49714  0.27498  1.0000
  C   C818      1.0  0.46416  0.96490  0.24336  1.0000
  H   H1286     1.0  0.62562  0.54245  0.25850  1.0000
  H   H1287     1.0  0.46273  0.54434  0.30875  1.0000
  H   H1288     1.0  0.38152  0.73467  0.25100  1.0000
  H   H1289     1.0  0.52335  0.51563  0.30472  1.0000
  H   H1290     1.0  0.51153  0.96076  0.41589  1.0000
  H   H1291     1.0  0.64726  0.77312  0.43959  1.0000
  S   S324      1.0  0.65064  0.92788  0.39991  1.0000
  H   H1292     1.0  0.56020  0.52769  0.26213  1.0000
  N   N81       1.0  0.48243  0.95670  0.24766  1.0000
  C   C819      1.0  0.50395  0.50519  0.30161  1.0000
  H   H1293     1.0  0.50157  0.57385  0.40806  1.0000
  H   H1294     1.0  0.46149  0.97599  0.25213  1.0000
  H   H1295     1.0  0.48969  0.53049  0.39994  1.0000
  C   C820      1.0  0.64990  0.96554  0.37333  1.0000
  C   C821      1.0  0.49617  0.94144  0.41428  1.0000
  H   H1296     1.0  0.44865  0.90619  0.41550  1.0000
  H   H1297     1.0  0.63666  0.77411  0.47821  1.0000
  H   H1298     1.0  0.45996  0.94779  0.42644  1.0000
  H   H1299     1.0  0.51368  0.99080  0.24229  1.0000
  H   H1300     1.0  0.50461  0.99034  0.26029  1.0000
  S   S325      1.0  0.65354  0.67836  0.42410  1.0000
  Fe  Fe163     1.0  0.65320  0.90779  0.41914  1.0000
  S   S326      1.0  0.47709  0.60040  0.72502  1.0000
  Fe  Fe164     1.0  0.44815  0.50838  0.72053  1.0000
  S   S327      1.0  0.42517  0.52837  0.72091  1.0000
  C   C822      1.0  0.53708  0.90469  0.71186  1.0000
  C   C823      1.0  0.53101  0.93817  0.72200  1.0000
  H   H1301     1.0  0.55752  0.91570  0.71325  1.0000
  S   S328      1.0  0.44277  0.90138  0.72002  1.0000
  H   H1302     1.0  0.65294  0.88747  0.63389  1.0000
  Fe  Fe165     1.0  0.46375  0.94335  0.72205  1.0000
  S   S329      1.0  0.49009  0.96487  0.70461  1.0000
  S   S330      1.0  0.59413  0.82288  0.73056  1.0000
  Fe  Fe166     1.0  0.59448  0.78925  0.72036  1.0000
  S   S331      1.0  0.55286  0.76664  0.71925  1.0000
  S   S332      1.0  0.61899  0.78803  0.70266  1.0000
  C   C824      1.0  0.51366  0.83192  0.73096  1.0000
  H   H1303     1.0  0.48333  0.71343  0.71311  1.0000
  Fe  Fe167     1.0  0.45829  0.56023  0.73265  1.0000
  H   H1304     1.0  0.43942  0.72016  0.73722  1.0000
  C   C825      1.0  0.49853  0.90541  0.70740  1.0000
  C   C826      1.0  0.51091  0.50426  0.68288  1.0000
  H   H1305     1.0  0.55123  0.95013  0.72393  1.0000
  C   C827      1.0  0.64608  0.83643  0.69348  1.0000
  C   C828      1.0  0.48557  0.75091  0.72991  1.0000
  H   H1306     1.0  0.52940  0.51971  0.68392  1.0000
  C   C829      1.0  0.48575  0.85048  0.72917  1.0000
  H   H1307     1.0  0.47079  0.85171  0.72357  1.0000
  H   H1308     1.0  0.53137  0.92281  0.68695  1.0000
  H   H1309     1.0  0.53283  0.89093  0.70279  1.0000
  H   H1310     1.0  0.64315  0.50229  0.62303  1.0000
  N   N82       1.0  0.52554  0.92088  0.70947  1.0000
  H   H1311     1.0  0.48204  0.75282  0.71844  1.0000
  H   H1312     1.0  0.48648  0.82368  0.71386  1.0000
  H   H1313     1.0  0.49362  0.89127  0.69848  1.0000
  H   H1314     1.0  0.64342  0.56386  0.56977  1.0000
  H   H1315     1.0  0.52261  0.95070  0.72050  1.0000
  C   C830      1.0  0.48816  0.98439  0.69137  1.0000
  H   H1316     1.0  0.44060  0.69162  0.73354  1.0000
  H   H1317     1.0  0.63575  0.66724  0.61295  1.0000
  C   C831      1.0  0.49264  0.50360  0.69195  1.0000
  H   H1318     1.0  0.52355  0.92788  0.73185  1.0000
  H   H1319     1.0  0.48012  0.69278  0.72718  1.0000
  C   C832      1.0  0.50622  0.65106  0.72299  1.0000
  H   H1320     1.0  0.50744  0.72199  0.72656  1.0000
  C   C833      1.0  0.64079  0.81147  0.69204  1.0000
  H   H1321     1.0  0.49025  0.89539  0.71717  1.0000
  H   H1322     1.0  0.32215  0.88050  0.72169  1.0000
  H   H1323     1.0  0.45324  0.98128  0.69729  1.0000
  H   H1324     1.0  0.32847  0.98767  0.49302  1.0000
  C   C834      1.0  0.53540  0.93528  0.69663  1.0000
  N   N83       1.0  0.47565  0.72461  0.73355  1.0000
  C   C835      1.0  0.51910  0.67618  0.72807  1.0000
  H   H1325     1.0  0.65147  0.79159  0.72780  1.0000
  H   H1326     1.0  0.49713  0.51862  0.69977  1.0000
  C   C836      1.0  0.63158  0.57856  0.58728  1.0000
  H   H1327     1.0  0.50723  0.64644  0.71189  1.0000
  C   C837      1.0  0.63138  0.55933  0.57864  1.0000
  C   C838      1.0  0.61525  0.53415  0.58134  1.0000
  C   C839      1.0  0.59909  0.52765  0.59273  1.0000
  C   C840      1.0  0.59951  0.54685  0.60147  1.0000
  C   C841      1.0  0.61555  0.57204  0.59873  1.0000
  H   H1328     1.0  0.42925  0.98889  0.60052  1.0000
  H   H1329     1.0  0.61511  0.51960  0.57441  1.0000
  H   H1330     1.0  0.58725  0.54235  0.61025  1.0000
  H   H1331     1.0  0.48942  0.91698  0.70487  1.0000
  C   C842      1.0  0.49461  0.83443  0.72372  1.0000
  H   H1332     1.0  0.61537  0.58660  0.60550  1.0000
  S   S333      1.0  0.43363  0.94676  0.73357  1.0000
  H   H1333     1.0  0.53032  0.89395  0.72163  1.0000
  H   H1334     1.0  0.44368  0.71197  0.71937  1.0000
  C   C843      1.0  0.34298  0.86625  0.73351  1.0000
  Fe  Fe168     1.0  0.55283  0.79956  0.73116  1.0000
  S   S334      1.0  0.52387  0.81117  0.72352  1.0000
  H   H1335     1.0  0.55575  0.94725  0.69778  1.0000
  S   S335      1.0  0.65114  0.61090  0.58430  1.0000
  H   H1336     1.0  0.64348  0.64287  0.60871  1.0000
  H   H1337     1.0  0.52984  0.69057  0.72090  1.0000
  C   C844      1.0  0.44861  0.71149  0.73080  1.0000
  C   C845      1.0  0.48706  0.71266  0.72469  1.0000
  S   S336      1.0  0.37190  0.88950  0.72752  1.0000
  C   C846      1.0  0.49230  0.63185  0.73211  1.0000
  H   H1338     1.0  0.52001  0.50560  0.72186  1.0000
  H   H1339     1.0  0.43704  0.97461  0.62372  1.0000
  S   S337      1.0  0.48160  0.54086  0.73052  1.0000
  H   H1340     1.0  0.52699  0.94771  0.69462  1.0000
  H   H1341     1.0  0.50590  0.76128  0.73200  1.0000
  Fe  Fe169     1.0  0.41350  0.90468  0.73296  1.0000
  H   H1342     1.0  0.63598  0.84184  0.70083  1.0000
  H   H1343     1.0  0.47747  0.76070  0.73632  1.0000
  H   H1344     1.0  0.39667  0.97376  0.61849  1.0000
  H   H1345     1.0  0.48795  0.49731  0.72260  1.0000
  C   C847      1.0  0.46820  0.98941  0.69007  1.0000
  C   C848      1.0  0.32106  0.86639  0.72880  1.0000
  C   C849      1.0  0.50369  0.49720  0.72864  1.0000
  H   H1346     1.0  0.64342  0.82678  0.72410  1.0000
  C   C850      1.0  0.65064  0.66179  0.61396  1.0000
  S   S338      1.0  0.57905  0.49532  0.59546  1.0000
  H   H1347     1.0  0.65013  0.78566  0.68106  1.0000
  H   H1348     1.0  0.61235  0.49496  0.61734  1.0000
  H   H1349     1.0  0.52769  0.59103  0.73683  1.0000
  H   H1350     1.0  0.40068  0.99236  0.63454  1.0000
  H   H1351     1.0  0.52298  0.99149  0.68271  1.0000
  H   H1352     1.0  0.44084  0.99289  0.63990  1.0000
  C   C851      1.0  0.48146  0.72344  0.74880  1.0000
  Fe  Fe170     1.0  0.46729  0.52463  0.75165  1.0000
  S   S339      1.0  0.44566  0.54578  0.75443  1.0000
  H   H1353     1.0  0.39980  0.91754  0.77166  1.0000
  N   N84       1.0  0.49630  0.92908  0.78991  1.0000
  C   C852      1.0  0.52381  0.84582  0.74375  1.0000
  C   C853      1.0  0.47046  0.91037  0.78629  1.0000
  H   H1354     1.0  0.46926  0.89834  0.77681  1.0000
  Fe  Fe171     1.0  0.45191  0.94395  0.75403  1.0000
  H   H1355     1.0  0.63937  0.63395  0.87071  1.0000
  H   H1356     1.0  0.54455  0.61279  0.78104  1.0000
  S   S340      1.0  0.53386  0.71393  0.74953  1.0000
  S   S341      1.0  0.43087  0.90218  0.75381  1.0000
  Fe  Fe172     1.0  0.59577  0.80584  0.75138  1.0000
  S   S342      1.0  0.55430  0.78469  0.75262  1.0000
  S   S343      1.0  0.62160  0.83278  0.76901  1.0000
  C   C854      1.0  0.64327  0.65228  0.87574  1.0000
  H   H1357     1.0  0.33357  0.90135  0.77045  1.0000
  H   H1358     1.0  0.37750  0.89758  0.75817  1.0000
  S   S344      1.0  0.48607  0.88551  0.74931  1.0000
  H   H1359     1.0  0.64311  0.49826  0.89018  1.0000
  H   H1360     1.0  0.44714  0.98216  0.80281  1.0000
  H   H1361     1.0  0.40533  0.95398  0.75795  1.0000
  C   C855      1.0  0.49117  0.63826  0.74642  1.0000
  H   H1362     1.0  0.49666  0.59347  0.75157  1.0000
  H   H1363     1.0  0.52584  0.95974  0.78008  1.0000
  H   H1364     1.0  0.56394  0.63946  0.75361  1.0000
  H   H1365     1.0  0.63928  0.79575  0.77154  1.0000
  H   H1366     1.0  0.50770  0.50956  0.73838  1.0000
  H   H1367     1.0  0.46205  0.89801  0.79527  1.0000
  H   H1368     1.0  0.45882  0.91941  0.78374  1.0000
  H   H1369     1.0  0.62665  0.65483  0.87395  1.0000
  S   S345      1.0  0.44932  0.96133  0.77542  1.0000
  H   H1370     1.0  0.53844  0.84415  0.74947  1.0000
  H   H1371     1.0  0.48575  0.95450  0.80012  1.0000
  H   H1372     1.0  0.64931  0.52154  0.87727  1.0000
  S   S346      1.0  0.59836  0.77346  0.74119  1.0000
  S   S347      1.0  0.48364  0.94403  0.74271  1.0000
  H   H1373     1.0  0.50717  0.93346  0.76818  1.0000
  C   C856      1.0  0.50668  0.94472  0.77760  1.0000
  H   H1374     1.0  0.50304  0.66804  0.76258  1.0000
  C   C857      1.0  0.64909  0.81060  0.77950  1.0000
  H   H1375     1.0  0.48016  0.62394  0.75354  1.0000
  H   H1376     1.0  0.38240  0.93369  0.74479  1.0000
  C   C858      1.0  0.49598  0.86446  0.74194  1.0000
  Fe  Fe173     1.0  0.41399  0.51262  0.74253  1.0000
  C   C859      1.0  0.63187  0.57795  0.88850  1.0000
  C   C860      1.0  0.62089  0.56478  0.90054  1.0000
  C   C861      1.0  0.59976  0.54117  0.89900  1.0000
  C   C862      1.0  0.58922  0.53030  0.88545  1.0000
  C   C863      1.0  0.60014  0.54354  0.87340  1.0000
  C   C864      1.0  0.62132  0.56711  0.87493  1.0000
  H   H1377     1.0  0.49950  0.57390  0.76458  1.0000
  H   H1378     1.0  0.59152  0.53122  0.90843  1.0000
  H   H1379     1.0  0.59218  0.53575  0.86289  1.0000
  H   H1380     1.0  0.64565  0.65088  0.88741  1.0000
  S   S348      1.0  0.49807  0.52527  0.76617  1.0000
  H   H1381     1.0  0.64095  0.65027  0.98200  1.0000
  C   C865      1.0  0.61103  0.49376  0.85926  1.0000
  H   H1382     1.0  0.55735  0.59765  0.74452  1.0000
  H   H1383     1.0  0.36931  0.95631  0.77904  1.0000
  H   H1384     1.0  0.51070  0.90415  0.78412  1.0000
  H   H1385     1.0  0.52309  0.87253  0.75908  1.0000
  H   H1386     1.0  0.33741  0.92805  0.76091  1.0000
  H   H1387     1.0  0.50162  0.73457  0.75140  1.0000
  H   H1388     1.0  0.53015  0.57013  0.74914  1.0000
  C   C866      1.0  0.53747  0.59013  0.74679  1.0000
  H   H1389     1.0  0.36942  0.89518  0.77648  1.0000
  Fe  Fe174     1.0  0.55669  0.75303  0.74075  1.0000
  H   H1390     1.0  0.64499  0.83288  0.74297  1.0000
  C   C867      1.0  0.51103  0.91632  0.79332  1.0000
  C   C868      1.0  0.50409  0.66338  0.75150  1.0000
  C   C869      1.0  0.49407  0.50707  0.78135  1.0000
  C   C870      1.0  0.46589  0.99252  0.79946  1.0000
  N   N85       1.0  0.37127  0.92729  0.76646  1.0000
  C   C871      1.0  0.51265  0.49510  0.80113  1.0000
  C   C872      1.0  0.37988  0.90857  0.76829  1.0000
  C   C873      1.0  0.38514  0.94412  0.75518  1.0000
  C   C874      1.0  0.34464  0.91455  0.76232  1.0000
  H   H1391     1.0  0.53070  0.92991  0.79598  1.0000
  H   H1392     1.0  0.53981  0.58270  0.77473  1.0000
  C   C875      1.0  0.50728  0.59350  0.76134  1.0000
  C   C876      1.0  0.47225  0.98661  0.78612  1.0000
  Fe  Fe175     1.0  0.46176  0.90232  0.74114  1.0000
  H   H1393     1.0  0.37917  0.95851  0.75350  1.0000
  H   H1394     1.0  0.62954  0.57708  0.86552  1.0000
  H   H1395     1.0  0.36547  0.92985  0.78881  1.0000
  C   C877      1.0  0.54698  0.60244  0.77178  1.0000
  C   C878      1.0  0.54373  0.63054  0.75518  1.0000
  C   C879      1.0  0.49700  0.94491  0.80234  1.0000
  H   H1396     1.0  0.51616  0.95968  0.80517  1.0000
  N   N86       1.0  0.53390  0.60419  0.75878  1.0000
  H   H1397     1.0  0.50367  0.60417  0.76993  1.0000
  H   H1398     1.0  0.39557  0.95182  0.78333  1.0000
  C   C880      1.0  0.37554  0.94194  0.78002  1.0000
  H   H1399     1.0  0.52892  0.49691  0.80691  1.0000
  H   H1400     1.0  0.50378  0.90434  0.80259  1.0000
  H   H1401     1.0  0.34102  0.90357  0.75204  1.0000
  C   C881      1.0  0.51502  0.86194  0.74918  1.0000
  H   H1402     1.0  0.35773  0.84744  0.74653  1.0000
  H   H1403     1.0  0.47601  0.70403  0.75175  1.0000
  H   H1404     1.0  0.54043  0.64160  0.76369  1.0000
  C   C882      1.0  0.34118  0.84798  0.74281  1.0000
  C   C883      1.0  0.51820  0.68255  0.74240  1.0000
  H   H1405     1.0  0.62865  0.57278  0.91105  1.0000
  H   H1406     1.0  0.48961  0.93382  0.81191  1.0000
  H   H1407     1.0  0.58886  0.98405  0.94884  1.0000
  H   H1408     1.0  0.49538  0.95381  0.77441  1.0000
  H   H1409     1.0  0.60973  0.97376  0.92953  1.0000
  C   C884      1.0  0.64347  0.83030  0.78073  1.0000
  H   H1410     1.0  0.56713  0.61020  0.77027  1.0000
  H   H1411     1.0  0.64578  0.67704  0.85204  1.0000
  H   H1412     1.0  0.64804  0.76731  0.98573  1.0000
  S   S349      1.0  0.56314  0.49989  0.88426  1.0000
  H   H1413     1.0  0.47203  0.73101  0.75584  1.0000
  H   H1414     1.0  0.58021  0.98973  0.92340  1.0000
  H   H1415     1.0  0.53325  0.52153  0.78548  1.0000
  H   H1416     1.0  0.62525  0.51121  0.85484  1.0000
  C   C885      1.0  0.51503  0.50904  0.78895  1.0000
  C   C886      1.0  0.63453  0.50437  0.88166  1.0000
  H   H1417     1.0  0.65192  0.86452  0.79242  1.0000
  H   H1418     1.0  0.59642  0.49762  0.86354  1.0000
  H   H1419     1.0  0.62145  0.50969  0.88685  1.0000
  H   H1420     1.0  0.53479  0.63231  0.74512  1.0000
  H   H1421     1.0  0.65340  0.79734  0.74676  1.0000
  N   N87       1.0  0.87140  0.03148  0.10342  1.0000
  H   H1422     1.0  0.84819  0.42167  0.21667  1.0000
  C   C887      1.0  0.73383  0.01792  0.08429  1.0000
  C   C888      1.0  0.96053  0.29304  0.99071  1.0000
  Fe  Fe176     1.0  0.84168  0.08997  0.11124  1.0000
  S   S350      1.0  0.85451  0.08469  0.13294  1.0000
  S   S351      1.0  0.81694  0.05467  0.09750  1.0000
  Fe  Fe177     1.0  0.88075  0.14549  0.11209  1.0000
  S   S352      1.0  0.89626  0.14365  0.13373  1.0000
  S   S353      1.0  0.89450  0.18119  0.09971  1.0000
  Fe  Fe178     1.0  0.89294  0.10701  0.12572  1.0000
  S   S354      1.0  0.92480  0.09775  0.12817  1.0000
  Fe  Fe179     1.0  0.85659  0.12156  0.13966  1.0000
  S   S355      1.0  0.84759  0.12442  0.16297  1.0000
  S   S356      1.0  0.88047  0.11060  0.10360  1.0000
  S   S357      1.0  0.84076  0.12529  0.11840  1.0000
  S   S358      1.0  0.97897  0.48508  0.21246  1.0000
  S   S359      1.0  0.98601  0.99531  0.14500  1.0000
  S   S360      1.0  0.90407  0.44303  0.21812  1.0000
  C   C889      1.0  0.73033  0.00473  0.04090  1.0000
  N   N88       1.0  0.95292  0.41014  0.19563  1.0000
  Fe  Fe180     1.0  0.94395  0.46632  0.22538  1.0000
  H   H1423     1.0  0.68831  0.00284  0.03098  1.0000
  Fe  Fe181     1.0  0.79107  0.18926  0.21592  1.0000
  S   S361      1.0  0.76488  0.20431  0.22201  1.0000
  S   S362      1.0  0.79976  0.18683  0.19257  1.0000
  H   H1424     1.0  0.92699  0.41908  0.18477  1.0000
  H   H1425     1.0  0.80082  0.35573  0.20938  1.0000
  C   C890      1.0  0.97881  0.29861  0.00166  1.0000
  H   H1426     1.0  0.90750  0.04210  0.11274  1.0000
  H   H1427     1.0  0.95223  0.24872  0.02966  1.0000
  H   H1428     1.0  0.96221  0.48007  0.16016  1.0000
  C   C891      1.0  0.96894  0.48279  0.18302  1.0000
  H   H1429     1.0  0.89568  0.07017  0.10035  1.0000
  H   H1430     1.0  0.94862  0.40126  0.21772  1.0000
  C   C892      1.0  0.96850  0.26913  0.10840  1.0000
  H   H1431     1.0  0.78703  0.38439  0.23189  1.0000
  H   H1432     1.0  0.83533  0.28242  0.22051  1.0000
  H   H1433     1.0  0.86527  0.32367  0.21203  1.0000
  C   C893      1.0  0.83423  0.14196  0.17092  1.0000
  C   C894      1.0  0.82733  0.15699  0.16302  1.0000
  C   C895      1.0  0.81684  0.17055  0.16983  1.0000
  C   C896      1.0  0.81313  0.16932  0.18459  1.0000
  C   C897      1.0  0.82014  0.15436  0.19250  1.0000
  C   C898      1.0  0.83061  0.14078  0.18570  1.0000
  H   H1434     1.0  0.82993  0.15810  0.15167  1.0000
  H   H1435     1.0  0.81147  0.18202  0.16359  1.0000
  H   H1436     1.0  0.81738  0.15318  0.20384  1.0000
  H   H1437     1.0  0.83579  0.12918  0.19192  1.0000
  C   C899      1.0  0.93372  0.03753  0.15247  1.0000
  C   C900      1.0  0.91188  0.03958  0.15340  1.0000
  C   C901      1.0  0.90885  0.05799  0.14616  1.0000
  C   C902      1.0  0.92766  0.07451  0.13782  1.0000
  C   C903      1.0  0.94949  0.07251  0.13693  1.0000
  C   C904      1.0  0.95255  0.05415  0.14421  1.0000
  H   H1438     1.0  0.89722  0.02679  0.15978  1.0000
  H   H1439     1.0  0.89200  0.05934  0.14704  1.0000
  H   H1440     1.0  0.96419  0.08522  0.13054  1.0000
  H   H1441     1.0  0.96945  0.05283  0.14340  1.0000
  C   C905      1.0  0.74813  0.00627  0.08097  1.0000
  H   H1442     1.0  0.96877  0.21652  0.00118  1.0000
  H   H1443     1.0  0.73750  0.04460  0.05717  1.0000
  H   H1444     1.0  0.73119  0.04681  0.01764  1.0000
  S   S363      1.0  0.77425  0.15740  0.23037  1.0000
  C   C906      1.0  0.86202  0.03649  0.11678  1.0000
  C   C907      1.0  0.94966  0.23173  0.07652  1.0000
  C   C908      1.0  0.92697  0.21773  0.08298  1.0000
  C   C909      1.0  0.92325  0.19773  0.09152  1.0000
  C   C910      1.0  0.94254  0.19185  0.09349  1.0000
  C   C911      1.0  0.96529  0.20596  0.08712  1.0000
  H   H1445     1.0  0.95193  0.24658  0.06971  1.0000
  H   H1446     1.0  0.91203  0.22221  0.08126  1.0000
  H   H1447     1.0  0.93996  0.17649  0.09998  1.0000
  H   H1448     1.0  0.96241  0.20712  0.04017  1.0000
  H   H1449     1.0  0.97010  0.26895  0.12021  1.0000
  H   H1450     1.0  0.80924  0.41495  0.22705  1.0000
  C   C912      1.0  0.77348  0.01782  0.08509  1.0000
  C   C913      1.0  0.78484  0.04103  0.09267  1.0000
  C   C914      1.0  0.77054  0.05266  0.09598  1.0000
  C   C915      1.0  0.85119  0.01000  0.09546  1.0000
  H   H1451     1.0  0.88751  0.05050  0.08442  1.0000
  C   C916      1.0  0.89196  0.02602  0.10683  1.0000
  H   H1452     1.0  0.77896  0.07050  0.10178  1.0000
  H   H1453     1.0  0.73438  0.05042  0.09438  1.0000
  H   H1454     1.0  0.69498  0.01633  0.04887  1.0000
  C   C917      1.0  0.97146  0.25148  0.03069  1.0000
  H   H1455     1.0  0.95942  0.28565  0.08410  1.0000
  C   C918      1.0  0.66167  0.00032  0.98882  1.0000
  H   H1456     1.0  0.72220  0.01452  0.01422  1.0000
  C   C919      1.0  0.84069  0.29903  0.22722  1.0000
  C   C920      1.0  0.96911  0.22614  0.07874  1.0000
  H   H1457     1.0  0.82434  0.35383  0.22022  1.0000
  N   N89       1.0  0.97417  0.23170  0.02274  1.0000
  S   S364      1.0  0.88586  0.37377  0.22395  1.0000
  C   C921      1.0  0.67249  0.15439  0.23609  1.0000
  H   H1458     1.0  0.83550  0.01383  0.09277  1.0000
  H   H1459     1.0  0.87984  0.10043  0.15986  1.0000
  H   H1460     1.0  0.97535  0.30206  0.01251  1.0000
  C   C922      1.0  0.73378  0.03103  0.02145  1.0000
  H   H1461     1.0  0.92521  0.37217  0.19742  1.0000
  H   H1462     1.0  0.97540  0.31195  0.12153  1.0000
  H   H1463     1.0  0.78432  0.00862  0.08247  1.0000
  C   C923      1.0  0.85332  0.49015  0.23558  1.0000
  H   H1464     1.0  0.94309  0.29222  0.99327  1.0000
  H   H1465     1.0  0.76237  0.05315  0.04529  1.0000
  H   H1466     1.0  0.68679  0.17287  0.23401  1.0000
  S   S365      1.0  0.82089  0.21382  0.23207  1.0000
  H   H1467     1.0  0.74029  0.06448  0.04280  1.0000
  C   C924      1.0  0.74523  0.04120  0.09176  1.0000
  H   H1468     1.0  0.84377  0.99307  0.10184  1.0000
  H   H1469     1.0  0.69719  0.03519  0.03409  1.0000
  H   H1470     1.0  0.94312  0.43903  0.20000  1.0000
  H   H1471     1.0  0.97536  0.25651  0.10389  1.0000
  H   H1472     1.0  0.87639  0.05341  0.12261  1.0000
  H   H1473     1.0  0.87069  0.09475  0.17780  1.0000
  H   H1474     1.0  0.74994  0.00880  0.04043  1.0000
  N   N90       1.0  0.82080  0.38690  0.22421  1.0000
  C   C925      1.0  0.88040  0.05358  0.09464  1.0000
  C   C926      1.0  0.80993  0.36008  0.22023  1.0000
  H   H1475     1.0  0.75340  0.03566  0.02011  1.0000
  H   H1476     1.0  0.94848  0.26069  0.10526  1.0000
  S   S366      1.0  0.93636  0.01380  0.16171  1.0000
  H   H1477     1.0  0.84579  0.03962  0.11466  1.0000
  C   C927      1.0  0.83950  0.40133  0.21390  1.0000
  C   C928      1.0  0.85771  0.32255  0.22243  1.0000
  Fe  Fe182     1.0  0.90311  0.41424  0.23308  1.0000
  C   C929      1.0  0.97925  0.29385  0.08758  1.0000
  H   H1478     1.0  0.94961  0.47465  0.18532  1.0000
  Fe  Fe183     1.0  0.96937  0.00605  0.16331  1.0000
  C   C930      1.0  0.80133  0.39468  0.22411  1.0000
  H   H1479     1.0  0.88670  0.07949  0.16977  1.0000
  C   C931      1.0  0.97324  0.31086  0.10969  1.0000
  C   C932      1.0  0.96332  0.41225  0.21027  1.0000
  H   H1480     1.0  0.97264  0.43199  0.21449  1.0000
  N   N91       1.0  0.90959  0.11834  0.17548  1.0000
  C   C933      1.0  0.91684  0.11337  0.18966  1.0000
  C   C934      1.0  0.92862  0.12136  0.16523  1.0000
  C   C935      1.0  0.90710  0.14132  0.17645  1.0000
  C   C936      1.0  0.88570  0.09724  0.17054  1.0000
  H   H1481     1.0  0.91883  0.09611  0.18926  1.0000
  H   H1482     1.0  0.90278  0.11093  0.19760  1.0000
  H   H1483     1.0  0.93481  0.12892  0.19373  1.0000
  H   H1484     1.0  0.94690  0.13722  0.16851  1.0000
  H   H1485     1.0  0.93099  0.10437  0.16420  1.0000
  H   H1486     1.0  0.92358  0.12489  0.15438  1.0000
  H   H1487     1.0  0.90181  0.14568  0.16588  1.0000
  H   H1488     1.0  0.92462  0.15766  0.18032  1.0000
  H   H1489     1.0  0.89234  0.13944  0.18376  1.0000
  H   H1490     1.0  0.91895  0.40823  0.20247  1.0000
  H   H1491     1.0  0.94830  0.22887  0.00594  1.0000
  H   H1492     1.0  0.95944  0.19200  0.02298  1.0000
  C   C937      1.0  0.86489  0.34453  0.23088  1.0000
  N   N92       1.0  0.72685  0.02596  0.03644  1.0000
  C   C938      1.0  0.70068  0.01983  0.03764  1.0000
  H   H1493     1.0  0.85617  0.02076  0.12403  1.0000
  C   C939      1.0  0.96744  0.23154  0.00749  1.0000
  H   H1494     1.0  0.96583  0.42529  0.17519  1.0000
  H   H1495     1.0  0.83125  0.39834  0.20288  1.0000
  H   H1496     1.0  0.89945  0.02199  0.09701  1.0000
  S   S367      1.0  0.70197  0.00474  0.07896  1.0000
  C   C940      1.0  0.93466  0.41949  0.19569  1.0000
  H   H1497     1.0  0.79589  0.34855  0.22785  1.0000
  H   H1498     1.0  0.93807  0.20321  0.02767  1.0000
  C   C941      1.0  0.97303  0.42505  0.18615  1.0000
  C   C942      1.0  0.94058  0.38378  0.19048  1.0000
  C   C943      1.0  0.74248  0.04807  0.04580  1.0000
  H   H1499     1.0  0.98347  0.33018  0.10593  1.0000
  H   H1500     1.0  0.85752  0.00564  0.08528  1.0000
  H   H1501     1.0  0.95331  0.30391  0.10682  1.0000
  H   H1502     1.0  0.86539  0.05838  0.09200  1.0000
  H   H1503     1.0  0.98009  0.20126  0.08879  1.0000
  H   H1504     1.0  0.85452  0.39598  0.21372  1.0000
  H   H1505     1.0  0.97729  0.40551  0.21069  1.0000
  H   H1506     1.0  0.98606  0.01782  0.21507  1.0000
  C   C944      1.0  0.97617  0.48597  0.16873  1.0000
  H   H1507     1.0  0.72472  0.00009  0.05206  1.0000
  H   H1508     1.0  0.88602  0.00974  0.11368  1.0000
  C   C945      1.0  0.95778  0.20740  0.02863  1.0000
  H   H1509     1.0  0.79197  0.39142  0.21338  1.0000
  H   H1510     1.0  0.95371  0.37596  0.19040  1.0000
  H   H1511     1.0  0.93256  0.38160  0.17944  1.0000
  H   H1512     1.0  0.97623  0.25194  0.04226  1.0000
  N   N93       1.0  0.98247  0.29457  0.10324  1.0000
  H   H1513     1.0  0.98349  0.44474  0.19024  1.0000
  Fe  Fe184     1.0  0.89498  0.46040  0.23714  1.0000
  C   C946      1.0  0.82872  0.48601  0.23591  1.0000
  S   S368      1.0  0.85924  0.46408  0.23600  1.0000
  C   C947      1.0  0.98679  0.49036  0.19422  1.0000
  H   H1514     1.0  0.98378  0.27009  0.02662  1.0000
  H   H1515     1.0  0.97996  0.24945  0.00271  1.0000
  H   H1516     1.0  0.98659  0.41784  0.18533  1.0000
  H   H1517     1.0  0.98697  0.28258  0.08235  1.0000
  H   H1518     1.0  0.81394  0.46723  0.23655  1.0000
  C   C948      1.0  0.96122  0.24605  0.39122  1.0000
  H   H1519     1.0  0.87959  0.25384  0.28741  1.0000
  S   S369      1.0  0.95997  0.03146  0.33638  1.0000
  Fe  Fe185     1.0  0.88958  0.14007  0.36024  1.0000
  S   S370      1.0  0.88696  0.13673  0.33625  1.0000
  S   S371      1.0  0.92448  0.16415  0.37415  1.0000
  Fe  Fe186     1.0  0.83793  0.09485  0.36293  1.0000
  S   S372      1.0  0.83157  0.08795  0.33906  1.0000
  S   S373      1.0  0.81449  0.07793  0.38228  1.0000
  Fe  Fe187     1.0  0.87142  0.09545  0.33886  1.0000
  S   S374      1.0  0.88561  0.07534  0.32378  1.0000
  Fe  Fe188     1.0  0.84762  0.12957  0.33786  1.0000
  S   S375      1.0  0.82852  0.14870  0.32608  1.0000
  S   S376      1.0  0.87646  0.09912  0.36266  1.0000
  S   S377      1.0  0.85155  0.13612  0.36181  1.0000
  Fe  Fe189     1.0  0.93311  0.45473  0.25674  1.0000
  S   S378      1.0  0.94654  0.45525  0.27979  1.0000
  C   C949      1.0  0.66775  0.00334  0.38822  1.0000
  S   S379      1.0  0.89238  0.43041  0.25166  1.0000
  Fe  Fe190     1.0  0.80214  0.18295  0.24713  1.0000
  S   S380      1.0  0.77715  0.19751  0.25529  1.0000
  S   S381      1.0  0.82555  0.16960  0.25992  1.0000
  C   C950      1.0  0.77150  0.10499  0.27216  1.0000
  Fe  Fe191     1.0  0.97394  0.01314  0.31999  1.0000
  H   H1520     1.0  0.92099  0.11059  0.34574  1.0000
  C   C951      1.0  0.96276  0.27882  0.48502  1.0000
  H   H1521     1.0  0.93772  0.13023  0.36100  1.0000
  H   H1522     1.0  0.97185  0.33953  0.36532  1.0000
  H   H1523     1.0  0.88679  0.27949  0.25120  1.0000
  H   H1524     1.0  0.77475  0.11023  0.28378  1.0000
  H   H1525     1.0  0.72283  0.07286  0.27109  1.0000
  H   H1526     1.0  0.82973  0.31798  0.25934  1.0000
  C   C952      1.0  0.82795  0.15428  0.30763  1.0000
  C   C953      1.0  0.84048  0.14728  0.29775  1.0000
  C   C954      1.0  0.83964  0.15227  0.28323  1.0000
  C   C955      1.0  0.82619  0.16419  0.27838  1.0000
  C   C956      1.0  0.81361  0.17118  0.28824  1.0000
  C   C957      1.0  0.81449  0.16622  0.30277  1.0000
  H   H1527     1.0  0.85089  0.13807  0.30132  1.0000
  H   H1528     1.0  0.84944  0.14678  0.27570  1.0000
  H   H1529     1.0  0.80334  0.18053  0.28471  1.0000
  H   H1530     1.0  0.80479  0.17177  0.31034  1.0000
  H   H1531     1.0  0.88315  0.23894  0.27155  1.0000
  H   H1532     1.0  0.68325  0.99999  0.39190  1.0000
  C   C958      1.0  0.93883  0.04299  0.33263  1.0000
  C   C959      1.0  0.93200  0.04534  0.31867  1.0000
  C   C960      1.0  0.91531  0.05481  0.31618  1.0000
  C   C961      1.0  0.90513  0.06187  0.32757  1.0000
  C   C962      1.0  0.91141  0.05882  0.34152  1.0000
  C   C963      1.0  0.92839  0.04971  0.34403  1.0000
  H   H1533     1.0  0.93975  0.04011  0.30978  1.0000
  H   H1534     1.0  0.91044  0.05691  0.30533  1.0000
  H   H1535     1.0  0.90321  0.06353  0.35038  1.0000
  H   H1536     1.0  0.93331  0.04765  0.35487  1.0000
  H   H1537     1.0  0.96292  0.10366  0.33402  1.0000
  H   H1538     1.0  0.71244  0.09555  0.26816  1.0000
  Fe  Fe192     1.0  0.79431  0.22727  0.23905  1.0000
  H   H1539     1.0  0.82427  0.24067  0.26471  1.0000
  C   C964      1.0  0.97103  0.23026  0.39483  1.0000
  C   C965      1.0  0.95956  0.20533  0.38946  1.0000
  C   C966      1.0  0.93817  0.19584  0.38042  1.0000
  C   C967      1.0  0.92827  0.21157  0.37686  1.0000
  C   C968      1.0  0.93977  0.23652  0.38221  1.0000
  N   N94       1.0  0.95924  0.13492  0.34252  1.0000
  C   C969      1.0  0.96016  0.11945  0.33036  1.0000
  H   H1540     1.0  0.91183  0.20460  0.36993  1.0000
  H   H1541     1.0  0.74270  0.08278  0.24812  1.0000
  H   H1542     1.0  0.67297  0.99651  0.35265  1.0000
  C   C970      1.0  0.75301  0.02211  0.39874  1.0000
  C   C971      1.0  0.77522  0.04421  0.39702  1.0000
  C   C972      1.0  0.78619  0.04990  0.38369  1.0000
  C   C973      1.0  0.77449  0.03321  0.37205  1.0000
  C   C974      1.0  0.75232  0.01108  0.37378  1.0000
  S   S382      1.0  0.93519  0.48597  0.24354  1.0000
  H   H1543     1.0  0.78404  0.05690  0.40613  1.0000
  H   H1544     1.0  0.78264  0.03721  0.36174  1.0000
  H   H1545     1.0  0.98696  0.13127  0.35511  1.0000
  H   H1546     1.0  0.67460  0.02378  0.38885  1.0000
  C   C975      1.0  0.86880  0.26292  0.25295  1.0000
  C   C976      1.0  0.83930  0.23815  0.26998  1.0000
  H   H1547     1.0  0.90157  0.27204  0.27464  1.0000
  N   N95       1.0  0.75130  0.10894  0.26595  1.0000
  C   C977      1.0  0.93914  0.11925  0.35175  1.0000
  C   C978      1.0  0.83264  0.39166  0.23864  1.0000
  H   H1548     1.0  0.74365  0.99822  0.36472  1.0000
  H   H1549     1.0  0.88142  0.29942  0.27311  1.0000
  H   H1550     1.0  0.97538  0.13049  0.32325  1.0000
  H   H1551     1.0  0.84896  0.28577  0.26880  1.0000
  H   H1552     1.0  0.73450  0.10712  0.24523  1.0000
  H   H1553     1.0  0.74497  0.01796  0.40908  1.0000
  C   C979      1.0  0.86343  0.28252  0.27430  1.0000
  H   H1554     1.0  0.94212  0.10404  0.35609  1.0000
  H   H1555     1.0  0.76623  0.11365  0.24513  1.0000
  H   H1556     1.0  0.76011  0.14075  0.28002  1.0000
  H   H1557     1.0  0.95246  0.16620  0.34608  1.0000
  C   C980      1.0  0.74147  0.00529  0.38713  1.0000
  H   H1558     1.0  0.96978  0.16776  0.33058  1.0000
  S   S383      1.0  0.71065  0.14276  0.24309  1.0000
  N   N96       1.0  0.86720  0.14145  0.40637  1.0000
  C   C981      1.0  0.87251  0.14264  0.42189  1.0000
  C   C982      1.0  0.84077  0.13404  0.40364  1.0000
  C   C983      1.0  0.87299  0.12291  0.39936  1.0000
  C   C984      1.0  0.88256  0.16612  0.40057  1.0000
  H   H1559     1.0  0.86119  0.12429  0.42657  1.0000
  H   H1560     1.0  0.86844  0.15654  0.42752  1.0000
  H   H1561     1.0  0.89230  0.14805  0.42428  1.0000
  H   H1562     1.0  0.83556  0.14744  0.40882  1.0000
  H   H1563     1.0  0.83611  0.13293  0.39201  1.0000
  H   H1564     1.0  0.82867  0.11524  0.40761  1.0000
  H   H1565     1.0  0.86872  0.12131  0.38772  1.0000
  H   H1566     1.0  0.86177  0.10400  0.40344  1.0000
  H   H1567     1.0  0.89289  0.12808  0.40085  1.0000
  H   H1568     1.0  0.87937  0.16578  0.38882  1.0000
  H   H1569     1.0  0.90262  0.17229  0.40250  1.0000
  H   H1570     1.0  0.87858  0.18062  0.40546  1.0000
  S   S384      1.0  0.80833  0.26803  0.24713  1.0000
  H   H1571     1.0  0.97558  0.28723  0.46355  1.0000
  C   C985      1.0  0.67909  0.13637  0.24031  1.0000
  H   H1572     1.0  0.93722  0.14715  0.33034  1.0000
  C   C986      1.0  0.97910  0.47279  0.30317  1.0000
  H   H1573     1.0  0.86933  0.24633  0.24805  1.0000
  H   H1574     1.0  0.78925  0.11655  0.26700  1.0000
  C   C987      1.0  0.83028  0.29714  0.24052  1.0000
  H   H1575     1.0  0.86030  0.35913  0.25108  1.0000
  H   H1576     1.0  0.96735  0.19334  0.39235  1.0000
  H   H1577     1.0  0.93198  0.24854  0.37936  1.0000
  H   H1578     1.0  0.83854  0.22089  0.26518  1.0000
  C   C988      1.0  0.83753  0.31911  0.24901  1.0000
  H   H1579     1.0  0.85434  0.26539  0.24688  1.0000
  H   H1580     1.0  0.83497  0.23491  0.28141  1.0000
  C   C989      1.0  0.88289  0.25608  0.27581  1.0000
  C   C990      1.0  0.75725  0.13523  0.26845  1.0000
  H   H1581     1.0  0.76749  0.08525  0.27074  1.0000
  N   N97       1.0  0.86363  0.25994  0.26827  1.0000
  C   C991      1.0  0.98021  0.29198  0.47480  1.0000
  C   C992      1.0  0.85481  0.34259  0.24430  1.0000
  H   H1582     1.0  0.94260  0.11120  0.32372  1.0000
  C   C993      1.0  0.97433  0.47720  0.28907  1.0000
  H   H1583     1.0  0.74226  0.13888  0.26414  1.0000
  C   C994      1.0  0.74850  0.10281  0.25044  1.0000
  H   H1584     1.0  0.72940  0.09717  0.28442  1.0000
  H   H1585     1.0  0.68623  0.02475  0.36373  1.0000
  C   C995      1.0  0.67120  0.99438  0.47659  1.0000
  H   H1586     1.0  0.66469  0.09827  0.24618  1.0000
  H   H1587     1.0  0.94483  0.26398  0.48147  1.0000
  H   H1588     1.0  0.77436  0.14779  0.26315  1.0000
  C   C996      1.0  0.95454  0.15494  0.33715  1.0000
  H   H1589     1.0  0.85946  0.28093  0.28583  1.0000
  C   C997      1.0  0.72794  0.09288  0.27273  1.0000
  S   S385      1.0  0.97507  0.27778  0.39748  1.0000
  C   C998      1.0  0.65997  0.11247  0.24299  1.0000
  H   H1590     1.0  0.96589  0.45616  0.30806  1.0000
  H   H1591     1.0  0.66359  0.47823  0.23911  1.0000
  H   H1592     1.0  0.90416  0.99414  0.34113  1.0000
  H   H1593     1.0  0.66134  0.99406  0.46681  1.0000
  S   S386      1.0  0.94362  0.43637  0.23907  1.0000
  H   H1594     1.0  0.81932  0.38053  0.24668  1.0000
  H   H1595     1.0  0.74727  0.07765  0.48658  1.0000
  H   H1596     1.0  0.98267  0.15763  0.36017  1.0000
  H   H1597     1.0  0.98213  0.30592  0.37124  1.0000
  C   C999      1.0  0.98296  0.14595  0.35089  1.0000
  C   C1000     1.0  0.98241  0.01631  0.23794  1.0000
  C   C1001     1.0  0.67902  0.00425  0.36376  1.0000
  H   H1598     1.0  0.97475  0.02908  0.23836  1.0000
  H   H1599     1.0  0.84042  0.41163  0.24216  1.0000
  H   H1600     1.0  0.98481  0.33552  0.39028  1.0000
  H   H1601     1.0  0.69483  0.00091  0.36693  1.0000
  S   S387      1.0  0.97869  0.01598  0.26699  1.0000
  C   C1002     1.0  0.98588  0.00634  0.25059  1.0000
  H   H1602     1.0  0.84803  0.38687  0.23895  1.0000
  Fe  Fe193     1.0  0.98137  0.00227  0.28889  1.0000
  Fe  Fe194     1.0  0.74963  0.17350  0.23768  1.0000
  Fe  Fe195     1.0  0.74516  0.06730  0.55722  1.0000
  S   S388      1.0  0.71368  0.07136  0.54741  1.0000
  S   S389      1.0  0.78501  0.09315  0.55092  1.0000
  Fe  Fe196     1.0  0.70983  0.01653  0.56887  1.0000
  S   S390      1.0  0.67609  0.01754  0.55933  1.0000
  Fe  Fe197     1.0  0.69783  0.03141  0.53965  1.0000
  S   S391      1.0  0.67926  0.02385  0.51724  1.0000
  Fe  Fe198     1.0  0.69373  0.05717  0.56771  1.0000
  H   H1603     1.0  0.95604  0.46494  0.72624  1.0000
  S   S392      1.0  0.73014  0.02754  0.54848  1.0000
  S   S393      1.0  0.72672  0.05596  0.57837  1.0000
  Fe  Fe199     1.0  0.89960  0.23691  0.55741  1.0000
  S   S394      1.0  0.92490  0.25825  0.57634  1.0000
  S   S395      1.0  0.85959  0.20953  0.56252  1.0000
  Fe  Fe200     1.0  0.94095  0.26488  0.53632  1.0000
  S   S396      1.0  0.96896  0.28660  0.55407  1.0000
  S   S397      1.0  0.94497  0.26765  0.51202  1.0000
  Fe  Fe201     1.0  0.95334  0.25072  0.56564  1.0000
  H   H1604     1.0  0.73437  0.03790  0.51798  1.0000
  Fe  Fe202     1.0  0.93813  0.29238  0.56343  1.0000
  S   S398      1.0  0.94858  0.33264  0.57076  1.0000
  S   S399      1.0  0.92745  0.22829  0.54711  1.0000
  S   S400      1.0  0.91077  0.27182  0.54528  1.0000
  Fe  Fe203     1.0  0.90915  0.47574  0.61500  1.0000
  S   S401      1.0  0.89603  0.47144  0.63750  1.0000
  Fe  Fe204     1.0  0.89448  0.41972  0.61149  1.0000
  S   S402      1.0  0.87953  0.41261  0.63353  1.0000
  S   S403      1.0  0.88839  0.38371  0.59933  1.0000
  Fe  Fe205     1.0  0.86239  0.43705  0.62872  1.0000
  S   S404      1.0  0.82477  0.43403  0.63411  1.0000
  Fe  Fe206     1.0  0.91432  0.44739  0.64057  1.0000
  C   C1003     1.0  0.95821  0.46514  0.67164  1.0000
  S   S405      1.0  0.87482  0.44221  0.60605  1.0000
  S   S406      1.0  0.92993  0.45366  0.61869  1.0000
  H   H1605     1.0  0.89793  0.19843  0.60431  1.0000
  C   C1004     1.0  0.68245  0.29031  0.63016  1.0000
  S   S407      1.0  0.98250  0.01836  0.67438  1.0000
  H   H1606     1.0  0.85802  0.16481  0.58240  1.0000
  Fe  Fe207     1.0  0.68865  0.33645  0.66104  1.0000
  S   S408      1.0  0.72682  0.34158  0.65521  1.0000
  S   S409      1.0  0.67669  0.35561  0.67767  1.0000
  H   H1607     1.0  0.75444  0.09212  0.52582  1.0000
  N   N98       1.0  0.93384  0.38264  0.63617  1.0000
  H   H1608     1.0  0.96897  0.37995  0.52666  1.0000
  H   H1609     1.0  0.69915  0.30672  0.62654  1.0000
  S   S410      1.0  0.93396  0.44228  0.66034  1.0000
  C   C1005     1.0  0.79773  0.40802  0.63995  1.0000
  C   C1006     1.0  0.79666  0.38487  0.64195  1.0000
  C   C1007     1.0  0.77485  0.36487  0.64661  1.0000
  C   C1008     1.0  0.75379  0.36765  0.64936  1.0000
  C   C1009     1.0  0.75483  0.39078  0.64734  1.0000
  C   C1010     1.0  0.77665  0.41079  0.64267  1.0000
  H   H1610     1.0  0.81264  0.38238  0.63992  1.0000
  H   H1611     1.0  0.77435  0.34713  0.64815  1.0000
  H   H1612     1.0  0.73885  0.39327  0.64939  1.0000
  H   H1613     1.0  0.77719  0.42856  0.64119  1.0000
  H   H1614     1.0  0.75288  0.05126  0.48768  1.0000
  H   H1615     1.0  0.90849  0.16379  0.60464  1.0000
  C   C1011     1.0  0.75419  0.05026  0.51613  1.0000
  C   C1012     1.0  0.93151  0.34631  0.57891  1.0000
  C   C1013     1.0  0.94388  0.37173  0.58326  1.0000
  C   C1014     1.0  0.93113  0.38356  0.58950  1.0000
  C   C1015     1.0  0.90570  0.37011  0.59141  1.0000
  C   C1016     1.0  0.89338  0.34471  0.58705  1.0000
  C   C1017     1.0  0.90614  0.33286  0.58089  1.0000
  H   H1616     1.0  0.96348  0.38242  0.58175  1.0000
  H   H1617     1.0  0.94093  0.40314  0.59262  1.0000
  H   H1618     1.0  0.87373  0.33405  0.58845  1.0000
  H   H1619     1.0  0.89627  0.31334  0.57761  1.0000
  H   H1620     1.0  0.93130  0.40362  0.61881  1.0000
  H   H1621     1.0  0.91893  0.32335  0.54140  1.0000
  H   H1622     1.0  0.96919  0.39225  0.64625  1.0000
  H   H1623     1.0  0.68212  0.25487  0.61245  1.0000
  S   S411      1.0  0.67185  0.07727  0.57494  1.0000
  H   H1624     1.0  0.66040  0.05166  0.54538  1.0000
  C   C1018     1.0  0.80512  0.12570  0.55402  1.0000
  C   C1019     1.0  0.79891  0.14093  0.56258  1.0000
  C   C1020     1.0  0.81567  0.16650  0.56485  1.0000
  C   C1021     1.0  0.83882  0.17734  0.55858  1.0000
  C   C1022     1.0  0.84493  0.16215  0.54989  1.0000
  C   C1023     1.0  0.82825  0.13653  0.54771  1.0000
  H   H1625     1.0  0.78124  0.13299  0.56753  1.0000
  H   H1626     1.0  0.81064  0.17798  0.57158  1.0000
  H   H1627     1.0  0.86244  0.17011  0.54479  1.0000
  H   H1628     1.0  0.83330  0.12500  0.54104  1.0000
  C   C1024     1.0  0.66914  0.33909  0.72618  1.0000
  C   C1025     1.0  0.66521  0.24889  0.63892  1.0000
  H   H1629     1.0  0.94553  0.31869  0.50692  1.0000
  C   C1026     1.0  0.93271  0.32010  0.51467  1.0000
  C   C1027     1.0  0.85566  0.48867  0.60955  1.0000
  H   H1630     1.0  0.76148  0.03875  0.51070  1.0000
  N   N99       1.0  0.94609  0.34032  0.52562  1.0000
  C   C1028     1.0  0.96889  0.49054  0.66917  1.0000
  C   C1029     1.0  0.74516  0.06217  0.49337  1.0000
  H   H1631     1.0  0.89740  0.00031  0.71194  1.0000
  H   H1632     1.0  0.90045  0.35821  0.64628  1.0000
  C   C1030     1.0  0.94349  0.40575  0.62828  1.0000
  H   H1633     1.0  0.89176  0.18712  0.56531  1.0000
  H   H1634     1.0  0.67957  0.34898  0.71724  1.0000
  H   H1635     1.0  0.89710  0.16059  0.56510  1.0000
  C   C1031     1.0  0.96825  0.28460  0.49974  1.0000
  H   H1636     1.0  0.97198  0.36428  0.51090  1.0000
  H   H1637     1.0  0.84597  0.46934  0.61323  1.0000
  C   C1032     1.0  0.94987  0.38683  0.64906  1.0000
  C   C1033     1.0  0.69642  0.26172  0.62133  1.0000
  H   H1638     1.0  0.91405  0.34448  0.53047  1.0000
  H   H1639     1.0  0.92672  0.34478  0.63260  1.0000
  C   C1034     1.0  0.98643  0.47484  0.69263  1.0000
  S   S412      1.0  0.66407  0.29832  0.66919  1.0000
  S   S413      1.0  0.66050  0.33413  0.64443  1.0000
  H   H1640     1.0  0.86515  0.13947  0.58203  1.0000
  H   H1641     1.0  0.75281  0.00156  0.58845  1.0000
  H   H1642     1.0  0.71201  0.26422  0.64868  1.0000
  H   H1643     1.0  0.92310  0.30165  0.51952  1.0000
  C   C1035     1.0  0.94141  0.01962  0.69980  1.0000
  C   C1036     1.0  0.78393  0.08836  0.50630  1.0000
  H   H1644     1.0  0.92207  0.19113  0.56935  1.0000
  H   H1645     1.0  0.96227  0.41119  0.62446  1.0000
  N   N100      1.0  0.68786  0.26996  0.63398  1.0000
  H   H1646     1.0  0.93522  0.01447  0.68836  1.0000
  S   S414      1.0  0.96955  0.23013  0.57868  1.0000
  H   H1647     1.0  0.95216  0.36727  0.62311  1.0000
  H   H1648     1.0  0.89597  0.37281  0.63093  1.0000
  H   H1649     1.0  0.72458  0.29517  0.64220  1.0000
  H   H1650     1.0  0.98423  0.49084  0.72128  1.0000
  C   C1037     1.0  0.70733  0.27899  0.64550  1.0000
  H   H1651     1.0  0.70062  0.24632  0.62382  1.0000
  H   H1652     1.0  0.97493  0.35032  0.54189  1.0000
  C   C1038     1.0  0.66904  0.00651  0.48912  1.0000
  C   C1039     1.0  0.96880  0.48499  0.72867  1.0000
  H   H1653     1.0  0.65806  0.25459  0.64834  1.0000
  H   H1654     1.0  0.92312  0.47312  0.73656  1.0000
  H   H1655     1.0  0.93130  0.47634  0.71037  1.0000
  C   C1040     1.0  0.87012  0.15784  0.58739  1.0000
  H   H1656     1.0  0.70149  0.28547  0.65519  1.0000
  H   H1657     1.0  0.93805  0.35601  0.54436  1.0000
  C   C1041     1.0  0.90186  0.19994  0.59279  1.0000
  C   C1042     1.0  0.96472  0.33573  0.53333  1.0000
  H   H1658     1.0  0.90814  0.39049  0.64752  1.0000
  H   H1659     1.0  0.89044  0.20759  0.58766  1.0000
  N   N101      1.0  0.75731  0.07149  0.50765  1.0000
  C   C1043     1.0  0.90209  0.17869  0.57077  1.0000
  H   H1660     1.0  0.92161  0.21387  0.59187  1.0000
  H   H1661     1.0  0.78705  0.10465  0.49997  1.0000
  C   C1044     1.0  0.95858  0.36434  0.51867  1.0000
  H   H1662     1.0  0.91854  0.32289  0.50855  1.0000
  H   H1663     1.0  0.67602  0.29689  0.63948  1.0000
  N   N102      1.0  0.89652  0.17565  0.58602  1.0000
  H   H1664     1.0  0.79339  0.09569  0.51700  1.0000
  H   H1665     1.0  0.94472  0.42155  0.63512  1.0000
  H   H1666     1.0  0.95903  0.43784  0.68545  1.0000
  H   H1667     1.0  0.66849  0.23317  0.64200  1.0000
  C   C1045     1.0  0.91209  0.16627  0.59309  1.0000
  H   H1668     1.0  0.94311  0.36985  0.65537  1.0000
  H   H1669     1.0  0.86530  0.15475  0.59875  1.0000
  H   H1670     1.0  0.65746  0.01547  0.48883  1.0000
  C   C1046     1.0  0.74588  0.08510  0.51492  1.0000
  C   C1047     1.0  0.96708  0.45743  0.68345  1.0000
  C   C1048     1.0  0.93347  0.36242  0.62692  1.0000
  H   H1671     1.0  0.93213  0.17950  0.59221  1.0000
  H   H1672     1.0  0.72574  0.07289  0.51610  1.0000
  H   H1673     1.0  0.90868  0.14805  0.58817  1.0000
  C   C1049     1.0  0.92849  0.34112  0.53585  1.0000
  H   H1674     1.0  0.96071  0.01382  0.72429  1.0000
  H   H1675     1.0  0.79320  0.07860  0.50103  1.0000
  C   C1050     1.0  0.90848  0.37570  0.64042  1.0000
  H   H1676     1.0  0.94506  0.36845  0.51277  1.0000
  H   H1677     1.0  0.71348  0.27724  0.61735  1.0000
  H   H1678     1.0  0.92103  0.35854  0.61729  1.0000
  H   H1679     1.0  0.76405  0.05667  0.52676  1.0000
  H   H1680     1.0  0.95044  0.40209  0.65619  1.0000
  H   H1681     1.0  0.85631  0.48832  0.63807  1.0000
  C   C1051     1.0  0.68176  0.00718  0.50196  1.0000
  C   C1052     1.0  0.94016  0.00511  0.72357  1.0000
  H   H1682     1.0  0.81686  0.47889  0.62553  1.0000
  C   C1053     1.0  0.69663  0.99544  0.50212  1.0000
  H   H1683     1.0  0.74801  0.10141  0.50892  1.0000
  H   H1684     1.0  0.66757  0.28417  0.62164  1.0000
  H   H1685     1.0  0.93613  0.03396  0.70337  1.0000
  H   H1686     1.0  0.96198  0.02851  0.70034  1.0000
  H   H1687     1.0  0.95582  0.31773  0.53858  1.0000
  H   H1688     1.0  0.70611  0.99519  0.51192  1.0000
  H   H1689     1.0  0.97834  0.33495  0.52601  1.0000
  H   H1690     1.0  0.65799  0.47103  0.61915  1.0000
  H   H1691     1.0  0.72499  0.04960  0.49413  1.0000
  H   H1692     1.0  0.93491  0.01889  0.72817  1.0000
  N   N103      1.0  0.93060  0.99761  0.70864  1.0000
  H   H1693     1.0  0.84807  0.48846  0.59864  1.0000
  Fe  Fe208     1.0  0.68686  0.04447  0.91160  1.0000
  S   S415      1.0  0.72645  0.05765  0.90537  1.0000
  H   H1694     1.0  0.90333  0.18296  0.89066  1.0000
  Fe  Fe209     1.0  0.69711  0.03272  0.94214  1.0000
  S   S416      1.0  0.73720  0.04534  0.93829  1.0000
  S   S417      1.0  0.67464  0.02043  0.96241  1.0000
  Fe  Fe210     1.0  0.73758  0.07773  0.92703  1.0000
  S   S418      1.0  0.76618  0.11801  0.93351  1.0000
  Fe  Fe211     1.0  0.72407  0.02448  0.91682  1.0000
  S   S419      1.0  0.69819  0.06669  0.93241  1.0000
  S   S420      1.0  0.68400  0.00983  0.92147  1.0000
  Fe  Fe212     1.0  0.90186  0.23261  0.91739  1.0000
  S   S421      1.0  0.90371  0.26766  0.92697  1.0000
  S   S422      1.0  0.86911  0.19611  0.90883  1.0000
  Fe  Fe213     1.0  0.95818  0.25809  0.91275  1.0000
  S   S423      1.0  0.96409  0.29550  0.92179  1.0000
  H   H1695     1.0  0.94325  0.41409  0.84163  1.0000
  Fe  Fe214     1.0  0.93862  0.27304  0.93896  1.0000
  S   S424      1.0  0.94098  0.28221  0.96304  1.0000
  Fe  Fe215     1.0  0.92873  0.28796  0.90939  1.0000
  S   S425      1.0  0.91681  0.30752  0.89254  1.0000
  S   S426      1.0  0.93456  0.23631  0.93055  1.0000
  S   S427      1.0  0.92536  0.25249  0.89928  1.0000
  Fe  Fe216     1.0  0.68088  0.34349  0.82188  1.0000
  H   H1696     1.0  0.89989  0.14770  0.92293  1.0000
  S   S428      1.0  0.71474  0.37078  0.83563  1.0000
  H   H1697     1.0  0.91629  0.13256  0.90306  1.0000
  H   H1698     1.0  0.94534  0.16495  0.92074  1.0000
  C   C1054     1.0  0.97258  0.44464  0.86334  1.0000
  S   S429      1.0  0.67934  0.31659  0.80450  1.0000
  Fe  Fe217     1.0  0.86293  0.42166  0.84343  1.0000
  S   S430      1.0  0.86784  0.43400  0.86666  1.0000
  S   S431      1.0  0.82699  0.39272  0.83201  1.0000
  Fe  Fe218     1.0  0.91909  0.45128  0.83858  1.0000
  S   S432      1.0  0.92716  0.46588  0.86148  1.0000
  S   S433      1.0  0.95272  0.45760  0.82566  1.0000
  Fe  Fe219     1.0  0.90071  0.42658  0.86709  1.0000
  S   S434      1.0  0.91260  0.41006  0.88561  1.0000
  Fe  Fe220     1.0  0.89397  0.47216  0.85917  1.0000
  S   S435      1.0  0.89410  0.41185  0.84443  1.0000
  S   S436      1.0  0.88740  0.45996  0.83572  1.0000
  S   S437      1.0  0.96913  0.01252  0.80150  1.0000
  C   C1055     1.0  0.96350  0.47286  0.80939  1.0000
  N   N104      1.0  0.92083  0.16962  0.90578  1.0000
  H   H1699     1.0  0.81109  0.46350  0.85421  1.0000
  C   C1056     1.0  0.74577  0.37620  0.83481  1.0000
  C   C1057     1.0  0.75184  0.35924  0.82797  1.0000
  C   C1058     1.0  0.77676  0.36447  0.82739  1.0000
  C   C1059     1.0  0.79588  0.38658  0.83372  1.0000
  C   C1060     1.0  0.78980  0.40344  0.84067  1.0000
  C   C1061     1.0  0.76488  0.39824  0.84123  1.0000
  H   H1700     1.0  0.73733  0.34195  0.82331  1.0000
  H   H1701     1.0  0.78126  0.35124  0.82206  1.0000
  H   H1702     1.0  0.80436  0.42057  0.84540  1.0000
  H   H1703     1.0  0.76033  0.41145  0.84653  1.0000
  C   C1062     1.0  0.67640  0.00308  0.97703  1.0000
  C   C1063     1.0  0.67746  0.34871  0.74025  1.0000
  H   H1704     1.0  0.89880  0.14022  0.89038  1.0000
  H   H1705     1.0  0.77885  0.41739  0.79416  1.0000
  C   C1064     1.0  0.90069  0.16236  0.91586  1.0000
  C   C1065     1.0  0.91550  0.33606  0.89109  1.0000
  C   C1066     1.0  0.90513  0.33997  0.87847  1.0000
  C   C1067     1.0  0.90364  0.36218  0.87669  1.0000
  C   C1068     1.0  0.91271  0.38099  0.88749  1.0000
  C   C1069     1.0  0.92303  0.37705  0.90012  1.0000
  C   C1070     1.0  0.92438  0.35476  0.90194  1.0000
  H   H1706     1.0  0.89814  0.32566  0.87000  1.0000
  H   H1707     1.0  0.89539  0.36467  0.86697  1.0000
  H   H1708     1.0  0.93010  0.39140  0.90858  1.0000
  H   H1709     1.0  0.93240  0.35213  0.91171  1.0000
  H   H1710     1.0  0.90305  0.17854  0.92278  1.0000
  H   H1711     1.0  0.97396  0.38981  0.86620  1.0000
  H   H1712     1.0  0.79666  0.46979  0.89188  1.0000
  C   C1071     1.0  0.79523  0.13891  0.92670  1.0000
  C   C1072     1.0  0.80340  0.13406  0.91379  1.0000
  C   C1073     1.0  0.82612  0.15169  0.90859  1.0000
  C   C1074     1.0  0.84115  0.17425  0.91629  1.0000
  C   C1075     1.0  0.83316  0.17902  0.92927  1.0000
  C   C1076     1.0  0.81028  0.16152  0.93438  1.0000
  H   H1713     1.0  0.79203  0.11684  0.90773  1.0000
  H   H1714     1.0  0.83199  0.14780  0.89849  1.0000
  H   H1715     1.0  0.84444  0.19623  0.93535  1.0000
  H   H1716     1.0  0.80416  0.16548  0.94438  1.0000
  N   N105      1.0  0.74613  0.38379  0.78740  1.0000
  C   C1077     1.0  0.74635  0.39183  0.77267  1.0000
  C   C1078     1.0  0.77137  0.39685  0.79401  1.0000
  C   C1079     1.0  0.73727  0.35665  0.78707  1.0000
  C   C1080     1.0  0.72945  0.38980  0.79584  1.0000
  H   H1717     1.0  0.75877  0.38761  0.76601  1.0000
  H   H1718     1.0  0.75261  0.41216  0.77250  1.0000
  H   H1719     1.0  0.72755  0.38214  0.76738  1.0000
  H   H1720     1.0  0.77169  0.39174  0.80526  1.0000
  H   H1721     1.0  0.78436  0.39216  0.78823  1.0000
  H   H1722     1.0  0.73659  0.34986  0.79800  1.0000
  H   H1723     1.0  0.74945  0.35138  0.78087  1.0000
  H   H1724     1.0  0.71829  0.34626  0.78207  1.0000
  H   H1725     1.0  0.72834  0.38341  0.80690  1.0000
  H   H1726     1.0  0.71034  0.38060  0.79103  1.0000
  H   H1727     1.0  0.73573  0.41014  0.79658  1.0000
  H   H1728     1.0  0.83673  0.47030  0.89775  1.0000
  H   H1729     1.0  0.66436  0.17662  0.87211  1.0000
  C   C1081     1.0  0.80270  0.47441  0.88079  1.0000
  C   C1082     1.0  0.91670  0.14779  0.89662  1.0000
  C   C1083     1.0  0.92118  0.18925  0.89677  1.0000
  H   H1730     1.0  0.96146  0.40412  0.87808  1.0000
  S   S438      1.0  0.98176  0.24069  0.90459  1.0000
  H   H1731     1.0  0.93184  0.40165  0.85855  1.0000
  N   N106      1.0  0.97129  0.42106  0.85787  1.0000
  H   H1732     1.0  0.85518  0.46885  0.88356  1.0000
  C   C1084     1.0  0.96470  0.28885  0.97642  1.0000
  H   H1733     1.0  0.80114  0.43133  0.88848  1.0000
  H   H1734     1.0  0.88234  0.15510  0.91013  1.0000
  S   S439      1.0  0.67575  0.34894  0.76950  1.0000
  H   H1735     1.0  0.83721  0.49177  0.86101  1.0000
  H   H1736     1.0  0.69427  0.36608  0.74201  1.0000
  C   C1085     1.0  0.94667  0.40517  0.85100  1.0000
  H   H1737     1.0  0.84003  0.46406  0.85848  1.0000
  C   C1086     1.0  0.82721  0.47120  0.86195  1.0000
  H   H1738     1.0  0.95836  0.44124  0.87135  1.0000
  N   N107      1.0  0.84369  0.24913  0.89746  1.0000
  C   C1087     1.0  0.86307  0.24591  0.89013  1.0000
  C   C1088     1.0  0.82267  0.24300  0.88729  1.0000
  C   C1089     1.0  0.85383  0.27525  0.90287  1.0000
  C   C1090     1.0  0.83525  0.23232  0.90948  1.0000
  H   H1739     1.0  0.87013  0.25840  0.88104  1.0000
  H   H1740     1.0  0.85636  0.22636  0.88609  1.0000
  H   H1741     1.0  0.87914  0.25059  0.89753  1.0000
  H   H1742     1.0  0.80765  0.24518  0.89248  1.0000
  H   H1743     1.0  0.82848  0.25534  0.87808  1.0000
  H   H1744     1.0  0.81471  0.22343  0.88298  1.0000
  H   H1745     1.0  0.83982  0.27851  0.90850  1.0000
  H   H1746     1.0  0.86068  0.28843  0.89407  1.0000
  H   H1747     1.0  0.86990  0.28059  0.91048  1.0000
  H   H1748     1.0  0.82750  0.21246  0.90574  1.0000
  H   H1749     1.0  0.82079  0.23432  0.91542  1.0000
  H   H1750     1.0  0.85076  0.23610  0.91723  1.0000
  S   S440      1.0  0.74241  0.00055  0.91051  1.0000
  S   S441      1.0  0.66361  0.36136  0.80809  1.0000
  H   H1751     1.0  0.81894  0.42898  0.87421  1.0000
  C   C1091     1.0  0.95119  0.48358  0.80188  1.0000
  H   H1752     1.0  0.92441  0.20595  0.90339  1.0000
  H   H1753     1.0  0.96042  0.18530  0.90655  1.0000
  H   H1754     1.0  0.94457  0.38680  0.84722  1.0000
  C   C1092     1.0  0.97542  0.40802  0.86984  1.0000
  H   H1755     1.0  0.93159  0.15272  0.88888  1.0000
  C   C1093     1.0  0.94476  0.17920  0.91384  1.0000
  H   H1756     1.0  0.94846  0.19579  0.92081  1.0000
  C   C1094     1.0  0.66431  0.33595  0.75203  1.0000
  C   C1095     1.0  0.84163  0.47531  0.88655  1.0000
  H   H1757     1.0  0.93630  0.19546  0.88910  1.0000
  H   H1758     1.0  0.78993  0.42833  0.87029  1.0000
  C   C1096     1.0  0.80683  0.43710  0.87747  1.0000
  H   H1759     1.0  0.78584  0.46665  0.87359  1.0000
  N   N108      1.0  0.81959  0.46449  0.87669  1.0000
  H   H1760     1.0  0.93452  0.48276  0.80597  1.0000
  H   H1761     1.0  0.96938  0.45488  0.85459  1.0000
  Fe  Fe221     1.0  0.66033  0.33309  0.79099  1.0000
  S   S442      1.0  0.98692  0.99653  0.83145  1.0000
  C   C1097     1.0  0.98520  0.47418  0.80386  1.0000
  S   S443      1.0  0.65454  0.03891  0.89615  1.0000
  H   H1762     1.0  0.97677  0.48675  0.73968  1.0000
  H   H1763     1.0  0.70292  0.99346  0.96814  1.0000
  S   S444      1.0  0.68894  0.94602  0.05297  1.0000
  N   N109      1.0  0.95964  0.91057  0.19562  1.0000
  Fe  Fe222     1.0  0.67643  0.96748  0.06732  1.0000
  S   S445      1.0  0.68860  0.74834  0.05255  1.0000
  H   H1764     1.0  0.70155  0.56208  0.17467  1.0000
  H   H1765     1.0  0.95574  0.94320  0.20064  1.0000
  S   S446      1.0  0.71111  0.73820  0.09180  1.0000
  H   H1766     1.0  0.94138  0.70940  0.05719  1.0000
  H   H1767     1.0  0.73965  0.98831  0.07532  1.0000
  H   H1768     1.0  0.80389  0.77431  0.08940  1.0000
  C   C1098     1.0  0.94786  0.67100  0.03256  1.0000
  H   H1769     1.0  0.96230  0.87666  0.19564  1.0000
  C   C1099     1.0  0.87217  0.51461  0.23477  1.0000
  S   S447      1.0  0.96241  0.97176  0.17525  1.0000
  Fe  Fe223     1.0  0.88864  0.74113  0.12227  1.0000
  S   S448      1.0  0.89380  0.76150  0.14355  1.0000
  S   S449      1.0  0.91604  0.72659  0.11687  1.0000
  Fe  Fe224     1.0  0.83586  0.73480  0.11788  1.0000
  S   S450      1.0  0.83742  0.75344  0.13916  1.0000
  S   S451      1.0  0.80490  0.72004  0.10054  1.0000
  Fe  Fe225     1.0  0.87555  0.78182  0.13317  1.0000
  S   S452      1.0  0.88148  0.82175  0.13584  1.0000
  Fe  Fe226     1.0  0.85549  0.73155  0.14791  1.0000
  S   S453      1.0  0.85363  0.71675  0.17030  1.0000
  S   S454      1.0  0.87325  0.76383  0.11143  1.0000
  S   S455      1.0  0.85092  0.71057  0.12705  1.0000
  Fe  Fe227     1.0  0.78501  0.59986  0.22062  1.0000
  S   S456      1.0  0.77258  0.55864  0.21888  1.0000
  S   S457      1.0  0.78175  0.61504  0.19900  1.0000
  H   H1770     1.0  0.66954  0.54305  0.20101  1.0000
  H   H1771     1.0  0.96168  0.76800  0.07444  1.0000
  H   H1772     1.0  0.69282  0.68122  0.08914  1.0000
  H   H1773     1.0  0.67573  0.52448  0.18812  1.0000
  H   H1774     1.0  0.68648  0.55599  0.23566  1.0000
  C   C1100     1.0  0.82220  0.82283  0.09650  1.0000
  C   C1101     1.0  0.98034  0.66370  0.99201  1.0000
  H   H1775     1.0  0.72039  0.72480  0.99486  1.0000
  H   H1776     1.0  0.95835  0.69257  0.05917  1.0000
  H   H1777     1.0  0.67427  0.84246  0.08128  1.0000
  C   C1102     1.0  0.72503  0.54689  0.19331  1.0000
  H   H1778     1.0  0.83228  0.81254  0.12311  1.0000
  H   H1779     1.0  0.91062  0.68554  0.17713  1.0000
  H   H1780     1.0  0.70006  0.69086  0.10757  1.0000
  H   H1781     1.0  0.93070  0.65368  0.03454  1.0000
  C   C1103     1.0  0.80251  0.64310  0.19107  1.0000
  C   C1104     1.0  0.79752  0.64706  0.17692  1.0000
  C   C1105     1.0  0.81303  0.66931  0.17030  1.0000
  C   C1106     1.0  0.83362  0.68801  0.17785  1.0000
  C   C1107     1.0  0.83875  0.68395  0.19194  1.0000
  C   C1108     1.0  0.82337  0.66162  0.19851  1.0000
  H   H1782     1.0  0.78145  0.63289  0.17105  1.0000
  H   H1783     1.0  0.80882  0.67212  0.15947  1.0000
  H   H1784     1.0  0.85459  0.69829  0.19790  1.0000
  H   H1785     1.0  0.82744  0.65892  0.20940  1.0000
  C   C1109     1.0  0.95089  0.89671  0.14662  1.0000
  C   C1110     1.0  0.95310  0.87495  0.14419  1.0000
  C   C1111     1.0  0.93207  0.85178  0.14111  1.0000
  C   C1112     1.0  0.90858  0.85016  0.14031  1.0000
  C   C1113     1.0  0.90639  0.87191  0.14281  1.0000
  C   C1114     1.0  0.92738  0.89504  0.14601  1.0000
  H   H1786     1.0  0.95108  0.67118  0.02093  1.0000
  H   H1787     1.0  0.93407  0.83524  0.13917  1.0000
  H   H1788     1.0  0.88830  0.87088  0.14222  1.0000
  H   H1789     1.0  0.92537  0.91160  0.14783  1.0000
  C   C1115     1.0  0.66423  0.83490  0.07118  1.0000
  H   H1790     1.0  0.92160  0.89104  0.18799  1.0000
  S   S458      1.0  0.66996  0.69049  0.06023  1.0000
  H   H1791     1.0  0.70348  0.57927  0.21335  1.0000
  H   H1792     1.0  0.65599  0.68732  0.08985  1.0000
  C   C1116     1.0  0.95130  0.71962  0.10277  1.0000
  C   C1117     1.0  0.93750  0.73267  0.10316  1.0000
  C   C1118     1.0  0.94128  0.75004  0.09281  1.0000
  C   C1119     1.0  0.95879  0.75438  0.08232  1.0000
  S   S459      1.0  0.69168  0.71370  0.01977  1.0000
  H   H1793     1.0  0.94858  0.70613  0.11069  1.0000
  H   H1794     1.0  0.93086  0.76024  0.09295  1.0000
  H   H1795     1.0  0.94311  0.88873  0.17620  1.0000
  C   C1120     1.0  0.73734  0.73330  0.09392  1.0000
  C   C1121     1.0  0.74435  0.72189  0.08315  1.0000
  C   C1122     1.0  0.76491  0.71778  0.08543  1.0000
  C   C1123     1.0  0.77873  0.72502  0.09848  1.0000
  C   C1124     1.0  0.77161  0.73625  0.10929  1.0000
  C   C1125     1.0  0.75107  0.74043  0.10700  1.0000
  H   H1796     1.0  0.73396  0.71625  0.07304  1.0000
  H   H1797     1.0  0.77024  0.70902  0.07700  1.0000
  H   H1798     1.0  0.78178  0.74150  0.11947  1.0000
  H   H1799     1.0  0.74565  0.74904  0.11546  1.0000
  N   N110      1.0  0.66261  0.66269  0.10291  1.0000
  N   N111      1.0  0.70797  0.55699  0.19665  1.0000
  H   H1800     1.0  0.86892  0.80920  0.10383  1.0000
  N   N112      1.0  0.90107  0.69026  0.15564  1.0000
  H   H1801     1.0  0.66867  0.67039  0.12553  1.0000
  H   H1802     1.0  0.93003  0.72509  0.16443  1.0000
  C   C1126     1.0  0.89418  0.67922  0.16971  1.0000
  H   H1803     1.0  0.97308  0.89545  0.21196  1.0000
  H   H1804     1.0  0.68990  0.76446  0.01419  1.0000
  C   C1127     1.0  0.82440  0.78535  0.08993  1.0000
  Fe  Fe228     1.0  0.67126  0.71112  0.04040  1.0000
  H   H1805     1.0  0.92392  0.69113  0.13847  1.0000
  C   C1128     1.0  0.68512  0.69854  0.00249  1.0000
  C   C1129     1.0  0.70303  0.70843  0.99211  1.0000
  H   H1806     1.0  0.88316  0.68910  0.13549  1.0000
  H   H1807     1.0  0.82817  0.83889  0.10431  1.0000
  H   H1808     1.0  0.80163  0.81249  0.09621  1.0000
  H   H1809     1.0  0.72539  0.53462  0.20180  1.0000
  C   C1130     1.0  0.67209  0.53694  0.23568  1.0000
  H   H1810     1.0  0.94107  0.91700  0.17775  1.0000
  C   C1131     1.0  0.65871  0.65442  0.11770  1.0000
  C   C1132     1.0  0.67661  0.97429  0.00038  1.0000
  S   S460      1.0  0.66325  0.87953  0.06999  1.0000
  H   H1811     1.0  0.82784  0.83034  0.08578  1.0000
  H   H1812     1.0  0.80464  0.78713  0.11519  1.0000
  H   H1813     1.0  0.90762  0.67782  0.03201  1.0000
  H   H1814     1.0  0.80401  0.50235  0.23558  1.0000
  H   H1815     1.0  0.71952  0.53568  0.18307  1.0000
  C   C1133     1.0  0.82510  0.79717  0.11475  1.0000
  C   C1134     1.0  0.96877  0.72393  0.09226  1.0000
  H   H1816     1.0  0.97118  0.87599  0.14464  1.0000
  N   N113      1.0  0.83299  0.80656  0.10045  1.0000
  H   H1817     1.0  0.86518  0.68676  0.15074  1.0000
  H   H1818     1.0  0.83031  0.79162  0.07903  1.0000
  H   H1819     1.0  0.83179  0.77239  0.09275  1.0000
  H   H1820     1.0  0.83212  0.78407  0.11779  1.0000
  C   C1135     1.0  0.94048  0.90142  0.18392  1.0000
  C   C1136     1.0  0.86024  0.82087  0.10065  1.0000
  N   N114      1.0  0.94634  0.69345  0.03757  1.0000
  H   H1821     1.0  0.67959  0.77598  0.99075  1.0000
  C   C1137     1.0  0.66266  0.67758  0.99870  1.0000
  S   S461      1.0  0.67743  0.95571  0.01456  1.0000
  C   C1138     1.0  0.68286  0.53621  0.19815  1.0000
  H   H1822     1.0  0.74428  0.56209  0.19242  1.0000
  Fe  Fe229     1.0  0.98198  0.96313  0.15788  1.0000
  H   H1823     1.0  0.71585  0.63469  0.99362  1.0000
  H   H1824     1.0  0.90039  0.72393  0.16237  1.0000
  H   H1825     1.0  0.93672  0.91666  0.21057  1.0000
  H   H1826     1.0  0.86737  0.83698  0.10852  1.0000
  H   H1827     1.0  0.71800  0.56114  0.21897  1.0000
  H   H1828     1.0  0.73193  0.66815  0.99389  1.0000
  H   H1829     1.0  0.86699  0.82811  0.09002  1.0000
  H   H1830     1.0  0.68269  0.52386  0.20674  1.0000
  H   H1831     1.0  0.70305  0.96824  0.98847  1.0000
  Fe  Fe230     1.0  0.68427  0.72712  0.07237  1.0000
  H   H1832     1.0  0.69523  0.58092  0.18731  1.0000
  H   H1833     1.0  0.88496  0.65854  0.16875  1.0000
  H   H1834     1.0  0.66577  0.74782  0.02597  1.0000
  H   H1835     1.0  0.97930  0.71383  0.09218  1.0000
  H   H1836     1.0  0.91012  0.66235  0.14745  1.0000
  C   C1139     1.0  0.95884  0.88918  0.20306  1.0000
  H   H1837     1.0  0.69692  0.66127  0.10143  1.0000
  C   C1140     1.0  0.91295  0.71766  0.15747  1.0000
  H   H1838     1.0  0.96939  0.93418  0.21474  1.0000
  H   H1839     1.0  0.89117  0.51820  0.23449  1.0000
  S   S462      1.0  0.81792  0.60740  0.23493  1.0000
  C   C1141     1.0  0.91848  0.68291  0.14910  1.0000
  H   H1840     1.0  0.97279  0.71730  0.02300  1.0000
  C   C1142     1.0  0.71639  0.57212  0.21015  1.0000
  H   H1841     1.0  0.92551  0.67592  0.05582  1.0000
  H   H1842     1.0  0.96948  0.73317  0.03866  1.0000
  H   H1843     1.0  0.66355  0.69780  0.10811  1.0000
  H   H1844     1.0  0.88106  0.68460  0.17482  1.0000
  H   H1845     1.0  0.92397  0.71125  0.03341  1.0000
  C   C1143     1.0  0.87863  0.68130  0.14624  1.0000
  H   H1846     1.0  0.94050  0.87790  0.20764  1.0000
  C   C1144     1.0  0.67170  0.76191  0.01772  1.0000
  H   H1847     1.0  0.97767  0.64524  0.99408  1.0000
  C   C1145     1.0  0.92545  0.69438  0.02996  1.0000
  H   H1848     1.0  0.92772  0.69487  0.01822  1.0000
  H   H1849     1.0  0.66417  0.79103  0.99954  1.0000
  S   S463      1.0  0.83608  0.55648  0.23371  1.0000
  C   C1146     1.0  0.70775  0.57281  0.18507  1.0000
  C   C1147     1.0  0.96952  0.71583  0.03461  1.0000
  H   H1850     1.0  0.67439  0.77963  0.02305  1.0000
  H   H1851     1.0  0.66765  0.73210  0.99502  1.0000
  H   H1852     1.0  0.91814  0.72662  0.14705  1.0000
  C   C1148     1.0  0.94262  0.69271  0.05308  1.0000
  H   H1853     1.0  0.93570  0.68937  0.15587  1.0000
  C   C1149     1.0  0.95509  0.92674  0.20584  1.0000
  H   H1854     1.0  0.72660  0.58861  0.18378  1.0000
  H   H1855     1.0  0.86905  0.66068  0.14473  1.0000
  H   H1856     1.0  0.73485  0.58849  0.20929  1.0000
  Fe  Fe231     1.0  0.66116  0.94604  0.03673  1.0000
  S   S464      1.0  0.97805  0.92533  0.15050  1.0000
  C   C1150     1.0  0.84185  0.53034  0.23436  1.0000
  C   C1151     1.0  0.97274  0.74149  0.08201  1.0000
  C   C1152     1.0  0.98422  0.92489  0.18966  1.0000
  C   C1153     1.0  0.68925  0.67443  0.10016  1.0000
  H   H1857     1.0  0.66475  0.79974  0.07282  1.0000
  H   H1858     1.0  0.96349  0.66971  0.03805  1.0000
  H   H1859     1.0  0.65544  0.62687  0.09397  1.0000
  C   C1154     1.0  0.65679  0.84945  0.06303  1.0000
  H   H1860     1.0  0.71906  0.98777  0.03395  1.0000
  C   C1155     1.0  0.65887  0.81063  0.06641  1.0000
  Fe  Fe232     1.0  0.80383  0.56584  0.23455  1.0000
  C   C1156     1.0  0.66159  0.77287  0.99494  1.0000
  H   H1861     1.0  0.98563  0.71538  0.03994  1.0000
  H   H1862     1.0  0.88123  0.55326  0.23338  1.0000
  C   C1157     1.0  0.86644  0.53449  0.23414  1.0000
  Fe  Fe233     1.0  0.65773  0.91135  0.06103  1.0000
  H   H1863     1.0  0.66547  0.64067  0.11960  1.0000
  H   H1864     1.0  0.98544  0.94118  0.18404  1.0000
  C   C1158     1.0  0.82300  0.50593  0.23536  1.0000
  C   C1159     1.0  0.66184  0.98614  0.00045  1.0000
  C   C1160     1.0  0.69151  0.97726  0.98867  1.0000
  C   C1161     1.0  0.67839  0.51781  0.23730  1.0000
  H   H1865     1.0  0.74258  0.77839  0.39699  1.0000
  N   N115      1.0  0.71619  0.77816  0.38141  1.0000
  S   S465      1.0  0.69176  0.93749  0.42530  1.0000
  C   C1162     1.0  0.65909  0.49325  0.23782  1.0000
  Fe  Fe234     1.0  0.68802  0.95919  0.40715  1.0000
  Fe  Fe235     1.0  0.96188  0.96010  0.31018  1.0000
  H   H1866     1.0  0.85204  0.55047  0.26320  1.0000
  S   S466      1.0  0.76066  0.59717  0.23902  1.0000
  H   H1867     1.0  0.86460  0.59441  0.25790  1.0000
  S   S467      1.0  0.67150  0.71250  0.46577  1.0000
  C   C1163     1.0  0.66985  0.81034  0.41751  1.0000
  C   C1164     1.0  0.80855  0.70355  0.39436  1.0000
  C   C1165     1.0  0.95476  0.71717  0.39345  1.0000
  Fe  Fe236     1.0  0.68249  0.70786  0.41085  1.0000
  S   S468      1.0  0.70625  0.70013  0.39502  1.0000
  S   S469      1.0  0.69565  0.73734  0.42851  1.0000
  H   H1868     1.0  0.82518  0.56354  0.29540  1.0000
  H   H1869     1.0  0.80775  0.70588  0.38266  1.0000
  S   S470      1.0  0.68315  0.78980  0.41743  1.0000
  S   S471      1.0  0.92915  0.92165  0.31311  1.0000
  Fe  Fe237     1.0  0.88104  0.73802  0.35925  1.0000
  S   S472      1.0  0.89104  0.75107  0.33703  1.0000
  S   S473      1.0  0.89447  0.71693  0.37382  1.0000
  Fe  Fe238     1.0  0.84215  0.75596  0.36098  1.0000
  S   S474      1.0  0.84929  0.77114  0.33898  1.0000
  S   S475      1.0  0.81900  0.76173  0.37809  1.0000
  Fe  Fe239     1.0  0.85028  0.73563  0.33222  1.0000
  S   S476      1.0  0.83429  0.72130  0.30955  1.0000
  Fe  Fe240     1.0  0.88970  0.78593  0.34451  1.0000
  S   S477      1.0  0.92228  0.82210  0.33799  1.0000
  S   S478      1.0  0.83989  0.71936  0.35386  1.0000
  S   S479      1.0  0.88291  0.77398  0.36712  1.0000
  H   H1870     1.0  0.85218  0.70799  0.41895  1.0000
  Fe  Fe241     1.0  0.79303  0.60164  0.25325  1.0000
  S   S480      1.0  0.77980  0.56024  0.25319  1.0000
  S   S481      1.0  0.80945  0.61912  0.27548  1.0000
  H   H1871     1.0  0.83451  0.59546  0.29159  1.0000
  C   C1166     1.0  0.71061  0.75372  0.37472  1.0000
  S   S482      1.0  0.67199  0.97866  0.42064  1.0000
  S   S483      1.0  0.94863  0.98687  0.30275  1.0000
  C   C1167     1.0  0.82754  0.69275  0.30028  1.0000
  C   C1168     1.0  0.83197  0.67455  0.30649  1.0000
  C   C1169     1.0  0.82631  0.65222  0.29871  1.0000
  C   C1170     1.0  0.81619  0.64777  0.28464  1.0000
  C   C1171     1.0  0.81192  0.66604  0.27840  1.0000
  C   C1172     1.0  0.81758  0.68838  0.28619  1.0000
  H   H1872     1.0  0.83959  0.67759  0.31731  1.0000
  H   H1873     1.0  0.82966  0.63823  0.30367  1.0000
  H   H1874     1.0  0.80415  0.66293  0.26761  1.0000
  H   H1875     1.0  0.81401  0.70228  0.28128  1.0000
  N   N116      1.0  0.84714  0.57651  0.27694  1.0000
  C   C1173     1.0  0.92778  0.89444  0.32043  1.0000
  C   C1174     1.0  0.90450  0.87406  0.32250  1.0000
  C   C1175     1.0  0.90240  0.85194  0.32811  1.0000
  C   C1176     1.0  0.92364  0.84987  0.33157  1.0000
  C   C1177     1.0  0.94690  0.87022  0.32945  1.0000
  C   C1178     1.0  0.94900  0.89244  0.32400  1.0000
  H   H1876     1.0  0.88795  0.87536  0.31974  1.0000
  H   H1877     1.0  0.88439  0.83650  0.32971  1.0000
  H   H1878     1.0  0.96345  0.86882  0.33209  1.0000
  H   H1879     1.0  0.96702  0.90790  0.32246  1.0000
  C   C1179     1.0  0.83371  0.70495  0.41490  1.0000
  H   H1880     1.0  0.98539  0.76527  0.37202  1.0000
  H   H1881     1.0  0.65520  0.75033  0.46620  1.0000
  C   C1180     1.0  0.97007  0.75020  0.37687  1.0000
  C   C1181     1.0  0.94568  0.74466  0.37276  1.0000
  C   C1182     1.0  0.92564  0.72517  0.37889  1.0000
  C   C1183     1.0  0.93035  0.71144  0.38922  1.0000
  H   H1882     1.0  0.91897  0.94160  0.34175  1.0000
  H   H1883     1.0  0.68600  0.64521  0.48515  1.0000
  H   H1884     1.0  0.94241  0.75539  0.36481  1.0000
  H   H1885     1.0  0.66693  0.79882  0.48308  1.0000
  C   C1184     1.0  0.73770  0.71755  0.39056  1.0000
  C   C1185     1.0  0.75449  0.73883  0.39854  1.0000
  C   C1186     1.0  0.77914  0.75225  0.39442  1.0000
  C   C1187     1.0  0.78741  0.74454  0.38235  1.0000
  C   C1188     1.0  0.77066  0.72320  0.37442  1.0000
  C   C1189     1.0  0.74599  0.70982  0.37852  1.0000
  H   H1886     1.0  0.74854  0.74473  0.40798  1.0000
  H   H1887     1.0  0.79199  0.76859  0.40073  1.0000
  H   H1888     1.0  0.77667  0.71698  0.36512  1.0000
  H   H1889     1.0  0.73318  0.69336  0.37228  1.0000
  C   C1190     1.0  0.98140  0.70535  0.48710  1.0000
  H   H1890     1.0  0.82961  0.71874  0.42064  1.0000
  C   C1191     1.0  0.89695  0.98091  0.33167  1.0000
  H   H1891     1.0  0.70340  0.75163  0.36351  1.0000
  C   C1192     1.0  0.67984  0.67436  0.47642  1.0000
  H   H1892     1.0  0.91503  0.69631  0.39402  1.0000
  H   H1893     1.0  0.87102  0.73644  0.39911  1.0000
  H   H1894     1.0  0.68965  0.80732  0.44641  1.0000
  C   C1193     1.0  0.85199  0.73282  0.39590  1.0000
  H   H1895     1.0  0.75279  0.79640  0.37351  1.0000
  H   H1896     1.0  0.70540  0.84316  0.41912  1.0000
  H   H1897     1.0  0.86864  0.57134  0.29365  1.0000
  H   H1898     1.0  0.87791  0.60328  0.28999  1.0000
  C   C1194     1.0  0.67785  0.69598  0.47936  1.0000
  H   H1899     1.0  0.67748  0.76460  0.45294  1.0000
  C   C1195     1.0  0.73552  0.79817  0.37349  1.0000
  Fe  Fe242     1.0  0.66732  0.74762  0.41967  1.0000
  C   C1196     1.0  0.85092  0.59408  0.26558  1.0000
  H   H1900     1.0  0.85723  0.61335  0.27002  1.0000
  C   C1197     1.0  0.83882  0.68902  0.39207  1.0000
  H   H1901     1.0  0.92762  0.97262  0.34886  1.0000
  C   C1198     1.0  0.68638  0.98297  0.47669  1.0000
  C   C1199     1.0  0.87077  0.58424  0.28501  1.0000
  S   S484      1.0  0.69108  0.96850  0.46112  1.0000
  C   C1200     1.0  0.87792  0.94571  0.34660  1.0000
  H   H1902     1.0  0.67536  0.82436  0.45403  1.0000
  N   N117      1.0  0.83325  0.70756  0.39932  1.0000
  H   H1903     1.0  0.83347  0.58871  0.25930  1.0000
  H   H1904     1.0  0.84848  0.74743  0.40113  1.0000
  H   H1905     1.0  0.81977  0.68608  0.41786  1.0000
  N   N118      1.0  0.89497  0.95647  0.33491  1.0000
  H   H1906     1.0  0.97509  0.71842  0.48392  1.0000
  H   H1907     1.0  0.90987  0.98962  0.32297  1.0000
  C   C1201     1.0  0.67023  0.76846  0.46294  1.0000
  H   H1908     1.0  0.69702  0.81876  0.46460  1.0000
  H   H1909     1.0  0.82085  0.54504  0.26398  1.0000
  C   C1202     1.0  0.69362  0.78114  0.38111  1.0000
  H   H1910     1.0  0.88464  0.95800  0.35646  1.0000
  H   H1911     1.0  0.97243  0.67308  0.35522  1.0000
  H   H1912     1.0  0.69715  0.79933  0.38618  1.0000
  H   H1913     1.0  0.95805  0.70653  0.40146  1.0000
  H   H1914     1.0  0.88513  0.58443  0.27791  1.0000
  H   H1915     1.0  0.85915  0.94309  0.34366  1.0000
  H   H1916     1.0  0.79384  0.68460  0.39658  1.0000
  H   H1917     1.0  0.68619  0.77997  0.37004  1.0000
  N   N119      1.0  0.89812  0.78539  0.29645  1.0000
  C   C1203     1.0  0.89048  0.75867  0.29382  1.0000
  C   C1204     1.0  0.92302  0.79792  0.30353  1.0000
  C   C1205     1.0  0.88041  0.78811  0.30575  1.0000
  C   C1206     1.0  0.89846  0.79690  0.28276  1.0000
  H   H1918     1.0  0.88948  0.74931  0.30399  1.0000
  H   H1919     1.0  0.90352  0.75577  0.28699  1.0000
  H   H1920     1.0  0.87173  0.74864  0.28849  1.0000
  H   H1921     1.0  0.93704  0.79659  0.29681  1.0000
  H   H1922     1.0  0.92906  0.81799  0.30603  1.0000
  H   H1923     1.0  0.92336  0.78955  0.31389  1.0000
  H   H1924     1.0  0.88046  0.78037  0.31627  1.0000
  H   H1925     1.0  0.86115  0.77797  0.30113  1.0000
  H   H1926     1.0  0.88522  0.80798  0.30778  1.0000
  H   H1927     1.0  0.90422  0.81709  0.28443  1.0000
  H   H1928     1.0  0.87983  0.78795  0.27727  1.0000
  H   H1929     1.0  0.91153  0.79507  0.27542  1.0000
  H   H1930     1.0  0.67744  0.66706  0.46553  1.0000
  C   C1207     1.0  0.67606  0.85326  0.41869  1.0000
  H   H1931     1.0  0.80377  0.71722  0.39965  1.0000
  H   H1932     1.0  0.82499  0.66968  0.39427  1.0000
  H   H1933     1.0  0.86690  0.93671  0.31839  1.0000
  S   S485      1.0  0.65592  0.71968  0.40118  1.0000
  H   H1934     1.0  0.83902  0.69079  0.38030  1.0000
  H   H1935     1.0  0.67876  0.76654  0.38714  1.0000
  H   H1936     1.0  0.85174  0.73537  0.38427  1.0000
  C   C1208     1.0  0.97479  0.73660  0.38727  1.0000
  H   H1937     1.0  0.85742  0.69161  0.39552  1.0000
  C   C1209     1.0  0.88547  0.93961  0.32206  1.0000
  C   C1210     1.0  0.72511  0.77967  0.39634  1.0000
  H   H1938     1.0  0.81058  0.57096  0.28086  1.0000
  C   C1211     1.0  0.83833  0.55120  0.27048  1.0000
  H   H1939     1.0  0.97829  0.68526  0.38089  1.0000
  Fe  Fe243     1.0  0.67320  0.95523  0.43852  1.0000
  S   S486      1.0  0.71351  0.97696  0.38856  1.0000
  H   H1940     1.0  0.66508  0.96126  0.37639  1.0000
  C   C1212     1.0  0.82859  0.57656  0.28667  1.0000
  H   H1941     1.0  0.72939  0.79762  0.36218  1.0000
  H   H1942     1.0  0.74025  0.81684  0.37834  1.0000
  C   C1213     1.0  0.91961  0.95968  0.33932  1.0000
  H   H1943     1.0  0.93281  0.96760  0.33072  1.0000
  H   H1944     1.0  0.69649  0.73812  0.38060  1.0000
  N   N120      1.0  0.66128  0.78688  0.46092  1.0000
  H   H1945     1.0  0.72731  0.75099  0.37465  1.0000
  H   H1946     1.0  0.71131  0.76430  0.40246  1.0000
  H   H1947     1.0  0.89800  0.94717  0.31304  1.0000
  H   H1948     1.0  0.68843  0.87307  0.41944  1.0000
  C   C1214     1.0  0.68562  0.83620  0.41849  1.0000
  H   H1949     1.0  0.88406  0.92106  0.32405  1.0000
  H   H1950     1.0  0.68538  0.77489  0.47130  1.0000
  Fe  Fe244     1.0  0.66526  0.70916  0.44129  1.0000
  H   H1951     1.0  0.83484  0.53729  0.27870  1.0000
  H   H1952     1.0  0.87608  0.92724  0.34928  1.0000
  H   H1953     1.0  0.72849  0.79741  0.40195  1.0000
  H   H1954     1.0  0.97904  0.64798  0.35892  1.0000
  H   H1955     1.0  0.87879  0.97937  0.32824  1.0000
  C   C1215     1.0  0.68172  0.81039  0.45634  1.0000
  H   H1956     1.0  0.98596  0.66075  0.38485  1.0000
  S   S487      1.0  0.70977  0.52320  0.23812  1.0000
  N   N121      1.0  0.65867  0.99265  0.37363  1.0000
  Fe  Fe245     1.0  0.74928  0.55620  0.23764  1.0000
  S   S488      1.0  0.98611  0.98590  0.32814  1.0000
  Fe  Fe246     1.0  0.70072  0.65927  0.54000  1.0000
  S   S489      1.0  0.73917  0.68385  0.54946  1.0000
  H   H1957     1.0  0.66843  0.87371  0.68656  1.0000
  Fe  Fe247     1.0  0.68181  0.63378  0.56886  1.0000
  S   S490      1.0  0.71959  0.65640  0.57942  1.0000
  H   H1958     1.0  0.95360  0.55809  0.54224  1.0000
  Fe  Fe248     1.0  0.72020  0.68918  0.56859  1.0000
  S   S491      1.0  0.73768  0.72472  0.58302  1.0000
  Fe  Fe249     1.0  0.73565  0.64950  0.55960  1.0000
  S   S492      1.0  0.76354  0.63426  0.55947  1.0000
  S   S493      1.0  0.68183  0.66703  0.55849  1.0000
  S   S494      1.0  0.69773  0.62439  0.54972  1.0000
  Fe  Fe250     1.0  0.90786  0.66849  0.55263  1.0000
  S   S495      1.0  0.91329  0.63828  0.54151  1.0000
  S   S496      1.0  0.87931  0.68225  0.54858  1.0000
  Fe  Fe251     1.0  0.95515  0.68650  0.57117  1.0000
  S   S497      1.0  0.96413  0.65729  0.56183  1.0000
  Fe  Fe252     1.0  0.95342  0.66637  0.54034  1.0000
  H   H1959     1.0  0.93312  0.98886  0.73050  1.0000
  Fe  Fe253     1.0  0.92380  0.63008  0.56325  1.0000
  S   S498      1.0  0.90680  0.58806  0.56715  1.0000
  S   S499      1.0  0.94746  0.69753  0.54974  1.0000
  S   S500      1.0  0.91539  0.65840  0.57433  1.0000
  H   H1960     1.0  0.88325  0.72474  0.56885  1.0000
  H   H1961     1.0  0.73063  0.64260  0.49835  1.0000
  H   H1962     1.0  0.68491  0.69369  0.58665  1.0000
  S   S501      1.0  0.96745  0.95945  0.67911  1.0000
  C   C1216     1.0  0.66791  0.68117  0.59211  1.0000
  H   H1963     1.0  0.92712  0.56076  0.54771  1.0000
  H   H1964     1.0  0.86221  0.54507  0.62069  1.0000
  S   S502      1.0  0.91480  0.97590  0.66413  1.0000
  Fe  Fe254     1.0  0.72939  0.84059  0.62125  1.0000
  S   S503      1.0  0.73949  0.84068  0.64454  1.0000
  S   S504      1.0  0.70742  0.80591  0.60658  1.0000
  Fe  Fe255     1.0  0.74967  0.89766  0.62195  1.0000
  S   S505      1.0  0.76114  0.90134  0.64521  1.0000
  S   S506      1.0  0.76272  0.93476  0.61117  1.0000
  Fe  Fe256     1.0  0.77543  0.87453  0.63985  1.0000
  S   S507      1.0  0.81354  0.87881  0.64603  1.0000
  Fe  Fe257     1.0  0.72426  0.86759  0.64803  1.0000
  S   S508      1.0  0.70081  0.87149  0.66566  1.0000
  S   S509      1.0  0.76607  0.87249  0.61637  1.0000
  S   S510      1.0  0.71203  0.86577  0.62500  1.0000
  N   N122      1.0  0.95609  0.50030  0.72730  1.0000
  S   S511      1.0  0.92787  0.51622  0.60775  1.0000
  C   C1217     1.0  0.93897  0.56273  0.53851  1.0000
  H   H1965     1.0  0.68499  0.90870  0.66134  1.0000
  C   C1218     1.0  0.88687  0.94857  0.65918  1.0000
  C   C1219     1.0  0.86442  0.94959  0.65925  1.0000
  C   C1220     1.0  0.84179  0.92838  0.65543  1.0000
  C   C1221     1.0  0.84136  0.90590  0.65141  1.0000
  C   C1222     1.0  0.86379  0.90486  0.65144  1.0000
  C   C1223     1.0  0.88642  0.92606  0.65526  1.0000
  H   H1966     1.0  0.86452  0.96687  0.66234  1.0000
  H   H1967     1.0  0.82465  0.92934  0.65568  1.0000
  H   H1968     1.0  0.86368  0.88754  0.64841  1.0000
  H   H1969     1.0  0.90349  0.92493  0.65519  1.0000
  C   C1224     1.0  0.71828  0.96782  0.58795  1.0000
  C   C1225     1.0  0.70663  0.94273  0.59161  1.0000
  C   C1226     1.0  0.71997  0.93220  0.59851  1.0000
  C   C1227     1.0  0.74516  0.94676  0.60197  1.0000
  C   C1228     1.0  0.75691  0.97176  0.59815  1.0000
  C   C1229     1.0  0.66447  0.85448  0.68533  1.0000
  H   H1970     1.0  0.71076  0.91282  0.60107  1.0000
  H   H1971     1.0  0.67947  0.72169  0.49613  1.0000
  H   H1972     1.0  0.91782  0.58040  0.51968  1.0000
  C   C1230     1.0  0.96530  0.59034  0.52103  1.0000
  C   C1231     1.0  0.67766  0.84785  0.67555  1.0000
  C   C1232     1.0  0.91321  0.56856  0.57853  1.0000
  C   C1233     1.0  0.89793  0.54260  0.57723  1.0000
  C   C1234     1.0  0.90221  0.52627  0.58589  1.0000
  C   C1235     1.0  0.92181  0.53569  0.59611  1.0000
  C   C1236     1.0  0.93720  0.56163  0.59733  1.0000
  C   C1237     1.0  0.93297  0.57796  0.58863  1.0000
  H   H1973     1.0  0.88269  0.53502  0.56939  1.0000
  H   H1974     1.0  0.89050  0.50641  0.58452  1.0000
  H   H1975     1.0  0.95249  0.56920  0.60513  1.0000
  H   H1976     1.0  0.94496  0.59781  0.58980  1.0000
  C   C1238     1.0  0.68776  0.67101  0.50191  1.0000
  C   C1239     1.0  0.69909  0.98368  0.48954  1.0000
  C   C1240     1.0  0.68589  0.69269  0.50485  1.0000
  H   H1977     1.0  0.94588  0.74890  0.59779  1.0000
  H   H1978     1.0  0.68813  0.69993  0.51574  1.0000
  C   C1241     1.0  0.79598  0.64850  0.55701  1.0000
  C   C1242     1.0  0.80944  0.67302  0.55284  1.0000
  C   C1243     1.0  0.83487  0.68298  0.55034  1.0000
  C   C1244     1.0  0.84729  0.66875  0.55215  1.0000
  C   C1245     1.0  0.83391  0.64435  0.55649  1.0000
  C   C1246     1.0  0.80841  0.63428  0.55879  1.0000
  H   H1979     1.0  0.80026  0.68429  0.55148  1.0000
  H   H1980     1.0  0.84497  0.70186  0.54696  1.0000
  H   H1981     1.0  0.84310  0.63311  0.55790  1.0000
  H   H1982     1.0  0.79822  0.61529  0.56199  1.0000
  C   C1247     1.0  0.72924  0.74770  0.58882  1.0000
  C   C1248     1.0  0.74484  0.76634  0.59894  1.0000
  C   C1249     1.0  0.73862  0.78442  0.60437  1.0000
  C   C1250     1.0  0.71657  0.78402  0.59980  1.0000
  C   C1251     1.0  0.70094  0.76536  0.58968  1.0000
  C   C1252     1.0  0.70726  0.74740  0.58414  1.0000
  H   H1983     1.0  0.76187  0.76678  0.60264  1.0000
  H   H1984     1.0  0.75083  0.79859  0.61214  1.0000
  H   H1985     1.0  0.68391  0.76496  0.58601  1.0000
  H   H1986     1.0  0.69522  0.73351  0.57621  1.0000
  H   H1987     1.0  0.74028  0.61988  0.49346  1.0000
  H   H1988     1.0  0.93080  0.96249  0.70997  1.0000
  C   C1253     1.0  0.86446  0.53135  0.61365  1.0000
  H   H1989     1.0  0.92125  0.72491  0.56097  1.0000
  H   H1990     1.0  0.90078  0.75715  0.57413  1.0000
  C   C1254     1.0  0.71473  0.92472  0.63930  1.0000
  H   H1991     1.0  0.89375  0.70466  0.59617  1.0000
  H   H1992     1.0  0.66895  0.71198  0.61321  1.0000
  H   H1993     1.0  0.96445  0.69973  0.50760  1.0000
  H   H1994     1.0  0.82218  0.90233  0.61771  1.0000
  H   H1995     1.0  0.92137  0.70446  0.59046  1.0000
  H   H1996     1.0  0.95790  0.98690  0.70282  1.0000
  H   H1997     1.0  0.88466  0.53832  0.61258  1.0000
  C   C1255     1.0  0.68199  0.92144  0.65420  1.0000
  H   H1998     1.0  0.76808  0.61228  0.51029  1.0000
  C   C1256     1.0  0.85649  0.96190  0.60793  1.0000
  H   H1999     1.0  0.76411  0.66051  0.53350  1.0000
  H   H2000     1.0  0.71869  0.91262  0.64642  1.0000
  H   H2001     1.0  0.82305  0.51058  0.62855  1.0000
  C   C1257     1.0  0.90600  0.70824  0.58704  1.0000
  H   H2002     1.0  0.84705  0.91382  0.60570  1.0000
  N   N123      1.0  0.75239  0.63666  0.51456  1.0000
  C   C1258     1.0  0.92986  0.75164  0.59426  1.0000
  N   N124      1.0  0.67338  0.67990  0.60738  1.0000
  H   H2003     1.0  0.66226  0.91694  0.65473  1.0000
  C   C1259     1.0  0.68474  0.66200  0.48761  1.0000
  C   C1260     1.0  0.68248  0.70476  0.61452  1.0000
  C   C1261     1.0  0.92956  0.59349  0.52851  1.0000
  H   H2004     1.0  0.98083  0.58665  0.52417  1.0000
  H   H2005     1.0  0.82378  0.92695  0.58914  1.0000
  H   H2006     1.0  0.77654  0.67604  0.51743  1.0000
  H   H2007     1.0  0.68858  0.93390  0.61905  1.0000
  C   C1262     1.0  0.97422  0.52685  0.72975  1.0000
  C   C1263     1.0  0.97529  0.69474  0.50057  1.0000
  H   H2008     1.0  0.88473  0.51340  0.63255  1.0000
  H   H2009     1.0  0.69833  0.85536  0.71969  1.0000
  H   H2010     1.0  0.73448  0.61593  0.53272  1.0000
  N   N125      1.0  0.85268  0.50626  0.61944  1.0000
  H   H2011     1.0  0.72716  0.94436  0.64291  1.0000
  H   H2012     1.0  0.92976  0.97198  0.69217  1.0000
  H   H2013     1.0  0.77786  0.62944  0.52714  1.0000
  H   H2014     1.0  0.95445  0.57705  0.51205  1.0000
  H   H2015     1.0  0.69723  0.67066  0.62017  1.0000
  H   H2016     1.0  0.81633  0.95982  0.62079  1.0000
  H   H2017     1.0  0.88177  0.73517  0.58669  1.0000
  C   C1264     1.0  0.74359  0.98225  0.59117  1.0000
  C   C1265     1.0  0.81602  0.93173  0.59860  1.0000
  H   H2018     1.0  0.87542  0.49354  0.60871  1.0000
  H   H2019     1.0  0.97315  0.96157  0.71665  1.0000
  H   H2020     1.0  0.69351  0.94074  0.65870  1.0000
  H   H2021     1.0  0.66459  0.93197  0.63023  1.0000
  N   N126      1.0  0.94969  0.58816  0.53319  1.0000
  N   N127      1.0  0.91545  0.73394  0.58234  1.0000
  Fe  Fe258     1.0  0.95422  0.98071  0.66518  1.0000
  H   H2022     1.0  0.70001  0.71858  0.60999  1.0000
  C   C1266     1.0  0.69253  0.67179  0.60880  1.0000
  H   H2023     1.0  0.70568  0.83054  0.72295  1.0000
  S   S512      1.0  0.97597  0.66354  0.52174  1.0000
  C   C1267     1.0  0.89442  0.73800  0.57783  1.0000
  H   H2024     1.0  0.72006  0.92201  0.62843  1.0000
  C   C1268     1.0  0.93156  0.73779  0.57021  1.0000
  H   H2025     1.0  0.91728  0.59185  0.53739  1.0000
  H   H2026     1.0  0.69600  0.95557  0.63390  1.0000
  H   H2027     1.0  0.86549  0.95810  0.59873  1.0000
  C   C1269     1.0  0.68418  0.93578  0.63029  1.0000
  H   H2028     1.0  0.66006  0.66250  0.58654  1.0000
  H   H2029     1.0  0.96539  0.53904  0.72873  1.0000
  H   H2030     1.0  0.85250  0.92481  0.62404  1.0000
  H   H2031     1.0  0.97349  0.60945  0.51686  1.0000
  C   C1270     1.0  0.82609  0.49782  0.62113  1.0000
  H   H2032     1.0  0.89504  0.69438  0.57829  1.0000
  C   C1271     1.0  0.97902  0.97292  0.72646  1.0000
  N   N128      1.0  0.83341  0.93959  0.61116  1.0000
  H   H2033     1.0  0.87003  0.96823  0.61721  1.0000
  S   S513      1.0  0.97826  0.98235  0.64709  1.0000
  C   C1272     1.0  0.83905  0.91928  0.61477  1.0000
  C   C1273     1.0  0.73053  0.61727  0.52122  1.0000
  H   H2034     1.0  0.68626  0.65310  0.60349  1.0000
  H   H2035     1.0  0.68627  0.70444  0.62613  1.0000
  S   S514      1.0  0.70002  0.98026  0.58005  1.0000
  H   H2036     1.0  0.80532  0.92880  0.62658  1.0000
  N   N129      1.0  0.68844  0.91868  0.63944  1.0000
  H   H2037     1.0  0.89588  0.98095  0.69673  1.0000
  H   H2038     1.0  0.78991  0.64492  0.51099  1.0000
  C   C1274     1.0  0.82211  0.94555  0.62339  1.0000
  H   H2039     1.0  0.68221  0.81745  0.66660  1.0000
  H   H2040     1.0  0.93698  0.61268  0.52462  1.0000
  C   C1275     1.0  0.68096  0.70502  0.49366  1.0000
  S   S515      1.0  0.69394  0.65444  0.51554  1.0000
  H   H2041     1.0  0.94742  0.73447  0.57315  1.0000
  H   H2042     1.0  0.97335  0.62561  0.54111  1.0000
  H   H2043     1.0  0.79832  0.91510  0.60073  1.0000
  H   H2044     1.0  0.71465  0.62134  0.52055  1.0000
  C   C1276     1.0  0.96492  0.60622  0.54476  1.0000
  C   C1277     1.0  0.67227  0.82289  0.67406  1.0000
  H   H2045     1.0  0.93734  0.77125  0.59112  1.0000
  H   H2046     1.0  0.92725  0.54855  0.53010  1.0000
  H   H2047     1.0  0.72438  0.59863  0.51594  1.0000
  H   H2048     1.0  0.95874  0.50205  0.70455  1.0000
  C   C1278     1.0  0.69030  0.83529  0.72198  1.0000
  C   C1279     1.0  0.98311  0.67767  0.50486  1.0000
  C   C1280     1.0  0.65401  0.80488  0.68228  1.0000
  H   H2049     1.0  0.81118  0.94655  0.59567  1.0000
  H   H2050     1.0  0.93925  0.75706  0.56648  1.0000
  H   H2051     1.0  0.83515  0.95279  0.63284  1.0000
  H   H2052     1.0  0.91837  0.74923  0.60366  1.0000
  H   H2053     1.0  0.68713  0.93133  0.58901  1.0000
  C   C1281     1.0  0.67291  0.89275  0.63396  1.0000
  C   C1282     1.0  0.93753  0.97890  0.70318  1.0000
  H   H2054     1.0  0.65401  0.66022  0.62549  1.0000
  C   C1283     1.0  0.75983  0.66098  0.52197  1.0000
  S   S516      1.0  0.97307  0.71409  0.59034  1.0000
  H   H2055     1.0  0.71074  0.97477  0.48978  1.0000
  H   H2056     1.0  0.67741  0.88995  0.62285  1.0000
  H   H2057     1.0  0.85291  0.97764  0.60528  1.0000
  H   H2058     1.0  0.67569  0.87936  0.64064  1.0000
  H   H2059     1.0  0.95369  0.60524  0.55409  1.0000
  C   C1284     1.0  0.74615  0.63794  0.49941  1.0000
  C   C1285     1.0  0.77297  0.63054  0.51574  1.0000
  H   H2060     1.0  0.74488  0.66639  0.52110  1.0000
  H   H2061     1.0  0.67860  0.82458  0.71244  1.0000
  H   H2062     1.0  0.77642  0.98319  0.60070  1.0000
  H   H2063     1.0  0.85652  0.53139  0.60286  1.0000
  H   H2064     1.0  0.98021  0.60270  0.54864  1.0000
  H   H2065     1.0  0.70989  0.68498  0.60381  1.0000
  H   H2066     1.0  0.93449  0.50725  0.71141  1.0000
  H   H2067     1.0  0.81649  0.49676  0.61072  1.0000
  H   H2068     1.0  0.89470  0.96996  0.71439  1.0000
  H   H2069     1.0  0.65438  0.68830  0.59054  1.0000
  H   H2070     1.0  0.86257  0.51998  0.64126  1.0000
  C   C1286     1.0  0.94457  0.49629  0.71279  1.0000
  C   C1287     1.0  0.86459  0.50706  0.63346  1.0000
  C   C1288     1.0  0.65623  0.83693  0.73334  1.0000
  H   H2071     1.0  0.76214  0.65252  0.49405  1.0000
  N   N130      1.0  0.67576  0.82943  0.73495  1.0000
  C   C1289     1.0  0.90341  0.98675  0.70793  1.0000
  H   H2072     1.0  0.66402  0.85717  0.73163  1.0000
  H   H2073     1.0  0.96237  0.49680  0.66014  1.0000
  H   H2074     1.0  0.92701  0.50433  0.73737  1.0000
  C   C1290     1.0  0.66431  0.80238  0.73699  1.0000
  Fe  Fe259     1.0  0.71649  0.69158  0.90999  1.0000
  S   S517      1.0  0.73075  0.69186  0.93249  1.0000
  S   S518      1.0  0.72938  0.72177  0.89351  1.0000
  Fe  Fe260     1.0  0.68306  0.63484  0.90802  1.0000
  S   S519      1.0  0.69476  0.63061  0.93025  1.0000
  H   H2075     1.0  0.73188  0.89844  0.88423  1.0000
  Fe  Fe261     1.0  0.69128  0.66472  0.93680  1.0000
  S   S520      1.0  0.66983  0.66119  0.95711  1.0000
  Fe  Fe262     1.0  0.73391  0.65784  0.92518  1.0000
  S   S521      1.0  0.76424  0.65006  0.93488  1.0000
  S   S522      1.0  0.67670  0.66710  0.91479  1.0000
  S   S523      1.0  0.72262  0.65941  0.90251  1.0000
  Fe  Fe263     1.0  0.90134  0.66404  0.91722  1.0000
  S   S524      1.0  0.90593  0.64132  0.93455  1.0000
  S   S525      1.0  0.86778  0.66866  0.90986  1.0000
  Fe  Fe264     1.0  0.95485  0.68269  0.90747  1.0000
  S   S526      1.0  0.96257  0.66134  0.92421  1.0000
  Fe  Fe265     1.0  0.92508  0.62952  0.91785  1.0000
  S   S527      1.0  0.92457  0.59159  0.91491  1.0000
  Fe  Fe266     1.0  0.94333  0.67479  0.93944  1.0000
  H   H2076     1.0  0.96246  0.59615  0.86776  1.0000
  S   S528      1.0  0.91832  0.65021  0.90036  1.0000
  S   S529      1.0  0.93766  0.69814  0.92290  1.0000
  H   H2077     1.0  0.66641  0.85499  0.88908  1.0000
  H   H2078     1.0  0.95802  0.59034  0.88633  1.0000
  H   H2079     1.0  0.94224  0.91956  0.83283  1.0000
  S   S530      1.0  0.95321  0.95425  0.80694  1.0000
  C   C1291     1.0  0.76986  0.85386  0.80498  1.0000
  H   H2080     1.0  0.73331  0.87202  0.89115  1.0000
  C   C1292     1.0  0.97391  0.69144  0.97625  1.0000
  H   H2081     1.0  0.96990  0.94746  0.85230  1.0000
  Fe  Fe267     1.0  0.73504  0.89299  0.85368  1.0000
  S   S531      1.0  0.74896  0.89078  0.83188  1.0000
  S   S532      1.0  0.71984  0.91977  0.85955  1.0000
  Fe  Fe268     1.0  0.73397  0.84486  0.86287  1.0000
  S   S533      1.0  0.74768  0.83879  0.84202  1.0000
  S   S534      1.0  0.72072  0.82066  0.88228  1.0000
  Fe  Fe269     1.0  0.77477  0.87980  0.84340  1.0000
  S   S535      1.0  0.81121  0.88675  0.83365  1.0000
  Fe  Fe270     1.0  0.72159  0.85014  0.83119  1.0000
  S   S536      1.0  0.70314  0.82753  0.81043  1.0000
  S   S537      1.0  0.76311  0.88522  0.86535  1.0000
  S   S538      1.0  0.70557  0.85290  0.85198  1.0000
  H   H2082     1.0  0.70649  0.74743  0.90952  1.0000
  H   H2083     1.0  0.76746  0.97327  0.90164  1.0000
  N   N131      1.0  0.73268  0.65012  0.97399  1.0000
  C   C1293     1.0  0.84022  0.91379  0.83266  1.0000
  C   C1294     1.0  0.85770  0.91290  0.82357  1.0000
  C   C1295     1.0  0.88122  0.93359  0.82260  1.0000
  C   C1296     1.0  0.88776  0.95531  0.83097  1.0000
  C   C1297     1.0  0.87021  0.95625  0.83999  1.0000
  C   C1298     1.0  0.84650  0.93568  0.84077  1.0000
  H   H2084     1.0  0.85303  0.89607  0.81723  1.0000
  H   H2085     1.0  0.89432  0.93268  0.81543  1.0000
  H   H2086     1.0  0.87503  0.97296  0.84649  1.0000
  H   H2087     1.0  0.83327  0.93667  0.84782  1.0000
  H   H2088     1.0  0.80058  0.86558  0.78342  1.0000
  H   H2089     1.0  0.71243  0.70579  0.97027  1.0000
  C   C1299     1.0  0.73616  0.97873  0.89598  1.0000
  S   S539      1.0  0.91796  0.98108  0.83124  1.0000
  H   H2090     1.0  0.67155  0.79471  0.78766  1.0000
  Fe  Fe271     1.0  0.95122  0.98538  0.81882  1.0000
  H   H2091     1.0  0.72136  0.67281  0.96208  1.0000
  C   C1300     1.0  0.75177  0.96783  0.89427  1.0000
  C   C1301     1.0  0.74747  0.95021  0.88303  1.0000
  C   C1302     1.0  0.72727  0.94305  0.87341  1.0000
  C   C1303     1.0  0.71168  0.95397  0.87510  1.0000
  C   C1304     1.0  0.71608  0.97171  0.88630  1.0000
  H   H2092     1.0  0.98321  0.53052  0.74063  1.0000
  H   H2093     1.0  0.75993  0.94241  0.88176  1.0000
  H   H2094     1.0  0.69604  0.94864  0.86772  1.0000
  C   C1305     1.0  0.75100  0.87376  0.79121  1.0000
  S   S540      1.0  0.65866  0.60782  0.88963  1.0000
  C   C1306     1.0  0.95381  0.94821  0.85711  1.0000
  H   H2095     1.0  0.75353  0.88801  0.78337  1.0000
  C   C1307     1.0  0.72026  0.65110  0.98711  1.0000
  H   H2096     1.0  0.68921  0.84697  0.88262  1.0000
  C   C1308     1.0  0.91435  0.56815  0.90082  1.0000
  C   C1309     1.0  0.90141  0.56896  0.88853  1.0000
  C   C1310     1.0  0.89448  0.55036  0.87750  1.0000
  C   C1311     1.0  0.90031  0.53067  0.87855  1.0000
  C   C1312     1.0  0.91314  0.52978  0.89086  1.0000
  C   C1313     1.0  0.92007  0.54838  0.90190  1.0000
  H   H2097     1.0  0.89654  0.58378  0.88757  1.0000
  H   H2098     1.0  0.88441  0.55120  0.86809  1.0000
  H   H2099     1.0  0.91768  0.51475  0.89191  1.0000
  H   H2100     1.0  0.93001  0.54748  0.91135  1.0000
  C   C1314     1.0  0.67626  0.67644  0.97439  1.0000
  C   C1315     1.0  0.67978  0.82880  0.79943  1.0000
  H   H2101     1.0  0.68856  0.87453  0.87684  1.0000
  H   H2102     1.0  0.73621  0.85542  0.78691  1.0000
  H   H2103     1.0  0.68415  0.65051  0.86787  1.0000
  H   H2104     1.0  0.79697  0.91241  0.79275  1.0000
  C   C1316     1.0  0.79301  0.65548  0.92775  1.0000
  C   C1317     1.0  0.80025  0.66548  0.91440  1.0000
  C   C1318     1.0  0.82314  0.66936  0.90918  1.0000
  C   C1319     1.0  0.83919  0.66338  0.91719  1.0000
  C   C1320     1.0  0.83198  0.65342  0.93058  1.0000
  C   C1321     1.0  0.80905  0.64949  0.93579  1.0000
  H   H2105     1.0  0.78824  0.67022  0.90806  1.0000
  H   H2106     1.0  0.82846  0.67707  0.89883  1.0000
  H   H2107     1.0  0.84403  0.64868  0.93687  1.0000
  H   H2108     1.0  0.80371  0.64171  0.94611  1.0000
  C   C1322     1.0  0.72670  0.74925  0.89082  1.0000
  C   C1323     1.0  0.73684  0.76275  0.87863  1.0000
  C   C1324     1.0  0.73502  0.78446  0.87581  1.0000
  C   C1325     1.0  0.72305  0.79304  0.88520  1.0000
  C   C1326     1.0  0.71270  0.77942  0.89734  1.0000
  C   C1327     1.0  0.71442  0.75760  0.90012  1.0000
  H   H2109     1.0  0.74638  0.75649  0.87135  1.0000
  H   H2110     1.0  0.74311  0.79470  0.86646  1.0000
  H   H2111     1.0  0.70340  0.78585  0.90468  1.0000
  H   H2112     1.0  0.81183  0.49505  0.88027  1.0000
  H   H2113     1.0  0.90928  0.90554  0.83432  1.0000
  H   H2114     1.0  0.94732  0.90152  0.85487  1.0000
  H   H2115     1.0  0.68348  0.86302  0.80888  1.0000
  H   H2116     1.0  0.90869  0.94440  0.85526  1.0000
  N   N132      1.0  0.93051  0.92539  0.85334  1.0000
  C   C1328     1.0  0.97657  0.97695  0.75230  1.0000
  H   H2117     1.0  0.92711  0.93854  0.83297  1.0000
  H   H2118     1.0  0.93932  0.61917  0.88802  1.0000
  H   H2119     1.0  0.71206  0.87156  0.91961  1.0000
  H   H2120     1.0  0.71137  0.61037  0.97089  1.0000
  H   H2121     1.0  0.70104  0.86350  0.74626  1.0000
  C   C1329     1.0  0.73848  0.67246  0.96586  1.0000
  Fe  Fe272     1.0  0.97394  0.98168  0.79051  1.0000
  H   H2122     1.0  0.67934  0.89146  0.90639  1.0000
  C   C1330     1.0  0.96050  0.49544  0.78904  1.0000
  H   H2123     1.0  0.89154  0.91130  0.85618  1.0000
  H   H2124     1.0  0.95490  0.94327  0.73948  1.0000
  C   C1331     1.0  0.95267  0.63047  0.88005  1.0000
  H   H2125     1.0  0.78744  0.90281  0.81043  1.0000
  H   H2126     1.0  0.85148  0.49600  0.88637  1.0000
  H   H2127     1.0  0.70428  0.68375  0.86884  1.0000
  H   H2128     1.0  0.76545  0.64852  0.96792  1.0000
  N   N133      1.0  0.70309  0.87738  0.89827  1.0000
  C   C1332     1.0  0.69930  0.86114  0.91037  1.0000
  C   C1333     1.0  0.69835  0.89823  0.90260  1.0000
  C   C1334     1.0  0.68602  0.86280  0.88619  1.0000
  C   C1335     1.0  0.72880  0.88730  0.89385  1.0000
  C   C1336     1.0  0.92711  0.92203  0.83767  1.0000
  H   H2129     1.0  0.65832  0.65601  0.84889  1.0000
  H   H2130     1.0  0.98114  0.75312  0.92533  1.0000
  H   H2131     1.0  0.74983  0.68988  0.97240  1.0000
  H   H2132     1.0  0.72487  0.62644  0.95511  1.0000
  N   N134      1.0  0.66552  0.67281  0.87005  1.0000
  C   C1337     1.0  0.79323  0.89747  0.80032  1.0000
  H   H2133     1.0  0.74377  0.87833  0.80099  1.0000
  H   H2134     1.0  0.75530  0.83510  0.80110  1.0000
  H   H2135     1.0  0.97326  0.62506  0.90430  1.0000
  H   H2136     1.0  0.69029  0.66788  0.88442  1.0000
  N   N135      1.0  0.77428  0.87289  0.79444  1.0000
  H   H2137     1.0  0.68675  0.71257  0.87299  1.0000
  H   H2138     1.0  0.70395  0.97994  0.88744  1.0000
  H   H2139     1.0  0.96099  0.65251  0.97132  1.0000
  S   S541      1.0  0.96193  0.69776  0.96025  1.0000
  H   H2140     1.0  0.91119  0.92985  0.87110  1.0000
  H   H2141     1.0  0.76347  0.85839  0.81505  1.0000
  C   C1338     1.0  0.66179  0.67375  0.85452  1.0000
  H   H2142     1.0  0.71159  0.91035  0.91129  1.0000
  C   C1339     1.0  0.66734  0.81002  0.78870  1.0000
  H   H2143     1.0  0.95318  0.96499  0.85317  1.0000
  H   H2144     1.0  0.78660  0.88035  0.77305  1.0000
  H   H2145     1.0  0.97507  0.74107  0.94284  1.0000
  C   C1340     1.0  0.69862  0.69760  0.97814  1.0000
  C   C1341     1.0  0.71611  0.62765  0.96516  1.0000
  H   H2146     1.0  0.93417  0.90552  0.87101  1.0000
  C   C1342     1.0  0.65834  0.66660  0.98476  1.0000
  N   N136      1.0  0.97596  0.62903  0.88163  1.0000
  C   C1343     1.0  0.78304  0.86638  0.78126  1.0000
  C   C1344     1.0  0.67015  0.69668  0.87712  1.0000
  H   H2147     1.0  0.68007  0.85320  0.91399  1.0000
  H   H2148     1.0  0.78697  0.85265  0.80780  1.0000
  H   H2149     1.0  0.81101  0.89743  0.80293  1.0000
  H   H2150     1.0  0.76923  0.84785  0.77662  1.0000
  S   S542      1.0  0.96302  0.96304  0.76827  1.0000
  H   H2151     1.0  0.75223  0.63267  0.98383  1.0000
  H   H2152     1.0  0.70033  0.91030  0.89353  1.0000
  C   C1345     1.0  0.93162  0.90367  0.85919  1.0000
  H   H2153     1.0  0.74900  0.67297  0.95629  1.0000
  H   H2154     1.0  0.67373  0.69687  0.88883  1.0000
  H   H2155     1.0  0.67837  0.68903  0.84996  1.0000
  C   C1346     1.0  0.97100  0.60312  0.87864  1.0000
  H   H2156     1.0  0.74229  0.89954  0.90238  1.0000
  H   H2157     1.0  0.94530  0.49602  0.74907  1.0000
  C   C1347     1.0  0.90957  0.92778  0.85926  1.0000
  H   H2158     1.0  0.70279  0.84526  0.90732  1.0000
  H   H2159     1.0  0.95592  0.64996  0.88165  1.0000
  C   C1348     1.0  0.69201  0.84304  0.74752  1.0000
  H   H2160     1.0  0.95746  0.95107  0.86886  1.0000
  H   H2161     1.0  0.70256  0.65134  0.98452  1.0000
  C   C1349     1.0  0.67405  0.84840  0.80071  1.0000
  C   C1350     1.0  0.68699  0.66854  0.87282  1.0000
  H   H2162     1.0  0.91436  0.88613  0.85641  1.0000
  H   H2163     1.0  0.68133  0.83927  0.75740  1.0000
  C   C1351     1.0  0.97085  0.66776  0.97906  1.0000
  H   H2164     1.0  0.94360  0.62354  0.86929  1.0000
  H   H2165     1.0  0.69847  0.62774  0.96212  1.0000
  H   H2166     1.0  0.70671  0.83752  0.74928  1.0000
  S   S543      1.0  0.89027  0.50742  0.86438  1.0000
  C   C1352     1.0  0.65613  0.84920  0.79135  1.0000
  C   C1353     1.0  0.98222  0.49679  0.78353  1.0000
  H   H2167     1.0  0.95083  0.50369  0.78338  1.0000
  H   H2168     1.0  0.76887  0.66614  0.98424  1.0000
  H   H2169     1.0  0.97640  0.74348  0.89766  1.0000
  C   C1354     1.0  0.75582  0.64932  0.97771  1.0000
  C   C1355     1.0  0.96881  0.96256  0.73942  1.0000
  H   H2170     1.0  0.67842  0.79589  0.73800  1.0000
  H   H2171     1.0  0.96967  0.91640  0.77707  1.0000
  C   C1356     1.0  0.98635  0.63702  0.89636  1.0000
  H   H2172     1.0  0.97883  0.90791  0.79362  1.0000
  H   H2173     1.0  0.98398  0.93897  0.79141  1.0000
  C   C1357     1.0  0.98421  0.92282  0.78581  1.0000
  H   H2174     1.0  0.65425  0.70047  0.87550  1.0000
  C   C1358     1.0  0.69149  0.99158  0.97709  1.0000
  C   C1359     1.0  0.98677  0.71097  0.98654  1.0000
  C   C1360     1.0  0.93696  0.49311  0.73802  1.0000
  H   H2175     1.0  0.65453  0.49358  0.85895  1.0000
  S   S544      1.0  0.98668  0.70157  0.89236  1.0000
  H   H2176     1.0  0.98634  0.64023  0.86029  1.0000
