data_image0
_chemical_formula_structural       FeS2FeS2FeSFeS3FeS2FeS2FeSFeS3FeS2FeS2FeSFeS3FeS2FeS2FeSFeS3FeS2FeS2FeSFeS3FeS2FeS2FeSFeS3FeS2FeS2FeSFeS3FeS2FeS2FeSFeS3C6H4C6H4C6H4C6H4C6H4C6H4C6H4C6H4C6H4C6H4C6H4C6H4C6H4C6H4C6H4C6H4FeS2FeS2FeSFeS3FeS2FeS2FeSFeS3FeS2FeS2FeSFeS3FeS2FeS2FeSFeS3FeS2FeS2FeSFeS3FeS2FeS2FeSFeS3FeS2FeS2FeSFeS3FeS2FeS2FeSFeS3C6H4C6H4C6H4C6H4C6H4C6H4C6H4C6H4C6H4C6H4C6H4C6H4C6H4C6H4C6H4C6H4NC4H12NC4H12NC4H12NC4H12NC4H12NC4H12NC4H12NC4H12NC4H12NC4H12NC4H12NC4H12NC4H12NC4H12NC4H12NC4H12NC4H12NC4H12NC4H12NC4H12NC4H12NC4H12NC4H12NC4H12NC4H12NC4H12NC4H12NC4H12NC4H12NC4H12NC4H12NC4H12
_chemical_formula_sum              "Fe64 S128 C320 H512 N32"
_cell_length_a       29.627774315329123
_cell_length_b       30.615643959825213
_cell_length_c       37.87710158475826
_cell_angle_alpha    89.92588195366201
_cell_angle_beta     89.93797003662716
_cell_angle_gamma    90.12656603208715

_space_group_name_H-M_alt    "P 1"
_space_group_IT_number       1

loop_
  _space_group_symop_operation_xyz
  'x, y, z'

loop_
  _atom_site_type_symbol
  _atom_site_label
  _atom_site_symmetry_multiplicity
  _atom_site_fract_x
  _atom_site_fract_y
  _atom_site_fract_z
  _atom_site_occupancy
  Fe  Fe1       1.0  0.6083999718275299  0.055871873164925034  0.15781280609859188  1.0000
  S   S1        1.0  0.5548219358205619  0.021213585000921412  0.12666762598205103  1.0000
  S   S2        1.0  0.26830037151237557  0.09500283554469947  0.24012509147201294  1.0000
  Fe  Fe2       1.0  0.5585602535603069  0.14219649971859952  0.15672094766301395  1.0000
  S   S3        1.0  0.5010314701346515  0.11496404078117316  0.1250750303994016  1.0000
  S   S4        1.0  0.5618756955451965  0.2108833413240859  0.17795483700692352  1.0000
  Fe  Fe3       1.0  0.5062953533696246  0.05739864279537077  0.16111530856700698  1.0000
  S   S5        1.0  0.44453110151541325  0.029520471696311782  0.1870082788973439  1.0000
  Fe  Fe4       1.0  0.5546721571021549  0.08186857615366565  0.09335972834430603  1.0000
  S   S6        1.0  0.5446805653080665  0.07596881073529836  0.03475742536029485  1.0000
  S   S7        1.0  0.5596445968475184  0.08689524270564025  0.19542324039304187  1.0000
  S   S8        1.0  0.6124152698313275  0.11389338718112309  0.12170790989286327  1.0000
  Fe  Fe5       1.0  0.40976488734299343  0.05273532586980334  0.40183380219326015  1.0000
  S   S9        1.0  0.3981325306103484  0.9828224477929872  0.3863283901346667  1.0000
  S   S10       1.0  0.36430382783226406  0.10879989379391941  0.3880808871469904  1.0000
  Fe  Fe6       1.0  0.4957991501495834  0.033301358227697975  0.4413695999507641  1.0000
  S   S11       1.0  0.49185559915834703  0.9617115164375459  0.4302629810538766  1.0000
  S   S12       1.0  0.5577793445088732  0.05819189357423826  0.4684989649658038  1.0000
  Fe  Fe7       1.0  0.4727007381568526  0.982140487835547  0.375669959902209  1.0000
  S   S13       1.0  0.5109919626799159  0.9505077361024978  0.3315530131279608  1.0000
  Fe  Fe8       1.0  0.4184145892824924  0.9683956104310465  0.44221922728438373  1.0000
  S   S14       1.0  0.3855962179664094  0.9164949315512764  0.47523100416966935  1.0000
  S   S15       1.0  0.48250220069689764  0.05355347910350461  0.3856104520985031  1.0000
  S   S16       1.0  0.42390347660885286  0.038439847202970334  0.4590320568171665  1.0000
  Fe  Fe9       1.0  0.5014029141752991  0.1264802461311336  0.7363197198165481  1.0000
  S   S17       1.0  0.43842964171392096  0.16409199576992398  0.724008477261275  1.0000
  S   S18       1.0  0.5365620584336873  0.13109437804547652  0.7888613397613599  1.0000
  Fe  Fe10      1.0  0.504728559191956  0.08406995152290221  0.6637951465083899  1.0000
  S   S19       1.0  0.4405762077133576  0.11567883226785879  0.6458810071927896  1.0000
  S   S20       1.0  0.5492385008999282  0.03788590762650923  0.6340649906601744  1.0000
  Fe  Fe11      1.0  0.47004237120661735  0.17583842729649932  0.6711292552295237  1.0000
  S   S21       1.0  0.4682823312310236  0.23895528082455997  0.6407813191044803  1.0000
  Fe  Fe12      1.0  0.41507899694194167  0.10061572527290881  0.700477653394566  1.0000
  S   S22       1.0  0.3478875748008372  0.07199772332620771  0.7159634706440607  1.0000
  S   S23       1.0  0.53592523215037  0.14485571135584147  0.6856600745037283  1.0000
  S   S24       1.0  0.47655045971812116  0.0624939537698694  0.7155074671411871  1.0000
  Fe  Fe13      1.0  0.2862632016480317  0.048470113247799596  0.9103176125597555  1.0000
  S   S25       1.0  0.2375273807952419  0.9959718134497311  0.8948025067477273  1.0000
  S   S26       1.0  0.3510954795326182  0.06346510373460723  0.8824854083489829  1.0000
  Fe  Fe14      1.0  0.2385836914928126  0.06859140585029033  0.9796389313053938  1.0000
  S   S27       1.0  0.18593348356739486  0.017086120812620953  0.9706306484288019  1.0000
  S   S28       1.0  0.245493688596175  0.1130403171322858  0.026800416884307454  1.0000
  Fe  Fe15      1.0  0.24314568373192755  0.9753499320636227  0.9515164246144745  1.0000
  S   S29       1.0  0.2594601774019969  0.9079643285175675  0.9712087672066569  1.0000
  Fe  Fe16      1.0  0.18486489183873905  0.042622733366209475  0.9149227552881944  1.0000
  S   S30       1.0  0.550952693196231  0.9514768714917942  0.8694078402268116  1.0000
  S   S31       1.0  0.29585561114392833  0.024678290755985932  0.9654846184773861  1.0000
  S   S32       1.0  0.23364598163331293  0.09738205967293286  0.9253216574883839  1.0000
  Fe  Fe17      1.0  0.6345155758119664  0.5431978082534392  0.6766050588994725  1.0000
  S   S33       1.0  0.581586788567484  0.573355176171716  0.6417007278623239  1.0000
  S   S34       1.0  0.2869742900889668  0.469015689682099  0.7353330297815577  1.0000
  Fe  Fe18      1.0  0.5849593125085101  0.4561368530409903  0.6808190743548435  1.0000
  S   S35       1.0  0.5290060898824033  0.4791188609702957  0.6459050495206782  1.0000
  S   S36       1.0  0.5826674724594639  0.39153273970519725  0.709166537358811  1.0000
  Fe  Fe19      1.0  0.5838080760345941  0.50942197932077  0.613015857964309  1.0000
  S   S37       1.0  0.5848680826012141  0.49982531135248004  0.5539409459197525  1.0000
  Fe  Fe20      1.0  0.5322644845201545  0.5403296732144013  0.6781054636136842  1.0000
  S   S38       1.0  0.46504197771884437  0.5666449114707557  0.6958185516375808  1.0000
  S   S39       1.0  0.640117620466753  0.48117159447573365  0.6454098745694528  1.0000
  S   S40       1.0  0.5849409553699558  0.5155060016293002  0.7153823413634187  1.0000
  Fe  Fe21      1.0  0.3102000293112692  0.6991450863426535  0.8816752408978423  1.0000
  S   S41       1.0  0.268751978021731  0.6656609412168624  0.9232810720587739  1.0000
  S   S42       1.0  0.28515225257867094  0.7607879072680852  0.8564749984638388  1.0000
  Fe  Fe22      1.0  0.37891556376247604  0.6252930508971912  0.877744851436638  1.0000
  S   S43       1.0  0.3419488253645358  0.5851434246179733  0.9178842099206865  1.0000
  S   S44       1.0  0.4467053693723249  0.6003594320925064  0.8600468260693857  1.0000
  Fe  Fe23      1.0  0.2794327339784788  0.6063565195559352  0.8898051445687173  1.0000
  S   S45       1.0  0.2219772450496207  0.5624649317968845  0.8748380991963878  1.0000
  Fe  Fe24      1.0  0.33548356749201  0.6482565012893154  0.9472556442738042  1.0000
  S   S46       1.0  0.35470261147265486  0.6510049410913534  0.0045116730098595514  1.0000
  S   S47       1.0  0.3167816984696208  0.6409437783809754  0.8465416112739672  1.0000
  S   S48       1.0  0.37631525799657023  0.6875827388191327  0.9087779667563091  1.0000
  Fe  Fe25      1.0  0.3414849380535308  0.6884202680017292  0.4092993529672519  1.0000
  S   S49       1.0  0.3673988594898887  0.6383590488558235  0.447399865155525  1.0000
  S   S50       1.0  0.38722003787987647  0.7407699165759875  0.3879562690202073  1.0000
  Fe  Fe26      1.0  0.2517372952812543  0.6415295397071246  0.39847806181517587  1.0000
  S   S51       1.0  0.270538153850209  0.5867634678123862  0.4347468834006179  1.0000
  S   S52       1.0  0.5493753306025125  0.5662146800566304  0.3327085603462254  1.0000
  Fe  Fe27      1.0  0.2973549568944833  0.6395794426463671  0.46991506531543414  1.0000
  S   S53       1.0  0.28036369971719666  0.638606173769364  0.5277864911196488  1.0000
  Fe  Fe28      1.0  0.33838465716710103  0.5905302039745963  0.4090520058860346  1.0000
  S   S54       1.0  0.3788941160810451  0.5331798382716185  0.39140708798174767  1.0000
  S   S55       1.0  0.2737095021039522  0.6946805479249533  0.43547039764799045  1.0000
  S   S56       1.0  0.3173591113923577  0.6402232328713421  0.3690590946964863  1.0000
  Fe  Fe29      1.0  0.3785043118957668  0.38576670576676964  0.16613978024837558  1.0000
  S   S57       1.0  0.40459439465044167  0.4353762211290253  0.12756622276335858  1.0000
  S   S58       1.0  0.379203553307896  0.31332077448707574  0.15768943294561816  1.0000
  Fe  Fe30      1.0  0.3309689115217261  0.45350184366455526  0.21094022616892275  1.0000
  S   S59       1.0  0.35206623616014193  0.5091033585433269  0.1761698652052852  1.0000
  S   S60       1.0  0.28167210767392575  0.466234165082043  0.2545188563568566  1.0000
  Fe  Fe31      1.0  0.3354566367364465  0.46434149936165015  0.13130281992297907  1.0000
  S   S61       1.0  0.2927625671508238  0.48041804723350945  0.08422232370690609  1.0000
  Fe  Fe32      1.0  0.41942353644711494  0.4755064257974104  0.1760608462791806  1.0000
  S   S62       1.0  0.4815183204665601  0.5181745812713627  0.17957503798639493  1.0000
  S   S63       1.0  0.30811460230172616  0.41194875532385083  0.1661950715552575  1.0000
  S   S64       1.0  0.3994934095266343  0.4227573329394531  0.21456182425696663  1.0000
  C   C1        1.0  0.3505042323263619  0.5100459303077579  0.35559212194984735  1.0000
  C   C2        1.0  0.3731524600191719  0.48181459073312066  0.33265165402971275  1.0000
  C   C3        1.0  0.35192816091203993  0.4675221643209529  0.30166049955824764  1.0000
  C   C4        1.0  0.3076933217888509  0.4804667328563302  0.29425382933322314  1.0000
  C   C5        1.0  0.2844914368103356  0.5071806547422483  0.3179767697246505  1.0000
  C   C6        1.0  0.30606113828841097  0.5224186722979188  0.34838534869556737  1.0000
  H   H1        1.0  0.4075406288881514  0.4721834821271765  0.3382059537955606  1.0000
  H   H2        1.0  0.36974977467608405  0.44638911177394375  0.2836728471008791  1.0000
  H   H3        1.0  0.2503603389258303  0.517373845686613  0.31226128931985103  1.0000
  H   H4        1.0  0.28829042026457125  0.5440253483056291  0.3660638333542407  1.0000
  C   C7        1.0  0.5321507798039427  0.5523895320010157  0.2899048154339572  1.0000
  C   C8        1.0  0.4997856075341292  0.5194663716789469  0.2855324193798268  1.0000
  C   C9        1.0  0.48424134031577726  0.5085535966314229  0.2517246258183744  1.0000
  C   C10       1.0  0.5012072672358512  0.5303914942637177  0.2221170963249314  1.0000
  C   C11       1.0  0.5338084796769713  0.5631978622184235  0.22648390244267916  1.0000
  C   C12       1.0  0.5492766199571478  0.5742317862608839  0.2603589190331238  1.0000
  H   H5        1.0  0.4863423013656626  0.5025493030267857  0.30837594057120543  1.0000
  H   H6        1.0  0.4590653558319967  0.4833173968587173  0.24866984697363906  1.0000
  H   H7        1.0  0.5467643710646735  0.5804034188130198  0.20362028031748686  1.0000
  H   H8        1.0  0.5738164806125828  0.6000809314167699  0.2635731687559539  1.0000
  C   C13       1.0  0.3378804207873867  0.6033535173211686  0.026461443120130435  1.0000
  C   C14       1.0  0.30524453667820084  0.5759785654650391  0.011584234090803891  1.0000
  C   C15       1.0  0.2920778478047035  0.5377529419975764  0.029209561184102433  1.0000
  C   C16       1.0  0.31197124728803755  0.5265772315242436  0.06146845875022449  1.0000
  C   C17       1.0  0.34501871972322185  0.553680338975421  0.07617825112535387  1.0000
  C   C18       1.0  0.35764721822465334  0.5923205718453044  0.058817527940459996  1.0000
  H   H9        1.0  0.2896559952850367  0.5845410342516355  0.9867227431180422  1.0000
  H   H10       1.0  0.2664563544477935  0.5168347561774466  0.01784160408445934  1.0000
  H   H11       1.0  0.3604307828388049  0.5451704098733977  0.10111074918335641  1.0000
  H   H12       1.0  0.38285389706283507  0.6135229901122885  0.07039045901464078  1.0000
  C   C19       1.0  0.6098076988489306  0.5405393108795359  0.5276475739345261  1.0000
  C   C20       1.0  0.6238875907983408  0.5300241031476647  0.4933734877085581  1.0000
  C   C21       1.0  0.6436037723895385  0.5619220021831968  0.4715678142715206  1.0000
  C   C22       1.0  0.2663610136675008  0.5858459761414446  0.5419881678519187  1.0000
  C   C23       1.0  0.2392801425646451  0.5800107701684512  0.5719710866795166  1.0000
  C   C24       1.0  0.2260896471536827  0.537824491508009  0.5824226942654384  1.0000
  H   H13       1.0  0.6199704992627972  0.496937530675283  0.48380161082150064  1.0000
  H   H14       1.0  0.6550300423225538  0.5533312323855246  0.4453993133913199  1.0000
  H   H15       1.0  0.22798961936030854  0.6081361829071462  0.5868200386767892  1.0000
  H   H16       1.0  0.20425792179509572  0.5335561234624528  0.6050082550537306  1.0000
  C   C25       1.0  0.46031765328499064  0.5768921598191602  0.7413770410372114  1.0000
  C   C26       1.0  0.41755059670009614  0.5829162518126964  0.7564416814012007  1.0000
  C   C27       1.0  0.4130709879696336  0.5899146148826523  0.7928802693013386  1.0000
  C   C28       1.0  0.4513411757524065  0.5911775727956767  0.8144135156377983  1.0000
  C   C29       1.0  0.49405191569910895  0.5849028137805636  0.799426456821822  1.0000
  C   C30       1.0  0.4985442265249608  0.5781037235638592  0.7629653692105398  1.0000
  H   H17       1.0  0.38770928691740597  0.5821374302899966  0.7401260275461782  1.0000
  H   H18       1.0  0.379960983479505  0.5940204183194621  0.8042528453207205  1.0000
  H   H19       1.0  0.5238070521348812  0.5861350439640506  0.8159278645570844  1.0000
  H   H20       1.0  0.5316977083167561  0.5749629229977504  0.7515760404343684  1.0000
  C   C31       1.0  0.2686917357078517  0.49329284050888655  0.774735107342507  1.0000
  C   C32       1.0  0.30029807537618497  0.5123284243215608  0.7974174129807915  1.0000
  C   C33       1.0  0.2859925324508991  0.5324448096728117  0.8286926583213118  1.0000
  C   C34       1.0  0.24006250231202156  0.533713078553616  0.8373474533402082  1.0000
  C   C35       1.0  0.20856422097701172  0.5137958885699518  0.8150861765471664  1.0000
  C   C36       1.0  0.22282121585583192  0.493953970713575  0.7836249738684176  1.0000
  H   H21       1.0  0.33581373357022964  0.5118190811302964  0.7907614018986828  1.0000
  H   H22       1.0  0.3107015899340391  0.5467253329386961  0.8461631198556276  1.0000
  H   H23       1.0  0.17316057165091128  0.5141991309372768  0.8218376735666768  1.0000
  H   H24       1.0  0.19825052372275812  0.47945246163772615  0.7661950530473356  1.0000
  C   C37       1.0  0.2654151655263296  0.8671743292554859  0.939076478364928  1.0000
  C   C38       1.0  0.2510102075373897  0.8738472266884952  0.9043358645610595  1.0000
  C   C39       1.0  0.25690862385230456  0.8409636594754142  0.8789850518356532  1.0000
  C   C40       1.0  0.2772142523263789  0.8013888888756268  0.888375654901002  1.0000
  C   C41       1.0  0.29134926454939086  0.7945595511138382  0.9231379466591795  1.0000
  C   C42       1.0  0.28541833589819404  0.8274279780990228  0.9484450454557332  1.0000
  H   H25       1.0  0.2345043427717142  0.9039008683045964  0.8971342303007042  1.0000
  H   H26       1.0  0.24557621784433223  0.8461583543067953  0.8521629320936188  1.0000
  H   H27       1.0  0.3069733116525367  0.7640220463855348  0.930586965390187  1.0000
  H   H28       1.0  0.29640034145883504  0.8220682504775034  0.9753471013923459  1.0000
  C   C43       1.0  0.4990930241358051  0.28153323642300404  0.6603842454234752  1.0000
  C   C44       1.0  0.5202621352231196  0.2756431385555776  0.6930049889632633  1.0000
  C   C45       1.0  0.5459408075166818  0.3096339760704791  0.7077189549952723  1.0000
  C   C46       1.0  0.5507088038151343  0.34948588400723035  0.6898227304845016  1.0000
  C   C47       1.0  0.5296172301776817  0.3552770910711971  0.6571486109059826  1.0000
  C   C48       1.0  0.5037225266115947  0.32139583666616695  0.6425178407368979  1.0000
  H   H29       1.0  0.5168830489174344  0.24493471985586815  0.7069438208977885  1.0000
  H   H30       1.0  0.5623260787695687  0.304943437659432  0.732968877586866  1.0000
  H   H31       1.0  0.5337105747415464  0.38555151216715905  0.6428807732833056  1.0000
  H   H32       1.0  0.48759170913437855  0.3259488079538137  0.6171634481983681  1.0000
  C   C49       1.0  0.536292205437264  0.08277833571801055  0.8139145369020983  1.0000
  C   C50       1.0  0.5677847061341721  0.07777952063807268  0.8410771345408182  1.0000
  C   C51       1.0  0.5708747136803782  0.03807504591289579  0.8593460399600358  1.0000
  C   C52       1.0  0.5430419998686623  0.0029571109629331627  0.8501429236138701  1.0000
  C   C53       1.0  0.5098302217154919  0.008671712892422967  0.8243756989156522  1.0000
  C   C54       1.0  0.506408499311251  0.04859250862715703  0.8063831293864281  1.0000
  H   H33       1.0  0.590532008169951  0.10432028550329715  0.8475169714813483  1.0000
  H   H34       1.0  0.5948163990982761  0.03473921061120944  0.8806032631603956  1.0000
  H   H35       1.0  0.4876838970807632  0.9818876353562599  0.8175093652551426  1.0000
  H   H36       1.0  0.4805827848171448  0.0527496006076289  0.7867887970663138  1.0000
  C   C55       1.0  0.3483963188516182  0.06705404920557656  0.7622343436052125  1.0000
  C   C56       1.0  0.3114214358500833  0.04948958016736005  0.7805487718988884  1.0000
  C   C57       1.0  0.3113041300689555  0.04874507338448342  0.8176990239931071  1.0000
  C   C58       1.0  0.34874217117924033  0.06452588854594521  0.8363385367001663  1.0000
  C   C59       1.0  0.3860658517050483  0.08062953171541709  0.8179778830663071  1.0000
  C   C60       1.0  0.3857149975005422  0.08214022421461614  0.7811531749155823  1.0000
  H   H37       1.0  0.28292545845778183  0.03667266935631086  0.7661173796593533  1.0000
  H   H38       1.0  0.282470733595354  0.035843567628352835  0.8317923978910176  1.0000
  H   H39       1.0  0.4152087853408237  0.09265218132072395  0.8321614045256458  1.0000
  H   H40       1.0  0.41452681431977945  0.09532356221252151  0.7675879890092938  1.0000
  C   C61       1.0  0.38546173481614365  0.8673676937281952  0.45131932117119894  1.0000
  C   C62       1.0  0.40505062589070207  0.8659137694729016  0.4177390300219028  1.0000
  C   C63       1.0  0.4048131934438393  0.8270136640704747  0.39836777856216077  1.0000
  C   C64       1.0  0.38551585162985363  0.7891866996387668  0.41259571462687933  1.0000
  C   C65       1.0  0.3659618915752938  0.7903903025440693  0.4462437920580533  1.0000
  C   C66       1.0  0.3659424580613738  0.8295435725664663  0.4656221918438826  1.0000
  H   H41       1.0  0.4201389444242884  0.8948158188833903  0.4064774707898512  1.0000
  H   H42       1.0  0.41891056314698416  0.8264197403394715  0.3720680901687884  1.0000
  H   H43       1.0  0.3510310578238097  0.7611907369200022  0.45738857573735886  1.0000
  H   H44       1.0  0.350695977334427  0.8304925156128304  0.4915697682830691  1.0000
  C   C67       1.0  0.5541096119606607  0.05249768031985802  0.5143819289064848  1.0000
  C   C68       1.0  0.5899529077093255  0.03347185378216233  0.5327012462144612  1.0000
  C   C69       1.0  0.5877300363706149  0.02860959834961707  0.5694052712318646  1.0000
  C   C70       1.0  0.550477255275231  0.04432513891005963  0.5881163561151438  1.0000
  C   C71       1.0  0.5149400655013522  0.06436058575730923  0.5699345433294942  1.0000
  C   C72       1.0  0.5163367288276011  0.0676212046767511  0.5329234579285178  1.0000
  H   H45       1.0  0.619257240324363  0.02186129886656163  0.5184487270100947  1.0000
  H   H46       1.0  0.6153124610549171  0.013169593158093296  0.5833611790702004  1.0000
  H   H47       1.0  0.4861320283430055  0.07670826258359682  0.5842431054329533  1.0000
  H   H48       1.0  0.48873171228351125  0.08269231068523958  0.5187624174135868  1.0000
  C   C73       1.0  0.5113205286344904  0.24001156064322984  0.17279655988570644  1.0000
  C   C74       1.0  0.47129889733320685  0.21780520694908242  0.16523489215571296  1.0000
  C   C75       1.0  0.43099906822489487  0.24076242255891422  0.16080244623647735  1.0000
  C   C76       1.0  0.4303810336897434  0.2861889535654103  0.16420523114181113  1.0000
  C   C77       1.0  0.4700558172207841  0.30869436861952215  0.17268770304255962  1.0000
  C   C78       1.0  0.5106001520105462  0.2854954913017285  0.1770632182059347  1.0000
  H   H49       1.0  0.47114378326129225  0.1828700735573  0.16329100623835935  1.0000
  H   H50       1.0  0.40027581794658423  0.2232982601331124  0.1545027200667053  1.0000
  H   H51       1.0  0.4695923647815035  0.3438584243787107  0.17544631888039786  1.0000
  H   H52       1.0  0.5414678513716252  0.302806466297498  0.18320555897094717  1.0000
  C   C79       1.0  0.594472733790023  0.06907542922865517  0.010463575717224227  1.0000
  C   C80       1.0  0.1573144600457983  0.1444448071244391  0.10390259396281407  1.0000
  C   C81       1.0  0.19164907185590413  0.14665293818726077  0.07844827654154338  1.0000
  C   C82       1.0  0.19949869945261045  0.11120398555840372  0.055962014574118646  1.0000
  C   C83       1.0  0.6327303053961736  0.03605958605992133  0.9605974768950376  1.0000
  C   C84       1.0  0.5928697802416526  0.04559305822763538  0.9788369614481088  1.0000
  H   H53       1.0  0.1506739928456271  0.17219512410087542  0.12065109871022259  1.0000
  H   H54       1.0  0.2121283012949288  0.17577555833733172  0.0761304553474233  1.0000
  H   H55       1.0  0.6312922353759657  0.016932605369172737  0.9367498566958697  1.0000
  H   H56       1.0  0.5611197370462881  0.03295352342067881  0.969168182204804  1.0000
  C   C85       1.0  0.4619213377145601  0.0036333626349343007  0.22596286445182645  1.0000
  C   C86       1.0  0.4315339860235914  0.9984532688925515  0.253924941194188  1.0000
  C   C87       1.0  0.4465034525318986  0.9823174660423166  0.2865539344687165  1.0000
  C   C88       1.0  0.49154899107361055  0.9697101724283727  0.2907295321859857  1.0000
  C   C89       1.0  0.5215537809277918  0.9732592438462688  0.26232294672811735  1.0000
  C   C90       1.0  0.5068898716095084  0.9907613052749814  0.2301035931347107  1.0000
  H   H57       1.0  0.3967487816697662  0.007973955283449907  0.25056403839000063  1.0000
  H   H58       1.0  0.4230601534611991  0.9791594887992077  0.3082944624125134  1.0000
  H   H59       1.0  0.5563887687859388  0.9634231012324443  0.2653676885819798  1.0000
  H   H60       1.0  0.5304260829029994  0.9941172707974866  0.20841903835080722  1.0000
  C   C91       1.0  0.2964257347218913  0.10016011739906162  0.28052082373870957  1.0000
  C   C92       1.0  0.2883712306336419  0.13584702584871755  0.3025694464567066  1.0000
  C   C93       1.0  0.3099763750943676  0.13860947421538414  0.33541562015999604  1.0000
  C   C94       1.0  0.33976391794792155  0.10575746593461965  0.3461841778013525  1.0000
  C   C95       1.0  0.3486594440014888  0.07058303069520155  0.3237422771971324  1.0000
  C   C96       1.0  0.3268901217334315  0.06779745339323973  0.2909602616664123  1.0000
  H   H61       1.0  0.26583090425853184  0.1615351952310799  0.29424465761852664  1.0000
  H   H62       1.0  0.30347700899829655  0.16614521324706127  0.35258092995708107  1.0000
  H   H63       1.0  0.3719007985419125  0.04531356337505832  0.33172331347867484  1.0000
  H   H64       1.0  0.33279245856547834  0.04002748978412951  0.2740085993207712  1.0000
  Fe  Fe33      1.0  0.20147380327766262  0.12967312337533757  0.23795486972621266  1.0000
  S   S65       1.0  0.13897902954877273  0.0885957429856661  0.2355782086674904  1.0000
  S   S66       1.0  0.6695714548462769  0.017699731216901608  0.17471360418371856  1.0000
  Fe  Fe34      1.0  0.14882427506162865  0.21432689957229292  0.2283165436754304  1.0000
  S   S67       1.0  0.08176715825097536  0.18040859777010354  0.2251084461875361  1.0000
  S   S68       1.0  0.16195068980325855  0.2860611125720514  0.22044658633074515  1.0000
  Fe  Fe35      1.0  0.10818444398076821  0.13990413800320037  0.27008042216834427  1.0000
  S   S69       1.0  0.06970197659986987  0.1261208401765294  0.3202024973148897  1.0000
  Fe  Fe36      1.0  0.11881893120840115  0.13243534838094623  0.1909898483676334  1.0000
  S   S70       1.0  0.09195417371521164  0.10143956008639034  0.14180003016246887  1.0000
  S   S71       1.0  0.1726587013536207  0.17789873049090316  0.2762338197739114  1.0000
  S   S72       1.0  0.183994138570585  0.16940623108966954  0.19056587113425053  1.0000
  Fe  Fe37      1.0  0.7837992861752323  0.034691992167970476  0.3558000168345404  1.0000
  S   S73       1.0  0.8031568179851187  0.9668336671854895  0.34014745925398643  1.0000
  S   S74       1.0  0.7381217879396244  0.07890450712567043  0.3247838084486759  1.0000
  Fe  Fe38      1.0  0.8400178969505195  0.03242062973797788  0.423158689402022  1.0000
  S   S75       1.0  0.8646076015048262  0.964203028395051  0.41304083047857865  1.0000
  S   S76       1.0  0.8553947634492811  0.07615736690885333  0.46935412207129346  1.0000
  Fe  Fe39      1.0  0.872636687339186  0.9868426028556101  0.3570645962925065  1.0000
  S   S77       1.0  0.930138872346797  0.9697228611545426  0.32112037547189154  1.0000
  Fe  Fe40      1.0  0.7928502189513436  0.9505853702988887  0.3971857991308079  1.0000
  S   S78       1.0  0.7577120260364791  0.8903413076545054  0.4172728883649859  1.0000
  S   S79       1.0  0.854058018054234  0.056367639881524934  0.3682070000467427  1.0000
  S   S80       1.0  0.7675882749709008  0.017005882870390066  0.4118178859822616  1.0000
  Fe  Fe41      1.0  0.027876432892001368  0.0670692797940071  0.7048574263301944  1.0000
  S   S81       1.0  0.9946867216977759  0.12940281380955063  0.7215010680072571  1.0000
  S   S82       1.0  0.09522062159593747  0.04417098109088191  0.7251286971527349  1.0000
  Fe  Fe42      1.0  0.9544172690758274  0.04613665147522706  0.6510731095916054  1.0000
  S   S83       1.0  0.9150385727074254  0.10687910386766163  0.6632440633931875  1.0000
  S   S84       1.0  0.937919199922365  0.9969152520169429  0.6087961720251922  1.0000
  Fe  Fe43      1.0  0.9827571152530162  0.13981690282231446  0.6637361312005073  1.0000
  S   S85       1.0  0.9968480277893881  0.2025963419679659  0.6348527070215497  1.0000
  Fe  Fe44      1.0  0.930552099483953  0.09047845253199994  0.7197383744113673  1.0000
  S   S86       1.0  0.8829655011876941  0.09939213626580648  0.7653160249593322  1.0000
  S   S87       1.0  0.020992994283003608  0.08050216790396704  0.6470508721311335  1.0000
  S   S88       1.0  0.9647058225582686  0.026792949467377536  0.7078217085910854  1.0000
  Fe  Fe45      1.0  0.7174167444853061  0.9387314739590712  0.8436861539461249  1.0000
  S   S89       1.0  0.6647537878280575  0.8872322147851597  0.8529698807519369  1.0000
  S   S90       1.0  0.7493625964673772  0.941370270962777  0.7899143349969483  1.0000
  Fe  Fe46      1.0  0.706449017891701  0.9765264432652646  0.917102348708448  1.0000
  S   S91       1.0  0.6539363420600285  0.9272969438085932  0.9328190352464318  1.0000
  S   S92       1.0  0.7244203840539258  0.029302680843575457  0.9557080417114024  1.0000
  Fe  Fe47      1.0  0.6987926221602814  0.8791907519161031  0.9054246705085306  1.0000
  S   S93       1.0  0.7142332386986183  0.8134852715388092  0.9290564725564502  1.0000
  Fe  Fe48      1.0  0.6252984573772113  0.9406787616664248  0.8791520512022059  1.0000
  S   S94       1.0  0.11773373111098162  0.05869093513804313  0.8903201175034045  1.0000
  S   S95       1.0  0.754433082299767  0.9272805954219886  0.8944967738381688  1.0000
  S   S96       1.0  0.6752045175269442  0.9930246527633835  0.8649793578878008  1.0000
  Fe  Fe49      1.0  0.22821514973922308  0.4430089378985017  0.7044401520861394  1.0000
  S   S97       1.0  0.1869318947739056  0.4874013299505151  0.6701774112213762  1.0000
  S   S98       1.0  0.6955134813474737  0.5843592281966178  0.6896724704389184  1.0000
  Fe  Fe50      1.0  0.18082787300934555  0.3605841880379932  0.6792876363464863  1.0000
  S   S99       1.0  0.13630448063668732  0.3976954821577209  0.6421845072813992  1.0000
  S   S100      1.0  0.17730135136104552  0.28808362554596373  0.689135721463379  1.0000
  Fe  Fe51      1.0  0.19839370924519373  0.4363145247070797  0.6288157557701495  1.0000
  S   S101      1.0  0.22107623942374532  0.4487713897675162  0.5730819298106757  1.0000
  Fe  Fe52      1.0  0.12883424755922546  0.444919020744568  0.6869032802891959  1.0000
  S   S102      1.0  0.057833745667514425  0.46595603961834  0.6985171476027857  1.0000
  S   S103      1.0  0.2438921451508289  0.39477564328396536  0.6619345316474544  1.0000
  S   S104      1.0  0.1690391117851333  0.40507670984789873  0.7253119155500652  1.0000
  Fe  Fe53      1.0  0.8886883871338399  0.6562324276948382  0.8568106680958382  1.0000
  S   S105      1.0  0.8409920456175403  0.6079139806052751  0.8811113188281537  1.0000
  S   S106      1.0  0.8699869006230154  0.7244649524298896  0.8411308924524772  1.0000
  Fe  Fe54      1.0  0.9641965258917491  0.5910649864588079  0.8501262741826887  1.0000
  S   S107      1.0  0.9234183633547723  0.5365594467134256  0.8736996491206319  1.0000
  S   S108      1.0  0.03707616166727101  0.5830826191772722  0.8346009328105168  1.0000
  Fe  Fe55      1.0  0.8669746769327222  0.5619615871977386  0.8398625758351148  1.0000
  S   S109      1.0  0.8185487680922242  0.5150746904566048  0.8139426597179713  1.0000
  Fe  Fe56      1.0  0.9010892468003354  0.5867841649029314  0.9129804582272771  1.0000
  S   S110      1.0  0.891453844955054  0.5676868770871828  0.9700230290522277  1.0000
  S   S111      1.0  0.9099093662167094  0.6120531565099775  0.8126386067123736  1.0000
  S   S112      1.0  0.9466990045692667  0.6395701291510633  0.8923256576746027  1.0000
  Fe  Fe57      1.0  0.6665471453107271  0.68982919853062  0.3324038347150514  1.0000
  S   S113      1.0  0.7260965670826387  0.6633449729338702  0.36216780316157626  1.0000
  S   S114      1.0  0.6644266606096689  0.7587522304047254  0.31162782153743585  1.0000
  Fe  Fe58      1.0  0.6128768902876056  0.6058071658475602  0.3388561809486341  1.0000
  S   S115      1.0  0.6673558812263302  0.5727894277424664  0.3696796816336302  1.0000
  S   S116      1.0  0.18088178555550916  0.6421650781738837  0.3769798549598864  1.0000
  Fe  Fe59      1.0  0.6734281220513787  0.6358635480097387  0.3989606790508923  1.0000
  S   S117      1.0  0.6761475066715779  0.6445656890505852  0.45804960288426994  1.0000
  Fe  Fe60      1.0  0.7144662932087485  0.6027466008834683  0.3298829316979388  1.0000
  S   S118      1.0  0.7649155836019544  0.5558187198443241  0.30648112365224495  1.0000
  S   S119      1.0  0.6147474417920148  0.6668182231568667  0.37139375266010594  1.0000
  S   S120      1.0  0.6591591765863173  0.6314575802691627  0.29679681731648794  1.0000
  Fe  Fe61      1.0  0.016539470441450543  0.4870046304904027  0.18944149363822324  1.0000
  S   S121      1.0  0.07993368295207248  0.5076777523080813  0.16199105218425103  1.0000
  S   S122      1.0  0.9992777093903178  0.41725734483533256  0.20294047103072155  1.0000
  Fe  Fe62      1.0  0.9828030388859349  0.5794295712936286  0.1978226373980056  1.0000
  S   S123      1.0  0.044227647842130846  0.6081794864215756  0.17162618403097402  1.0000
  S   S124      1.0  0.9275010540402172  0.6266888822154468  0.21307615465922686  1.0000
  Fe  Fe63      1.0  0.03645752747698161  0.5543661184900245  0.13214748963311096  1.0000
  S   S125      1.0  0.05551209334805307  0.571644758856477  0.07612281416329096  1.0000
  Fe  Fe64      1.0  0.0833756338934033  0.5597271415229175  0.20329151835682285  1.0000
  S   S126      1.0  0.1544186932430458  0.5720686445709074  0.221495529421264  1.0000
  S   S127      1.0  0.9717108205551892  0.5291442893115974  0.15560978573146722  1.0000
  S   S128      1.0  0.023127969625233114  0.5356041365099046  0.23362556224221068  1.0000
  C   C97       1.0  0.8100189742062307  0.5762288264567978  0.28080171479650373  1.0000
  C   C98       1.0  0.8430392402375442  0.5471975559418562  0.2684264695362159  1.0000
  C   C99       1.0  0.8793442427404529  0.5623653127948588  0.24779718013830515  1.0000
  C   C100      1.0  0.8826530840358234  0.6066925701600597  0.23923942174792825  1.0000
  C   C101      1.0  0.8494283289089039  0.6357110792921754  0.2513623531393382  1.0000
  C   C102      1.0  0.8132470843469165  0.6205732718741869  0.2721921880420463  1.0000
  H   H65       1.0  0.8407516932907685  0.512862030775552  0.27500349447710987  1.0000
  H   H66       1.0  0.904738892348887  0.5397295451501575  0.23854430334247229  1.0000
  H   H67       1.0  0.8517855498318433  0.6700197802631175  0.24476171104534353  1.0000
  H   H68       1.0  0.7878531802536002  0.6431383974022127  0.28151433570725554  1.0000
  C   C103      1.0  0.17382217682749412  0.6226026352074171  0.33372965280364214  1.0000
  C   C104      1.0  0.1304557174168275  0.6211644673340969  0.3189681241525922  1.0000
  C   C105      1.0  0.12408313601686571  0.6058340731851298  0.2843959345038156  1.0000
  C   C106      1.0  0.16118338331560822  0.5921278980578585  0.2644966078087696  1.0000
  C   C107      1.0  0.20446472706113572  0.5932397777067437  0.2793073169476586  1.0000
  C   C108      1.0  0.21075754726558094  0.6082536835668593  0.3139400253279487  1.0000
  H   H69       1.0  0.10177644727965518  0.6322464625462774  0.33419659615683006  1.0000
  H   H70       1.0  0.09057906993790299  0.60503178012488  0.27307327475893234  1.0000
  H   H71       1.0  0.23305346221061596  0.5818782102419279  0.2641171907360052  1.0000
  H   H72       1.0  0.24409986302942688  0.6086711359764929  0.3253149006576647  1.0000
  C   C109      1.0  0.9392160310871775  0.5655824577830998  0.997311292484156  1.0000
  C   C110      1.0  0.9786331031675368  0.588615048231378  0.9889159053561379  1.0000
  C   C111      1.0  0.014871751231087416  0.5893290343007469  0.012831306379738061  1.0000
  C   C112      1.0  0.011605579640159958  0.5672556009091885  0.045201917747418295  1.0000
  C   C113      1.0  0.9727028046465893  0.5433239778282799  0.05311386183195894  1.0000
  C   C114      1.0  0.9365582057506291  0.5425691253566605  0.02924994126276872  1.0000
  H   H73       1.0  0.9806229912279806  0.6068789480754869  0.9645065691194772  1.0000
  H   H74       1.0  0.04482670837882918  0.6081662736098662  0.0067569120393566875  1.0000
  H   H75       1.0  0.9703992749399422  0.5253695505888408  0.0776255147413273  1.0000
  H   H76       1.0  0.9062222519838476  0.5244369912006155  0.0356711593867707  1.0000
  C   C115      1.0  0.2395528721452913  0.5015841256969655  0.5625904897173233  1.0000
  C   C116      1.0  0.26717134507456497  0.5075001860868396  0.5329777425690712  1.0000
  C   C117      1.0  0.28093681239603074  0.549496054476572  0.5229051499719931  1.0000
  C   C118      1.0  0.6497350543730093  0.604427449922606  0.48411341681056397  1.0000
  C   C119      1.0  0.6356808064207403  0.6149543827841804  0.518413733583864  1.0000
  C   C120      1.0  0.61557438022998  0.5831303474519596  0.5401236077822087  1.0000
  H   H77       1.0  0.2779019454894385  0.47948637177757547  0.517718154787212  1.0000
  H   H78       1.0  0.3029970476426016  0.5536256978919939  0.5004112012954991  1.0000
  H   H79       1.0  0.6401000492425807  0.6479268565446932  0.5281214531901561  1.0000
  H   H80       1.0  0.6042783207399387  0.591662231632955  0.5663517805373972  1.0000
  C   C121      1.0  0.052601577008098754  0.4981743262187528  0.7364993084464401  1.0000
  C   C122      1.0  0.009596612722241993  0.5068675974654262  0.7501107762291371  1.0000
  C   C123      1.0  0.004698439783012542  0.532581970238446  0.7804747089461515  1.0000
  C   C124      1.0  0.04277609325899823  0.5502249041436098  0.7969470113768775  1.0000
  C   C125      1.0  0.08579851978602004  0.5415413553122828  0.7833168784409412  1.0000
  C   C126      1.0  0.09077674699048632  0.5152393362153226  0.7532544909463395  1.0000
  H   H81       1.0  0.9799688398319095  0.4938183682435255  0.7371615799003409  1.0000
  H   H82       1.0  0.9713904950691821  0.5389308502465628  0.7909289971003739  1.0000
  H   H83       1.0  0.11526706176132318  0.5553298578765442  0.7957884797851981  1.0000
  H   H84       1.0  0.12403101999874133  0.5087442530160037  0.7427220973792411  1.0000
  C   C127      1.0  0.731111940141521  0.5633531029772614  0.7226187286911504  1.0000
  C   C128      1.0  0.7705902602689328  0.5861178788901308  0.7315926920584496  1.0000
  C   C129      1.0  0.7981563281100144  0.5712569945484285  0.7592965318007839  1.0000
  C   C130      1.0  0.7864673637999692  0.533326601623551  0.7778310269485186  1.0000
  C   C131      1.0  0.7477225684097498  0.5099085162766881  0.7680695584793418  1.0000
  C   C132      1.0  0.7199751567256367  0.5249507576693504  0.7406133697363627  1.0000
  H   H85       1.0  0.7795495034182458  0.615624676102488  0.7174639490773917  1.0000
  H   H86       1.0  0.8283062002451202  0.5891482613577843  0.7663983620716245  1.0000
  H   H87       1.0  0.7387231692951173  0.4803949246361347  0.7822176354724938  1.0000
  H   H88       1.0  0.6897527473868368  0.5070165993400028  0.7337035382066419  1.0000
  C   C133      1.0  0.7587467444139546  0.7892963393617831  0.9056181917781048  1.0000
  C   C134      1.0  0.7733679698392874  0.8076184404146866  0.8737577808049896  1.0000
  C   C135      1.0  0.8082274238209853  0.787893382630485  0.8545746615604254  1.0000
  C   C136      1.0  0.828532473957216  0.7496698603337917  0.8670551144986658  1.0000
  C   C137      1.0  0.8142858560980425  0.7313870856661701  0.8990805557681338  1.0000
  C   C138      1.0  0.779242058448766  0.7511499534398908  0.9183131943087833  1.0000
  H   H89       1.0  0.7575617525141165  0.8368362286118328  0.8636276863847314  1.0000
  H   H90       1.0  0.8191730391782539  0.8021283930270846  0.8298210227703813  1.0000
  H   H91       1.0  0.8301776317997978  0.7020693675522164  0.9089776447863566  1.0000
  H   H92       1.0  0.7680885833924507  0.7370006175856787  0.9430156196616883  1.0000
  C   C139      1.0  0.049639889953827065  0.22359360295300496  0.6469108300722867  1.0000
  C   C140      1.0  0.07415289123875879  0.20424562531496102  0.6742315099089435  1.0000
  C   C141      1.0  0.1136771683730573  0.22401559240352692  0.6866217313750552  1.0000
  C   C142      1.0  0.12968075704009085  0.2624507705144037  0.6710753042276312  1.0000
  C   C143      1.0  0.10645508718348151  0.2806085325362692  0.6424885355115968  1.0000
  C   C144      1.0  0.06627444756893675  0.26131083128727  0.6305172312590043  1.0000
  H   H93       1.0  0.062221162353249815  0.17463918513179602  0.686482381146152  1.0000
  H   H94       1.0  0.1310428820769769  0.21026847177548427  0.7090061044529138  1.0000
  H   H95       1.0  0.11942949215581633  0.3093883082378777  0.6295424043181052  1.0000
  H   H96       1.0  0.047781166323130675  0.2760380844868382  0.6089712869241741  1.0000
  C   C145      1.0  0.10171611661575675  0.04848365724846926  0.7709782716688418  1.0000
  C   C146      1.0  0.13827427668421444  0.028006790610411336  0.7875524320390508  1.0000
  C   C147      1.0  0.14431036417837828  0.03182148805304941  0.8241778042507195  1.0000
  C   C148      1.0  0.11349603110754947  0.05580861251960867  0.84426648955758  1.0000
  C   C149      1.0  0.07727641395267071  0.07662486381286615  0.8275985046879859  1.0000
  C   C150      1.0  0.07131401609983334  0.0729206297512961  0.7910321848958142  1.0000
  H   H97       1.0  0.16158671548981274  0.008635101636035314  0.7721615791782225  1.0000
  H   H98       1.0  0.17211179959007272  0.015401717074787323  0.8369507367728354  1.0000
  H   H99       1.0  0.05384063044038334  0.09571999048228119  0.8431100375502449  1.0000
  H   H100      1.0  0.04325531081002154  0.0890493439240494  0.7784706169231547  1.0000
  C   C151      1.0  0.8451362292346575  0.055978816490479984  0.7715668400885484  1.0000
  C   C152      1.0  0.8205156430821013  0.05314666251137546  0.8031020235948423  1.0000
  C   C153      1.0  0.7914848535150881  0.017639779696096536  0.8091831121523925  1.0000
  C   C154      1.0  0.7865678212835371  0.9852632870919062  0.7834685016375387  1.0000
  C   C155      1.0  0.8108800492601261  0.988304319782496  0.7518141663047335  1.0000
  C   C156      1.0  0.8403309510258001  0.023517010386931325  0.7459174735875386  1.0000
  H   H101      1.0  0.8242173724550022  0.07823729216706969  0.8230079549786501  1.0000
  H   H102      1.0  0.7728408420861999  0.0154362044198193  0.833706843758835  1.0000
  H   H103      1.0  0.8070991802372006  0.9632812030140016  0.731864934070526  1.0000
  H   H104      1.0  0.8591241614439378  0.025624528448936257  0.7214603736953173  1.0000
  C   C157      1.0  0.7298027586290406  0.8554303562601572  0.38772457335143273  1.0000
  C   C158      1.0  0.7176693658875298  0.8135457555470674  0.39926166534414215  1.0000
  C   C159      1.0  0.6976619009441606  0.7837886055848797  0.37592939949713544  1.0000
  C   C160      1.0  0.6889454425290907  0.7960680086092309  0.34106089916033416  1.0000
  C   C161      1.0  0.6999008176290746  0.8383916061048461  0.32968539486651033  1.0000
  C   C162      1.0  0.7207323630388598  0.8679667749038932  0.3529128061094102  1.0000
  H   H105      1.0  0.7244604846733378  0.8037662971346003  0.4262251492421902  1.0000
  H   H106      1.0  0.6888365111937274  0.7513751973602064  0.38506128539211604  1.0000
  H   H107      1.0  0.6930330508124196  0.8479980056514608  0.30270620720241126  1.0000
  H   H108      1.0  0.7298618577341308  0.9002480375105515  0.34382473681887876  1.0000
  C   C163      1.0  0.8725287589877335  0.050649625095377626  0.5086809799110502  1.0000
  C   C164      1.0  0.8932176631221475  0.00964100163039916  0.508410437673054  1.0000
  C   C165      1.0  0.9116265608410832  0.9925156237219049  0.5396755094630117  1.0000
  C   C166      1.0  0.9097061314110382  0.016471989211060745  0.5711723462610319  1.0000
  C   C167      1.0  0.8874816634461806  0.05668676330432177  0.5716516340159664  1.0000
  C   C168      1.0  0.8687030963591806  0.07357094905641515  0.540505309418041  1.0000
  H   H109      1.0  0.8963730037058845  0.9917451776790999  0.4839917780020094  1.0000
  H   H110      1.0  0.9285814154434044  0.9612512285145287  0.5392434568724865  1.0000
  H   H111      1.0  0.8849146838825126  0.07488296153634028  0.5959306903217839  1.0000
  H   H112      1.0  0.8518257166339382  0.10486887118141276  0.5409279864711264  1.0000
  C   C169      1.0  0.11534865943688088  0.3198626080524233  0.2123325014544316  1.0000
  C   C170      1.0  0.07203189337257676  0.3084098497404891  0.22375558177239127  1.0000
  C   C171      1.0  0.03623425477317199  0.3380580616858439  0.2197868562168912  1.0000
  C   C172      1.0  0.04363696264640815  0.37913199371228545  0.20437666650444342  1.0000
  C   C173      1.0  0.08672664477924519  0.3898493539840013  0.1919586353052271  1.0000
  C   C174      1.0  0.12250273994471894  0.36035671644543477  0.1960167330392165  1.0000
  H   H113      1.0  0.06631720009828546  0.27732454862788103  0.23658231261785012  1.0000
  H   H114      1.0  0.0029320755337625126  0.3295144356431861  0.22935255288884313  1.0000
  H   H115      1.0  0.09269526605714118  0.4209315275511429  0.1795494458928446  1.0000
  H   H116      1.0  0.15590981766558842  0.369211974978787  0.18691721496902755  1.0000
  C   C175      1.0  0.13115006424544595  0.10655662475587413  0.10728064080467122  1.0000
  C   C176      1.0  0.6358268352482205  0.08497967762947886  0.022846898563830598  1.0000
  C   C177      1.0  0.6757722536117932  0.07573465103779786  0.004307740880248323  1.0000
  C   C178      1.0  0.6743795320497894  0.049690887370133385  0.9739879670792119  1.0000
  C   C179      1.0  0.1724439517986116  0.07384885193415555  0.05861882432157728  1.0000
  C   C180      1.0  0.13820016372248944  0.07158337092795794  0.08418525417142009  1.0000
  H   H117      1.0  0.6371348173969633  0.10407327120232474  0.046783890654693155  1.0000
  H   H118      1.0  0.7079105173053954  0.08720801814077128  0.01424045471156443  1.0000
  H   H119      1.0  0.17863651040053075  0.04616359274364834  0.041721861242707714  1.0000
  H   H120      1.0  0.11792431548974469  0.04228871792076205  0.08664252825545304  1.0000
  C   C181      1.0  0.03239392807511976  0.08150221679858628  0.32012705611225256  1.0000
  C   C182      1.0  0.0036162503287995307  0.07555073766578844  0.34907694861653865  1.0000
  C   C183      1.0  0.9728354953851941  0.04074043986886644  0.3496873005047508  1.0000
  C   C184      1.0  0.9708983353941261  0.01146961513707967  0.321445178026786  1.0000
  C   C185      1.0  0.0004047049084023868  0.016733291521891624  0.2927833854384946  1.0000
  C   C186      1.0  0.030975265505191585  0.051935392685969584  0.29199902992339005  1.0000
  H   H121      1.0  0.004762000933822508  0.09820789607149974  0.37096833373928284  1.0000
  H   H122      1.0  0.9508326678683884  0.036414248343840994  0.3722183403615121  1.0000
  H   H123      1.0  0.9990636351247784  0.994103502263939  0.2708800176435048  1.0000
  H   H124      1.0  0.053093834663888506  0.056300801490660975  0.2695489398851334  1.0000
  C   C187      1.0  0.6899177896447017  0.03532726357398964  0.21585050858883514  1.0000
  C   C188      1.0  0.675204728841476  0.0747644296644151  0.23038101801951777  1.0000
  C   C189      1.0  0.6904667581680992  0.08789325593119736  0.263752903116362  1.0000
  C   C190      1.0  0.7206600701952952  0.0617720180677126  0.2826970978661474  1.0000
  C   C191      1.0  0.7362616126666436  0.022814243859434313  0.26784370825326814  1.0000
  C   C192      1.0  0.7209325234029946  0.00961786600388348  0.23444133739381295  1.0000
  H   H125      1.0  0.6524300752634379  0.09548304075389014  0.21575722979188938  1.0000
  H   H126      1.0  0.6787618988819658  0.11840018328897466  0.27485713677984086  1.0000
  H   H127      1.0  0.7599526296136642  0.0027391637343510133  0.28192320986268643  1.0000
  H   H128      1.0  0.7326102060940272  0.9792066814584791  0.22317837115059574  1.0000
  N   N1        1.0  0.2133346541464453  0.1352445443223962  0.737750441177332  1.0000
  C   C193      1.0  0.21799284300257937  0.1645494086787873  0.7068912402140324  1.0000
  C   C194      1.0  0.2505442109732699  0.14380176970045389  0.7628008073642606  1.0000
  C   C195      1.0  0.21527619545455706  0.08934512898146574  0.7258300983777523  1.0000
  C   C196      1.0  0.16961398811343498  0.14313604895759102  0.755471326796312  1.0000
  H   H129      1.0  0.19070703860843255  0.158756101822358  0.6872528027918973  1.0000
  H   H130      1.0  0.25085836603442585  0.15948032878343787  0.6931919298194948  1.0000
  H   H131      1.0  0.21639606643626594  0.19960236472080872  0.7147352238799703  1.0000
  H   H132      1.0  0.2482664565386322  0.1221380936090477  0.78639212630448  1.0000
  H   H133      1.0  0.28406503881414213  0.13802211057912706  0.7502906058142241  1.0000
  H   H134      1.0  0.2501030355036806  0.17818405003433058  0.7722840700706433  1.0000
  H   H135      1.0  0.2116025848444984  0.066407879950936  0.7484097375094074  1.0000
  H   H136      1.0  0.2479487952633304  0.08197747971859859  0.7125499167498014  1.0000
  H   H137      1.0  0.18754989794715746  0.08169041033461122  0.7069571542144346  1.0000
  H   H138      1.0  0.1656926901557889  0.12219606161642105  0.7793709199974553  1.0000
  H   H139      1.0  0.1406976898104133  0.13549254651287512  0.7376949615437395  1.0000
  H   H140      1.0  0.1663606988531816  0.1777273913252675  0.7640637855724687  1.0000
  N   N2        1.0  0.13979715907461343  0.5913933095070416  0.48496117217308915  1.0000
  C   C197      1.0  0.16084991312657815  0.551359436404733  0.49919358866884384  1.0000
  C   C198      1.0  0.09566533884797623  0.5983493182089299  0.5022541488677861  1.0000
  C   C199      1.0  0.13328113804214303  0.586495603581864  0.44649788566426624  1.0000
  C   C200      1.0  0.16940996245615447  0.6293643930326323  0.4918973625616944  1.0000
  H   H141      1.0  0.19486112965769697  0.5458409635482453  0.48749564485209873  1.0000
  H   H142      1.0  0.14011676690911612  0.5218035366921403  0.4936946101135088  1.0000
  H   H143      1.0  0.16515894468007897  0.5533766704394728  0.5282853233125131  1.0000
  H   H144      1.0  0.0787458831746688  0.6281478247020367  0.4918594139981927  1.0000
  H   H145      1.0  0.07258578705718643  0.570132029216331  0.497888197007034  1.0000
  H   H146      1.0  0.09960272184787011  0.6025075542689067  0.5313142874856809  1.0000
  H   H147      1.0  0.1659137831165871  0.5801320278829855  0.43283537509578884  1.0000
  H   H148      1.0  0.11890890007554944  0.6166549329661956  0.43449434253673014  1.0000
  H   H149      1.0  0.11024995952988492  0.5588807210746555  0.4401735180213592  1.0000
  H   H150      1.0  0.15468562110167583  0.6602230625887378  0.4815126914023929  1.0000
  H   H151      1.0  0.20287142471861874  0.6255018124518957  0.479053052017335  1.0000
  H   H152      1.0  0.17586342014318457  0.6337157917345603  0.520648863011406  1.0000
  N   N3        1.0  0.8767337166097032  0.09211996804992895  0.2591869907609482  1.0000
  C   C201      1.0  0.8349918862948554  0.11376155107430375  0.27143228351731263  1.0000
  C   C202      1.0  0.9154537237547411  0.10765227167038982  0.2803823027334137  1.0000
  C   C203      1.0  0.8845554477885772  0.10270468277886868  0.22157414955828664  1.0000
  C   C204      1.0  0.8719415049736495  0.044307289337182754  0.2633206024292265  1.0000
  H   H153      1.0  0.8049074487953487  0.10235326282654489  0.2563845620984787  1.0000
  H   H154      1.0  0.8370699787894744  0.1498638899912237  0.268414119278774  1.0000
  H   H155      1.0  0.8282774656759974  0.10679479153017102  0.299822431710975  1.0000
  H   H156      1.0  0.911327254379083  0.09924777563158993  0.30881168159580535  1.0000
  H   H157      1.0  0.9476325693842861  0.09264832011689683  0.2713521332387333  1.0000
  H   H158      1.0  0.9196529514564219  0.1437151497898035  0.2784877768692854  1.0000
  H   H159      1.0  0.8558427579994604  0.09168486212861438  0.20481328376960148  1.0000
  H   H160      1.0  0.915714979024654  0.08665006961574395  0.2114490417373163  1.0000
  H   H161      1.0  0.8886818221848877  0.1385277796168869  0.217495917962264  1.0000
  H   H162      1.0  0.9031679652997042  0.026855410914278233  0.2550314562677071  1.0000
  H   H163      1.0  0.8432910800601349  0.031352741237213655  0.2474460654407324  1.0000
  H   H164      1.0  0.865529124701881  0.03519206180925383  0.29130742093983314  1.0000
  N   N4        1.0  0.24662962345284056  0.28741768357597147  0.13392237636444745  1.0000
  C   C205      1.0  0.19793874081267268  0.2787717712560766  0.12881184456786005  1.0000
  C   C206      1.0  0.26073521610532385  0.3245517038096498  0.11145269425908963  1.0000
  C   C207      1.0  0.27282698534458144  0.2481806399866901  0.12418972905033103  1.0000
  C   C208      1.0  0.25506029693763715  0.2981623106874396  0.17136822045855113  1.0000
  H   H165      1.0  0.18605230551427826  0.25148574835171106  0.14592895042033274  1.0000
  H   H166      1.0  0.19019380470947153  0.26992239601074985  0.10097531628700038  1.0000
  H   H167      1.0  0.17720279417553852  0.30777021333878124  0.135923660872225  1.0000
  H   H168      1.0  0.2974644960462273  0.3316081869630808  0.11451772483580454  1.0000
  H   H169      1.0  0.2545590840970323  0.3177872227090681  0.08301304046877696  1.0000
  H   H170      1.0  0.24218562248245734  0.35492101785943486  0.11846723059759315  1.0000
  H   H171      1.0  0.30969262648150103  0.25361064965735647  0.12823783290843271  1.0000
  H   H172      1.0  0.26774565487473734  0.23939725358096628  0.09595606659939672  1.0000
  H   H173      1.0  0.26272440689787674  0.21948204467318397  0.14047260714348783  1.0000
  H   H174      1.0  0.2465149746650695  0.2702409665752989  0.18898618031542738  1.0000
  H   H175      1.0  0.23475122490236786  0.32674430054137116  0.180044247925902  1.0000
  H   H176      1.0  0.29095715743927403  0.3063900730795939  0.1762218783700449  1.0000
  N   N5        1.0  0.196232908386721  0.5804132419907058  0.11451493979873413  1.0000
  C   C209      1.0  0.2186691562527496  0.5559128828470071  0.14321406180277774  1.0000
  C   C210      1.0  0.15777805879092655  0.605181127505031  0.12910466959324576  1.0000
  C   C211      1.0  0.17962303010116398  0.5494413601209137  0.087545644276599  1.0000
  C   C212      1.0  0.22870137791941786  0.6111397011164769  0.09822529884486948  1.0000
  H   H177      1.0  0.24847856502118681  0.537549350079759  0.13332353881207895  1.0000
  H   H178      1.0  0.1953010908283369  0.5317845156922733  0.1555791175379086  1.0000
  H   H179      1.0  0.23040424655295694  0.5780374629601237  0.16462853395212088  1.0000
  H   H180      1.0  0.13291533877565034  0.582944228949427  0.14168489030191603  1.0000
  H   H181      1.0  0.1688355884684012  0.6286892207154803  0.14978139933425502  1.0000
  H   H182      1.0  0.1395497966308914  0.6235947776095093  0.10815364618142927  1.0000
  H   H183      1.0  0.16237633553618203  0.5667556006921403  0.06551426364758783  1.0000
  H   H184      1.0  0.15471398889976218  0.5260494706454274  0.09895752490078695  1.0000
  H   H185      1.0  0.2077499826462987  0.5299400060723655  0.07611970405416676  1.0000
  H   H186      1.0  0.2129816944343624  0.6298818810203791  0.07625767000170472  1.0000
  H   H187      1.0  0.2582228673000851  0.5936201954289793  0.08705728698961637  1.0000
  H   H188      1.0  0.24181378815262847  0.635002054360682  0.11784417373403762  1.0000
  N   N6        1.0  0.4474393217427598  0.14677833544940624  0.2590276690292447  1.0000
  C   C213      1.0  0.4864236801323964  0.1757886406612231  0.25210475839129226  1.0000
  C   C214      1.0  0.4154252991745097  0.1689803205833114  0.2829247656686062  1.0000
  C   C215      1.0  0.4632379003710021  0.10587172493083509  0.27565408165285327  1.0000
  C   C216      1.0  0.42450128466909787  0.1364314475647414  0.22541024374947344  1.0000
  H   H189      1.0  0.5108529958951633  0.1605692252084159  0.2334719824386369  1.0000
  H   H190      1.0  0.50507708547169  0.18364417487157236  0.27675921858043956  1.0000
  H   H191      1.0  0.47564704510283956  0.207271801844183  0.24005442532014482  1.0000
  H   H192      1.0  0.3849538765104819  0.14858126896221416  0.28756111388833183  1.0000
  H   H193      1.0  0.43086229702051654  0.17574704342862685  0.30914734263661614  1.0000
  H   H194      1.0  0.40375970128623023  0.20060452930786776  0.2716404905374034  1.0000
  H   H195      1.0  0.4866781783036637  0.08777830709728264  0.2579291598340124  1.0000
  H   H196      1.0  0.4344700150723596  0.08366074189365642  0.2817575975838003  1.0000
  H   H197      1.0  0.4812431358064514  0.11226424010134585  0.3008843965973261  1.0000
  H   H198      1.0  0.44817416720964953  0.12108627182619615  0.20625983753375093  1.0000
  H   H199      1.0  0.4106237732407133  0.16632956771966573  0.2127428731398129  1.0000
  H   H200      1.0  0.3960475223534361  0.11306330524480365  0.22948014585701534  1.0000
  N   N7        1.0  0.08805790826021975  0.5209377149377565  0.9209318690764768  1.0000
  C   C217      1.0  0.09959797113747948  0.5679172503539279  0.9221988718869402  1.0000
  C   C218      1.0  0.03845011300115253  0.5156248936842723  0.919758679508825  1.0000
  C   C219      1.0  0.105937743342287  0.4990593323505848  0.9527810726373123  1.0000
  C   C220      1.0  0.10834607772988014  0.5012021459430133  0.8890349773936477  1.0000
  H   H201      1.0  0.13686036098723187  0.5729993235107778  0.9226259287976906  1.0000
  H   H202      1.0  0.08495077940055795  0.583870975916737  0.9459696310528527  1.0000
  H   H203      1.0  0.0863708063534423  0.5854810134259666  0.8986685962353602  1.0000
  H   H204      1.0  0.028469907782103343  0.4806179639248032  0.9183093912105885  1.0000
  H   H205      1.0  0.021954196277859106  0.5297739739472779  0.9435180425733609  1.0000
  H   H206      1.0  0.023758308325815936  0.5321910761352885  0.8962943020936618  1.0000
  H   H207      1.0  0.09791027648733253  0.4635198213480971  0.9527024117369876  1.0000
  H   H208      1.0  0.09121173624442025  0.513213296731054  0.977327438266044  1.0000
  H   H209      1.0  0.14332914967766008  0.5024962199455877  0.9544596501284891  1.0000
  H   H210      1.0  0.0960098204668336  0.5173958533876922  0.8645439174368377  1.0000
  H   H211      1.0  0.09998814966059055  0.4658756800427205  0.8868821712261767  1.0000
  H   H212      1.0  0.1458094917034225  0.5043437830415803  0.8891504510771986  1.0000
  N   N8        1.0  0.6333933380930737  0.01018094549994486  0.37452459965771495  1.0000
  C   C221      1.0  0.5991860167648719  0.9857972803020301  0.39495907792215695  1.0000
  C   C222      1.0  0.6125892034753713  0.028161233870975355  0.3421530980341979  1.0000
  C   C223      1.0  0.6705024254032252  0.9803684443566496  0.3647087196305958  1.0000
  C   C224      1.0  0.6510155068582945  0.046341581198079414  0.3964208379413637  1.0000
  H   H213      1.0  0.6134756459231987  0.9726754280028136  0.4199941477420493  1.0000
  H   H214      1.0  0.5853128406555558  0.9579518034337334  0.3795822187214955  1.0000
  H   H215      1.0  0.5705686241927291  0.007355044159043312  0.4022834281862727  1.0000
  H   H216      1.0  0.5987570992408177  0.0017820545341518115  0.32503051381953907  1.0000
  H   H217      1.0  0.5841836641609074  0.050518341819329356  0.34855829959503637  1.0000
  H   H218      1.0  0.6376075231094813  0.04695741736257953  0.32620602844138835  1.0000
  H   H219      1.0  0.6972854550378317  0.9978947092468594  0.34969093689334546  1.0000
  H   H220      1.0  0.6581899557982162  0.953229674890814  0.3477106971145622  1.0000
  H   H221      1.0  0.6864362089059881  0.9654463876676991  0.3884629672936892  1.0000
  H   H222      1.0  0.6769804107195144  0.06573663198838131  0.3820359207658334  1.0000
  H   H223      1.0  0.6667028863273388  0.03398459283986833  0.4211793961867455  1.0000
  H   H224      1.0  0.6235949434576489  0.06916353562747146  0.40437896153730707  1.0000
  N   N9        1.0  0.3890098745815813  0.9262138064068907  0.8835449953221333  1.0000
  C   C225      1.0  0.4351201311237667  0.9187532830987956  0.8971546682137244  1.0000
  C   C226      1.0  0.3606238187117292  0.9452820969045674  0.9116925313710946  1.0000
  C   C227      1.0  0.36911801069077477  0.884229871485155  0.8720862038893501  1.0000
  C   C228      1.0  0.39106012193855477  0.9566137749829399  0.8532093827634244  1.0000
  H   H225      1.0  0.45762466775937827  0.9047455091265388  0.8764829088460994  1.0000
  H   H226      1.0  0.4349549785715776  0.8957889639692072  0.9199580400145709  1.0000
  H   H227      1.0  0.45117048539585936  0.9497721772875866  0.9060313901092816  1.0000
  H   H228      1.0  0.3254785489815626  0.9507091845409096  0.9023925622563466  1.0000
  H   H229      1.0  0.3583038914910437  0.9234003451404235  0.935169757057603  1.0000
  H   H230      1.0  0.37397174407018685  0.9774288675305346  0.9206131200459348  1.0000
  H   H231      1.0  0.3349519641126155  0.8890262954947555  0.8605408742379472  1.0000
  H   H232      1.0  0.36524604909794656  0.861071842418888  0.8946249506245412  1.0000
  H   H233      1.0  0.39029390209679504  0.8679680117180187  0.8517135972359439  1.0000
  H   H234      1.0  0.3567087761645258  0.9643420502068484  0.8430591206392372  1.0000
  H   H235      1.0  0.4110203953804299  0.9427395652173487  0.8310159775260472  1.0000
  H   H236      1.0  0.4071166980764356  0.988193664984254  0.8606649526663577  1.0000
  N   N10       1.0  0.1424254610115765  0.449134677460609  0.2808404263796496  1.0000
  C   C229      1.0  0.15849007115163372  0.4598161068249444  0.24489017712299446  1.0000
  C   C230      1.0  0.1779170030338486  0.4247843880881822  0.29988728201272047  1.0000
  C   C231      1.0  0.10119309089496387  0.421991893029873  0.2786469119267171  1.0000
  C   C232      1.0  0.13219166804433002  0.4900312854774999  0.29988503998567945  1.0000
  H   H237      1.0  0.1316893997457389  0.4758658872880706  0.22899062497058  1.0000
  H   H238      1.0  0.16966406503421338  0.4301336985692334  0.23049034444357352  1.0000
  H   H239      1.0  0.18773386814266946  0.48271496014087406  0.24561606210229026  1.0000
  H   H240      1.0  0.16691523935704144  0.41569016107422635  0.3269904378560626  1.0000
  H   H241      1.0  0.18711458033490458  0.3941731819790473  0.28570694478805164  1.0000
  H   H242      1.0  0.2093628241143648  0.44447395472197637  0.3022645879055237  1.0000
  H   H243      1.0  0.07426633068075428  0.4384095202570059  0.2629701480705266  1.0000
  H   H244      1.0  0.08705179506713545  0.41478732036281507  0.3052239274580383  1.0000
  H   H245      1.0  0.10825739206035379  0.39005491057039754  0.26583857405033545  1.0000
  H   H246      1.0  0.16286945579539247  0.5108425792799288  0.3025339072316961  1.0000
  H   H247      1.0  0.11918716369476967  0.483484906408745  0.3269147053396698  1.0000
  H   H248      1.0  0.10643171336066781  0.509679094444024  0.28555562187416017  1.0000
  N   N11       1.0  0.16755090179030563  0.6805244982710726  0.8278405012757374  1.0000
  C   C233      1.0  0.2085972821374813  0.6642686265633799  0.8100149926075768  1.0000
  C   C234      1.0  0.1763739402578477  0.6851560287112196  0.8660347314643865  1.0000
  C   C235      1.0  0.13021949063881544  0.6491384677002656  0.8224783797201751  1.0000
  C   C236      1.0  0.155179742283168  0.7235208339911618  0.8129791732810981  1.0000
  H   H249      1.0  0.20317882246570096  0.6602401436080704  0.7811459521321986  1.0000
  H   H250      1.0  0.21895128809982078  0.6318624524022997  0.8206378937690122  1.0000
  H   H251      1.0  0.23749108963556487  0.687211448261584  0.8136549114601777  1.0000
  H   H252      1.0  0.14609143547210768  0.6972563401406067  0.8803649498098318  1.0000
  H   H253      1.0  0.18612038902474048  0.6533318097190673  0.8780246009689573  1.0000
  H   H254      1.0  0.2043205515525075  0.7087447095997091  0.8710728316109105  1.0000
  H   H255      1.0  0.0984492107611965  0.6604421486452179  0.8352461350825634  1.0000
  H   H256      1.0  0.1384458582507293  0.6165454071394925  0.8339095578779596  1.0000
  H   H257      1.0  0.12275989790857667  0.6441575590462577  0.7939658387475657  1.0000
  H   H258      1.0  0.12433828598664132  0.7368013317760923  0.8258709757208318  1.0000
  H   H259      1.0  0.1483515838650784  0.7213053611486833  0.7841480700740963  1.0000
  H   H260      1.0  0.18286638884187068  0.7478349348907466  0.8168509642483018  1.0000
  N   N12       1.0  0.18597456338461502  0.06569307248388512  0.3577038590584062  1.0000
  C   C237      1.0  0.22910630084030856  0.046249014639063946  0.3693643119313142  1.0000
  C   C238      1.0  0.187098629065424  0.11341324515465301  0.3636273265247434  1.0000
  C   C239      1.0  0.14819268535526023  0.04636176840215378  0.3779590238729802  1.0000
  C   C240      1.0  0.1793477915879049  0.05681522970693731  0.31972876464347016  1.0000
  H   H261      1.0  0.22914741389226617  0.01013684185037067  0.3660101164352795  1.0000
  H   H262      1.0  0.23615417003484118  0.05345895266875389  0.39763076426572175  1.0000
  H   H263      1.0  0.25797405955720687  0.05932086688592175  0.353788750700993  1.0000
  H   H264      1.0  0.15499169145122282  0.12913216625593615  0.35521961066572433  1.0000
  H   H265      1.0  0.19250647980489394  0.12140852596984786  0.39194832242534006  1.0000
  H   H266      1.0  0.21470396255027707  0.12920252739354798  0.348349937000356  1.0000
  H   H267      1.0  0.11521821850186377  0.06072731087485539  0.36978642120109056  1.0000
  H   H268      1.0  0.1521528692417831  0.0521599935362973  0.40677797896012724  1.0000
  H   H269      1.0  0.14585591342695772  0.010457884293300301  0.37369685481536286  1.0000
  H   H270      1.0  0.14644230536178204  0.06988789297541054  0.3104473537268237  1.0000
  H   H271      1.0  0.17954039590660628  0.02117847560355446  0.3140222602581924  1.0000
  H   H272      1.0  0.20633165764222808  0.07216767646474853  0.3033761768002386  1.0000
  N   N13       1.0  0.4757179261602138  0.10704392769177952  0.9261815873382098  1.0000
  C   C241      1.0  0.4671437119170513  0.09813827982900679  0.9639644526567944  1.0000
  C   C242      1.0  0.5217496321050522  0.12496727258036917  0.9216355732473197  1.0000
  C   C243      1.0  0.4423818838638553  0.1390241552670457  0.9130377311623259  1.0000
  C   C244      1.0  0.4715203043445753  0.0659430533983356  0.9060298512930047  1.0000
  H   H273      1.0  0.43187749331862335  0.08678924834989228  0.9685321648243562  1.0000
  H   H274      1.0  0.47276720972000436  0.12767742597890433  0.980526813622335  1.0000
  H   H275      1.0  0.48994927417294537  0.0722692068031099  0.9741479750789227  1.0000
  H   H276      1.0  0.5287304448960329  0.13305920781573605  0.8934746670149174  1.0000
  H   H277      1.0  0.5266732823135435  0.1552849123655691  0.9373632770271173  1.0000
  H   H278      1.0  0.5478974901484545  0.10124719683305342  0.9303492373396074  1.0000
  H   H279      1.0  0.4449892076764832  0.1705948181123877  0.9274095931032281  1.0000
  H   H280      1.0  0.4072147727183717  0.12677669960679347  0.9164278155667362  1.0000
  H   H281      1.0  0.4472143653182741  0.14577496866249226  0.8843621290714603  1.0000
  H   H282      1.0  0.4753309495850047  0.07181781637808787  0.8772045545257524  1.0000
  H   H283      1.0  0.4379845124390413  0.05048169207703435  0.9102216945900633  1.0000
  H   H284      1.0  0.4976718332506684  0.04179941005683908  0.91402340378294  1.0000
  N   N14       1.0  0.01262651465519049  0.34088245320251337  0.7176915183211315  1.0000
  C   C245      1.0  0.9848325449209422  0.36981133875249644  0.7401077132133467  1.0000
  C   C246      1.0  0.060611790403975574  0.34556036278062535  0.7276585045831719  1.0000
  C   C247      1.0  0.006827510473934151  0.35330415129203435  0.6802448885316956  1.0000
  C   C248      1.0  0.9983449204064008  0.29497411073966995  0.7226839667588514  1.0000
  H   H285      1.0  0.994909123256506  0.4047173938321333  0.7368029775233286  1.0000
  H   H286      1.0  0.9885349850678177  0.3616195084272716  0.7685896955250029  1.0000
  H   H287      1.0  0.948378418250751  0.3672908339794464  0.7333190409630027  1.0000
  H   H288      1.0  0.08284327764676203  0.325099241959281  0.7107738113455772  1.0000
  H   H289      1.0  0.072173936315586  0.37994243554952073  0.7247320978552956  1.0000
  H   H290      1.0  0.06653499819072639  0.33579943408708196  0.7555606525946315  1.0000
  H   H291      1.0  0.027984062057525794  0.33279281170680813  0.6626523653888393  1.0000
  H   H292      1.0  0.016901660282934827  0.38786611767248347  0.6755462347844527  1.0000
  H   H293      1.0  0.9711380606980602  0.3496210499682743  0.6716466659104618  1.0000
  H   H294      1.0  0.0020316077238522467  0.284450538815533  0.7506665487690392  1.0000
  H   H295      1.0  0.0189693123127872  0.27242148267232125  0.7062664904784202  1.0000
  H   H296      1.0  0.9624358039047198  0.2900082201237219  0.7150006641372038  1.0000
  N   N15       1.0  0.4284271708186306  0.9581240836351911  0.5734038070443943  1.0000
  C   C249      1.0  0.44215187603265366  0.9722357127741651  0.609157568324834  1.0000
  C   C250      1.0  0.4689494932384731  0.9474275055726867  0.5522982055181466  1.0000
  C   C251      1.0  0.4032866056820209  0.9937387075705896  0.5558883525407042  1.0000
  C   C252      1.0  0.39921997298485357  0.9190423162923227  0.5762363181561371  1.0000
  H   H297      1.0  0.41238697672459773  0.979990138330397  0.6259910396340345  1.0000
  H   H298      1.0  0.46353523856971096  0.0020583204204860372  0.6081525627095962  1.0000
  H   H299      1.0  0.4621525291800553  0.9466045537633517  0.6228918181276802  1.0000
  H   H300      1.0  0.459649356777943  0.9368300263755671  0.525110064699475  1.0000
  H   H301      1.0  0.491854232123753  0.9760952334997768  0.5496426423637119  1.0000
  H   H302      1.0  0.4887388009621707  0.9205961498184976  0.564610030765261  1.0000
  H   H303      1.0  0.3918239861653788  0.9838691308232621  0.52904267435801  1.0000
  H   H304      1.0  0.4245813379639287  0.023480096221100144  0.5527106271446398  1.0000
  H   H305      1.0  0.3727636536105782  0.0030850303987912664  0.5712487789591797  1.0000
  H   H306      1.0  0.36808423126670586  0.9260083800819119  0.5916858430490533  1.0000
  H   H307      1.0  0.4170851225924673  0.8915153992943394  0.5893486803956632  1.0000
  H   H308      1.0  0.38834348459566964  0.9073395652702078  0.5497338279943454  1.0000
  N   N16       1.0  0.9587217124350638  0.9943851239806014  0.8237377032045524  1.0000
  C   C253      1.0  0.9228472543519708  0.9744938475734692  0.8018741956849824  1.0000
  C   C254      1.0  0.003439176192652438  0.9806858433968607  0.8104025855875615  1.0000
  C   C255      1.0  0.9533575597667935  0.9799965806744957  0.8607808921307906  1.0000
  C   C256      1.0  0.9551988581405848  0.04248157397167641  0.8219566454767213  1.0000
  H   H309      1.0  0.8886473533759869  0.9834114724995707  0.8117013004842356  1.0000
  H   H310      1.0  0.9248978019387915  0.9382079323444371  0.8019072696823977  1.0000
  H   H311      1.0  0.9250219856698112  0.9857054755249623  0.7739613636529413  1.0000
  H   H312      1.0  0.031249504245010495  0.9944195232935105  0.8267953280754403  1.0000
  H   H313      1.0  0.0070289389928352985  0.944528365631696  0.8106851322254712  1.0000
  H   H314      1.0  0.009101106387104041  0.9919883868179514  0.7827541581744756  1.0000
  H   H315      1.0  0.9554254250514179  0.9438038273895728  0.8631144799926381  1.0000
  H   H316      1.0  0.9200835847161768  0.9902350964231876  0.8717047054789838  1.0000
  H   H317      1.0  0.9800988134005829  0.9942450165497185  0.8779925818294535  1.0000
  H   H318      1.0  0.9805239578243578  0.05861889959138722  0.8392453466009464  1.0000
  H   H319      1.0  0.9211756747888205  0.053967126026778  0.8303328204491862  1.0000
  H   H320      1.0  0.9607749900127036  0.05468916754547992  0.7945897271962805  1.0000
  N   N17       1.0  0.5049382355014627  0.5673532256758496  0.43630984115699273  1.0000
  C   C257      1.0  0.4851652574340041  0.5926124974927081  0.40687545880499604  1.0000
  C   C258      1.0  0.5413953973371514  0.5392042518378981  0.42258789690653464  1.0000
  C   C259      1.0  0.4696985751923901  0.5397461778894184  0.4527573699593445  1.0000
  C   C260      1.0  0.523536841177672  0.5976982680799963  0.4629480868917376  1.0000
  H   H321      1.0  0.457106294432349  0.6138455329350492  0.41601033028572154  1.0000
  H   H322      1.0  0.47119009333795414  0.5705860823880767  0.3861642849152676  1.0000
  H   H323      1.0  0.5108872649982769  0.6138136004955999  0.393927445549104  1.0000
  H   H324      1.0  0.5288659072317698  0.517382614036543  0.4012012084646146  1.0000
  H   H325      1.0  0.5694899665130742  0.5589814274687005  0.4112434536851497  1.0000
  H   H326      1.0  0.5556146574201938  0.5181234843858795  0.4437022308209075  1.0000
  H   H327      1.0  0.4830384111647464  0.5215079001809619  0.47595526366058877  1.0000
  H   H328      1.0  0.4563601499605929  0.5152228151815946  0.4337192595018713  1.0000
  H   H329      1.0  0.4404607370121912  0.5595983637333034  0.4618175154078585  1.0000
  H   H330      1.0  0.4970100509541965  0.619921796667315  0.4733798719513511  1.0000
  H   H331      1.0  0.5510742057680136  0.6183069451338542  0.4516723590273775  1.0000
  H   H332      1.0  0.5380095333143415  0.5796681417277639  0.4858145015595619  1.0000
  N   N18       1.0  0.6756326223207575  0.9659295600580456  0.07156849253606319  1.0000
  C   C261      1.0  0.6369219889090684  0.9698367679643756  0.047190175943192504  1.0000
  C   C262      1.0  0.6617776538473541  0.9407632139360743  0.10311192650996252  1.0000
  C   C263      1.0  0.6907833639252674  0.009897268698670691  0.08255130662113537  1.0000
  C   C264      1.0  0.7130650192547672  0.9433185455299982  0.053360905676703096  1.0000
  H   H333      1.0  0.6088684005074182  0.9890987640798544  0.05902705580115685  1.0000
  H   H334      1.0  0.6232744173917453  0.9372951325204594  0.039633141101515626  1.0000
  H   H335      1.0  0.646991993928009  0.9864914663493107  0.022348153071493737  1.0000
  H   H336      1.0  0.633521439150039  0.9571699547210409  0.11724280734774993  1.0000
  H   H337      1.0  0.6504089239167491  0.9072636823496393  0.09602961253152004  1.0000
  H   H338      1.0  0.6899452489988985  0.9378387996578266  0.1224156386324062  1.0000
  H   H339      1.0  0.7178537643888668  0.008124073505594742  0.10286042715934217  1.0000
  H   H340      1.0  0.662617375867735  0.029090519982743146  0.0942471596911919  1.0000
  H   H341      1.0  0.7044559878559228  0.028790738799902238  0.0598968305728198  1.0000
  H   H342      1.0  0.7240838582264811  0.9616979594876645  0.02933299081377028  1.0000
  H   H343      1.0  0.7028429577330547  0.9100826608471468  0.0444883446238957  1.0000
  H   H344      1.0  0.7430064161539602  0.9399325854450361  0.07084605808120041  1.0000
  N   N19       1.0  0.658607678986238  0.4795347144197242  0.257815159699549  1.0000
  C   C265      1.0  0.6246423110006584  0.49164500027599944  0.23098206657366413  1.0000
  C   C266      1.0  0.7040347296138915  0.4926602419353984  0.24545456490084522  1.0000
  C   C267      1.0  0.6574167284447725  0.43178222778812714  0.2635468389157591  1.0000
  C   C268      1.0  0.648343153035413  0.5020968956186089  0.29134824936275044  1.0000
  H   H345      1.0  0.5898238429336855  0.4830286934272464  0.2397752466690854  1.0000
  H   H346      1.0  0.6307182158263428  0.47464410464292905  0.2054596616151713  1.0000
  H   H347      1.0  0.6251901020540137  0.5274008828333249  0.22560157443692186  1.0000
  H   H348      1.0  0.7306444839454568  0.48308687536642175  0.26473624566875326  1.0000
  H   H349      1.0  0.7126163900184294  0.47730759932683126  0.21971038274636837  1.0000
  H   H350      1.0  0.7067009414153275  0.5287666564382886  0.24218870950213758  1.0000
  H   H351      1.0  0.6824171531058714  0.42163092988865  0.28389573861497197  1.0000
  H   H352      1.0  0.6653771674771716  0.41370575514367025  0.23881837487069363  1.0000
  H   H353      1.0  0.6234620391294158  0.42078879993323803  0.2726300578907271  1.0000
  H   H354      1.0  0.6742324229794282  0.49498075886011395  0.31187754863820333  1.0000
  H   H355      1.0  0.6146987650605115  0.49245100943771875  0.30199327236686035  1.0000
  H   H356      1.0  0.6478108873233016  0.5380936021863255  0.2877069601730941  1.0000
  N   N20       1.0  0.7291221746515275  0.6648943359317915  0.818495464053644  1.0000
  C   C269      1.0  0.7739301520751991  0.6741216854032204  0.8029329570382057  1.0000
  C   C270      1.0  0.7269418933216153  0.683727829617756  0.8543443030819157  1.0000
  C   C271      1.0  0.7218929409184222  0.6171450503142724  0.8205537181121418  1.0000
  C   C272      1.0  0.6937573688179871  0.6847420126799015  0.7961707242155945  1.0000
  H   H357      1.0  0.7764744470940813  0.6617349794411473  0.7754649477559195  1.0000
  H   H358      1.0  0.8014826493669922  0.6586179776018589  0.8184457331242865  1.0000
  H   H359      1.0  0.7812382765051088  0.7098371596244379  0.802244649537808  1.0000
  H   H360      1.0  0.693621597214159  0.6777696738999028  0.867017847918344  1.0000
  H   H361      1.0  0.7533250467129863  0.6694584034485269  0.8717787821131343  1.0000
  H   H362      1.0  0.7323715950869676  0.7197369642392984  0.8537710535112162  1.0000
  H   H363      1.0  0.689767481396176  0.6089326240798947  0.8342597750838648  1.0000
  H   H364      1.0  0.7498381297006409  0.6005477335167829  0.8349733812835529  1.0000
  H   H365      1.0  0.720071402144589  0.6023037610094275  0.7938444692345045  1.0000
  H   H366      1.0  0.6594640247523595  0.678491569931231  0.8071148230621724  1.0000
  H   H367      1.0  0.6945523130873119  0.6711899500348246  0.7688597575743217  1.0000
  H   H368      1.0  0.6983281159523732  0.7207958734862067  0.7941182813694577  1.0000
  N   N21       1.0  0.38414909153221  0.6077061091569914  0.26946604704105775  1.0000
  C   C273      1.0  0.4084094241638929  0.5994764562675955  0.23600166977747283  1.0000
  C   C274      1.0  0.33740356497895474  0.5911070034771495  0.26654812593153027  1.0000
  C   C275      1.0  0.3834097075361203  0.6551289294030193  0.2767298282623966  1.0000
  C   C276      1.0  0.40744215173191245  0.5849278131222388  0.2986112760875277  1.0000
  H   H369      1.0  0.4091589579155689  0.5639671721787117  0.2296337864753427  1.0000
  H   H370      1.0  0.44411928383699745  0.6107591359472507  0.23737438097594418  1.0000
  H   H371      1.0  0.3920627511713677  0.6163095716581332  0.2133452135499651  1.0000
  H   H372      1.0  0.31854824416981103  0.5951466177996241  0.291773704871097  1.0000
  H   H373      1.0  0.3182341606491654  0.6083864696722057  0.24553036761061106  1.0000
  H   H374      1.0  0.3368656786193257  0.5556797752851123  0.25993094092815805  1.0000
  H   H375      1.0  0.3660003772245422  0.6734258502151228  0.25531797429282915  1.0000
  H   H376      1.0  0.4182012949879215  0.6685873234359779  0.2792020846239878  1.0000
  H   H377      1.0  0.3654030360058402  0.6624172238709884  0.3018637352957833  1.0000
  H   H378      1.0  0.3898325674407448  0.5898071202225043  0.3242809361289812  1.0000
  H   H379      1.0  0.4427939610603467  0.5966528957271652  0.30180977536194953  1.0000
  H   H380      1.0  0.4088680226445171  0.549164035856865  0.29376081139728455  1.0000
  N   N22       1.0  0.4785886011384704  0.5981358197824106  0.9726748864538556  1.0000
  C   C277      1.0  0.4415723774913693  0.5677512574994134  0.9636423213817191  1.0000
  C   C278      1.0  0.4815024755786284  0.6023452840981964  0.011489237552558151  1.0000
  C   C279      1.0  0.46955197745973337  0.6414560886052529  0.9569525013002788  1.0000
  C   C280      1.0  0.5215211316979599  0.5809986837692904  0.9584829827088033  1.0000
  H   H381      1.0  0.4087449214833781  0.5794760917415268  0.9742850085096302  1.0000
  H   H382      1.0  0.44735110227531893  0.5346224370140181  0.9748370729549631  1.0000
  H   H383      1.0  0.4379500493283171  0.5642416181871694  0.934496027000743  1.0000
  H   H384      1.0  0.5091746916935626  0.624908483699257  0.019395320621191203  1.0000
  H   H385      1.0  0.44946214866283  0.6155599297476159  0.0226643797456898  1.0000
  H   H386      1.0  0.48763585003932575  0.570178116325543  0.02434517231096156  1.0000
  H   H387      1.0  0.4969287076297438  0.6651915580380676  0.9629966092823549  1.0000
  H   H388      1.0  0.43751123108148465  0.6555063811672167  0.9671598646711432  1.0000
  H   H389      1.0  0.46648848744556615  0.6394610675417091  0.9276956655639095  1.0000
  H   H390      1.0  0.5199200473886617  0.5776128383130936  0.929166935818516  1.0000
  H   H391      1.0  0.5293933454944552  0.5482356391939364  0.9696379763807779  1.0000
  H   H392      1.0  0.5502733093240046  0.6031365112093233  0.9646900540118948  1.0000
  N   N23       1.0  0.28903125871351726  0.05163707009367413  0.13293741440610535  1.0000
  C   C281      1.0  0.2887510239538646  0.037326865242541585  0.09565052449368054  1.0000
  C   C282      1.0  0.2606970158789647  0.09101667094868793  0.1366789307307864  1.0000
  C   C283      1.0  0.3357818307066207  0.06180803044544847  0.14391461547758125  1.0000
  C   C284      1.0  0.27068388913026986  0.01646306253037677  0.1555839363103927  1.0000
  H   H393      1.0  0.30942941275641367  0.007431583165511846  0.09171677210660062  1.0000
  H   H394      1.0  0.3023990913717697  0.06314552869778156  0.07779865404272891  1.0000
  H   H395      1.0  0.2538596015945477  0.030025595619728396  0.08637832413773251  1.0000
  H   H396      1.0  0.2615243531381125  0.10387091931053583  0.16412234206720014  1.0000
  H   H397      1.0  0.2720210201778353  0.11754320078812652  0.11857707809460219  1.0000
  H   H398      1.0  0.2247733598810114  0.08376447035591994  0.13032897908384342  1.0000
  H   H399      1.0  0.3506395147254992  0.08844280644046698  0.1275665347592951  1.0000
  H   H400      1.0  0.3582361600272067  0.03282412449238792  0.14134632132914737  1.0000
  H   H401      1.0  0.3371720795146287  0.07229776925094544  0.1720688675789161  1.0000
  H   H402      1.0  0.29143878053321015  0.9862980483781955  0.15369428209746172  1.0000
  H   H403      1.0  0.23545452543925943  0.007909021027672436  0.14793700508458388  1.0000
  H   H404      1.0  0.2700097445123471  0.026543696328157784  0.18384967875672376  1.0000
  N   N24       1.0  0.8602400046402336  0.8154453800940258  0.35733826153824927  1.0000
  C   C285      1.0  0.8532506338021396  0.8616700929688239  0.34750704291938583  1.0000
  C   C286      1.0  0.9058818208480293  0.8017112712112641  0.3461943589954571  1.0000
  C   C287      1.0  0.826006169234051  0.7878909394391592  0.33964289670345466  1.0000
  C   C288      1.0  0.8557929453583011  0.8106378338188214  0.39604684072359325  1.0000
  H   H405      1.0  0.8194290417234709  0.8731852463666105  0.35610617909557  1.0000
  H   H406      1.0  0.8556899683043466  0.8666813718422521  0.3184509743753118  1.0000
  H   H407      1.0  0.8788275970028261  0.8834374241329951  0.3600235025748511  1.0000
  H   H408      1.0  0.9103760974995375  0.8051931350200994  0.3171213698107148  1.0000
  H   H409      1.0  0.9324853922733535  0.8219171765579644  0.3590847518315029  1.0000
  H   H410      1.0  0.9123577872601266  0.7669153047258868  0.35308873775188165  1.0000
  H   H411      1.0  0.8300368614152035  0.7527612242331378  0.3466016465027299  1.0000
  H   H412      1.0  0.8281466999805176  0.7907594641766897  0.31038845679495963  1.0000
  H   H413      1.0  0.7911952348593115  0.7974674373206495  0.3474329670869597  1.0000
  H   H414      1.0  0.8614386041485029  0.7762976417420003  0.4045956457186715  1.0000
  H   H415      1.0  0.821462122921612  0.8201177971345948  0.4052458494345807  1.0000
  H   H416      1.0  0.8802860455012765  0.8318503709398206  0.41032244600557904  1.0000
  N   N25       1.0  0.6454432736441138  0.022016060958207854  0.7504073372469539  1.0000
  C   C289      1.0  0.6776139085163968  0.007413487328005398  0.7230121276956925  1.0000
  C   C290      1.0  0.6692001539617194  0.05006973296177297  0.7761681516841625  1.0000
  C   C291      1.0  0.6264589228171779  0.9835629645177943  0.7688978776793908  1.0000
  C   C292      1.0  0.6085626677058753  0.04697954502831414  0.7336019055939788  1.0000
  H   H417      1.0  0.6608354798577968  0.9862486617507915  0.7030654567330759  1.0000
  H   H418      1.0  0.7057500494429593  0.9882180449760637  0.7347204302793515  1.0000
  H   H419      1.0  0.6930284731643362  0.03562375294717857  0.7088606642735067  1.0000
  H   H420      1.0  0.6458756924561173  0.061867977115192034  0.7971387722766853  1.0000
  H   H421      1.0  0.6970166398420988  0.03198561802498867  0.7894516484100853  1.0000
  H   H422      1.0  0.6844062918562475  0.07927613399324865  0.7632629417658671  1.0000
  H   H423      1.0  0.6025286148602926  0.9934638990432303  0.7900883004211697  1.0000
  H   H424      1.0  0.6534844723355837  0.9638038310474334  0.7816369117167024  1.0000
  H   H425      1.0  0.6079354459208222  0.9617397210140036  0.7504451528017864  1.0000
  H   H426      1.0  0.5832820848718182  0.057847970871617756  0.7534082474489571  1.0000
  H   H427      1.0  0.5903330053842801  0.02706151856514105  0.7135448793474902  1.0000
  H   H428      1.0  0.621511271000232  0.07679170573378634  0.72011281232628  1.0000
  N   N26       1.0  0.9017896655232942  0.6429880302103199  0.1051434553907404  1.0000
  C   C293      1.0  0.950566395645595  0.6465686657374552  0.11280934112176094  1.0000
  C   C294      1.0  0.8941385521425316  0.649813353824772  0.0669507156076211  1.0000
  C   C295      1.0  0.8770395695894017  0.6764503599290184  0.1254947985166832  1.0000
  C   C296      1.0  0.8854703950855899  0.5991217920122829  0.11548308530316401  1.0000
  H   H429      1.0  0.9573500687919627  0.6425874366543534  0.14151516273555587  1.0000
  H   H430      1.0  0.9643686940567793  0.6788666133048649  0.10467037981448912  1.0000
  H   H431      1.0  0.970249615458562  0.6210559341503332  0.09870197901289253  1.0000
  H   H432      1.0  0.8579106936234469  0.6458505177562673  0.05984511672815194  1.0000
  H   H433      1.0  0.9050415445297098  0.682978993520898  0.0583701715910781  1.0000
  H   H434      1.0  0.9134721401992185  0.6259518737653444  0.05084315615772442  1.0000
  H   H435      1.0  0.8401227986534665  0.6748217759159728  0.12026334450704466  1.0000
  H   H436      1.0  0.8888601401298967  0.7099703303939748  0.11876236490931422  1.0000
  H   H437      1.0  0.8819490659796274  0.6718884262654272  0.1544651015911078  1.0000
  H   H438      1.0  0.8907753657390156  0.5930075677788024  0.14421354047170945  1.0000
  H   H439      1.0  0.9034826942215187  0.572990945556708  0.1007789646653999  1.0000
  H   H440      1.0  0.8487998703642514  0.5951603709690532  0.11005520274491426  1.0000
  N   N27       1.0  0.35018319505901174  0.5207814073602371  0.6405558465287099  1.0000
  C   C297      1.0  0.34944246326480877  0.5390776522841977  0.6766436234845693  1.0000
  C   C298      1.0  0.39564589616799584  0.5035682408344947  0.6326197534074869  1.0000
  C   C299      1.0  0.33892551128892134  0.5555611723350112  0.6149944599888422  1.0000
  C   C300      1.0  0.31666470785309975  0.48510334083971396  0.6379918395570142  1.0000
  H   H441      1.0  0.37175035909138554  0.5682273931285047  0.6787410874092001  1.0000
  H   H442      1.0  0.36103403122666733  0.514817288296863  0.6965472630795786  1.0000
  H   H443      1.0  0.31480791249925466  0.5492510589800456  0.6845573510882065  1.0000
  H   H444      1.0  0.39727048293740164  0.4895346633324335  0.6055528099685867  1.0000
  H   H445      1.0  0.421740750517837  0.5297370844330623  0.6343187108824164  1.0000
  H   H446      1.0  0.4054198908996851  0.4774722833168287  0.6515607330068692  1.0000
  H   H447      1.0  0.30584180691132845  0.5707127252370628  0.6213582772359855  1.0000
  H   H448      1.0  0.3370043204684843  0.5426268458837993  0.5875854556262523  1.0000
  H   H449      1.0  0.36459010961591676  0.582195021069251  0.615196154005237  1.0000
  H   H450      1.0  0.31641407385755826  0.4699763641743914  0.6112518354992933  1.0000
  H   H451      1.0  0.28190414034212585  0.4971782267954549  0.6431575232727494  1.0000
  H   H452      1.0  0.3235572424607016  0.4588820886557096  0.6576467134363244  1.0000
  N   N28       1.0  0.7406503714803298  0.5646913853999422  0.5889605889856521  1.0000
  C   C301      1.0  0.7192378270859368  0.5334769192518134  0.5643312060875223  1.0000
  C   C302      1.0  0.7072277571382986  0.5978050911626114  0.599888036457719  1.0000
  C   C303      1.0  0.7789161364389502  0.5866337783426346  0.5711697787891108  1.0000
  C   C304      1.0  0.7571903979516161  0.5410109793284317  0.6204345759176934  1.0000
  H   H453      1.0  0.6890329867851755  0.517577188682552  0.5764049731658739  1.0000
  H   H454      1.0  0.7429328440793469  0.5071069923098603  0.5564368515926665  1.0000
  H   H455      1.0  0.7077828869967595  0.5500732365345189  0.539761733727646  1.0000
  H   H456      1.0  0.7216334014659356  0.6209026324957321  0.6196094475494804  1.0000
  H   H457      1.0  0.695189715985728  0.6173978574970946  0.5770569036496705  1.0000
  H   H458      1.0  0.6771993312623917  0.582314858374412  0.612423777557572  1.0000
  H   H459      1.0  0.8048509424691923  0.5626646462137458  0.562538546572263  1.0000
  H   H460      1.0  0.7956467224687014  0.6105343987105172  0.5890650252924647  1.0000
  H   H461      1.0  0.7674844673866804  0.6048467712277968  0.547292728465674  1.0000
  H   H462      1.0  0.7728267056024088  0.5636922961265214  0.6399264251614301  1.0000
  H   H463      1.0  0.782728364117205  0.5159240755331622  0.6133871345762361  1.0000
  H   H464      1.0  0.7291378189826464  0.5240813346156377  0.6344708488194334  1.0000
  N   N29       1.0  0.45233224252051984  0.4295861937877788  0.7561839676834669  1.0000
  C   C305      1.0  0.4687699997573877  0.4454518145509844  0.7216476916895072  1.0000
  C   C306      1.0  0.4033582873188467  0.42054422640223393  0.7539828863568582  1.0000
  C   C307      1.0  0.46065832895467884  0.46337320912463226  0.7832953973091454  1.0000
  C   C308      1.0  0.4767143956012197  0.3891330450100715  0.7656436769611166  1.0000
  H   H465      1.0  0.5055359743368788  0.45288348865890643  0.7226213947141447  1.0000
  H   H466      1.0  0.4511557436341021  0.4758813157541645  0.7135239852933212  1.0000
  H   H467      1.0  0.46387192780388053  0.4205446001004683  0.7005856827107226  1.0000
  H   H468      1.0  0.3896628465046301  0.40861399758729006  0.7796270288939173  1.0000
  H   H469      1.0  0.38402482398628013  0.4504815546172238  0.7469124147771778  1.0000
  H   H470      1.0  0.3957075367693002  0.3953230920716786  0.7336813620868007  1.0000
  H   H471      1.0  0.44950234507356174  0.45232062119864275  0.809908661381602  1.0000
  H   H472      1.0  0.44205641255135686  0.4940285479021088  0.7772179754771238  1.0000
  H   H473      1.0  0.4971607000278903  0.47197831390428313  0.7849626522813133  1.0000
  H   H474      1.0  0.5138286797204823  0.39494574792485704  0.7673551973735744  1.0000
  H   H475      1.0  0.4716150377765789  0.3631486432608784  0.7454412832274441  1.0000
  H   H476      1.0  0.46527847771480907  0.3759214592699628  0.7915247121657949  1.0000
  N   N30       1.0  0.573022787057335  0.19153958068146057  0.5790445060476381  1.0000
  C   C309      1.0  0.579551790784874  0.22364665261477182  0.6077415741153821  1.0000
  C   C310      1.0  0.524412162453903  0.18162592545851255  0.5753263534204811  1.0000
  C   C311      1.0  0.5977671547738511  0.15095338623107224  0.5874600011378797  1.0000
  C   C312      1.0  0.5902558450817306  0.2099430134852392  0.545532282891677  1.0000
  H   H477      1.0  0.5664210315335116  0.21107073553710534  0.6333520088239978  1.0000
  H   H478      1.0  0.5611302978198041  0.2546153174520934  0.6022839608746794  1.0000
  H   H479      1.0  0.6157971602167731  0.23192480617322142  0.6115334712973273  1.0000
  H   H480      1.0  0.5179920331171781  0.15861636749299793  0.5531968146363103  1.0000
  H   H481      1.0  0.5105373683559491  0.16660368174923967  0.5998256190325305  1.0000
  H   H482      1.0  0.5043936978712135  0.21176426358266667  0.5702802640661604  1.0000
  H   H483      1.0  0.6344215283850234  0.1572727049646813  0.5913512307238904  1.0000
  H   H484      1.0  0.5944618571218676  0.12650942971840623  0.5658667974189687  1.0000
  H   H485      1.0  0.5846848389847341  0.1353725643358562  0.6120416197547099  1.0000
  H   H486      1.0  0.6268656148998988  0.21787851980128173  0.5473767929838175  1.0000
  H   H487      1.0  0.5721018030871267  0.24051973506914504  0.5383785801335924  1.0000
  H   H488      1.0  0.5858407802516159  0.1864757810270483  0.5233115653393657  1.0000
  N   N31       1.0  0.5426484634714346  0.817534765123335  0.36186332292386414  1.0000
  C   C313      1.0  0.5086161316467149  0.7852330959370412  0.3502031518902952  1.0000
  C   C314      1.0  0.5638959505893457  0.8381151205175951  0.3306233110572165  1.0000
  C   C315      1.0  0.5776016408219262  0.7953136936808616  0.38309659917386407  1.0000
  C   C316      1.0  0.5204748220715119  0.8514540252939621  0.3834938129622316  1.0000
  H   H489      1.0  0.49098168104098217  0.7698220313016476  0.37309503906961905  1.0000
  H   H490      1.0  0.5243710732188468  0.758649179724434  0.3344211902456123  1.0000
  H   H491      1.0  0.482213675371824  0.8007566781065684  0.33349488829504426  1.0000
  H   H492      1.0  0.5901189275577674  0.8623161019166291  0.3384255088462568  1.0000
  H   H493      1.0  0.5806749035319465  0.8133969801579036  0.313508737650253  1.0000
  H   H494      1.0  0.5385835587368505  0.8557989285279649  0.3142331233739126  1.0000
  H   H495      1.0  0.604103128204114  0.8186129581411169  0.3921007440778005  1.0000
  H   H496      1.0  0.5949111227893019  0.7694609543069719  0.36750363524122914  1.0000
  H   H497      1.0  0.562852601754864  0.7794210160188427  0.40691853998979916  1.0000
  H   H498      1.0  0.5449267683577361  0.8768445640662772  0.39221839615710147  1.0000
  H   H499      1.0  0.5043681825849027  0.8372182724631496  0.40748616804218174  1.0000
  H   H500      1.0  0.4935379956416497  0.86848622647408  0.3683226037813283  1.0000
  N   N32       1.0  0.9965053721673486  0.13413500401671746  0.5412615322129087  1.0000
  C   C317      1.0  0.9952605963546107  0.1506826706845694  0.5045919188525299  1.0000
  C   C318      1.0  0.9567204796448247  0.15054546770469196  0.560678645984137  1.0000
  C   C319      1.0  0.03811062478519567  0.14951930368197872  0.5588693910382351  1.0000
  C   C320      1.0  0.9957534856780459  0.08584301214965424  0.5408689268261567  1.0000
  H   H501      1.0  0.02475715423849123  0.13898401070890345  0.4890890511240051  1.0000
  H   H502      1.0  0.9954225556687025  0.18703565691398388  0.5039331308209952  1.0000
  H   H503      1.0  0.9641616801271563  0.1394295887104864  0.49064489088899815  1.0000
  H   H504      1.0  0.9547286087894459  0.13633900884544548  0.5877251306859859  1.0000
  H   H505      1.0  0.9577842215144119  0.18669490425614735  0.5636995529783235  1.0000
  H   H506      1.0  0.9248373439051668  0.14233764730579732  0.5468290361495064  1.0000
  H   H507      1.0  0.03990292495208858  0.1375108887550342  0.5865677843737468  1.0000
  H   H508      1.0  0.039411973819073465  0.18584838154682615  0.5602390817684799  1.0000
  H   H509      1.0  0.06893789450787757  0.1380692183521305  0.5449518446746509  1.0000
  H   H510      1.0  0.9658657881885719  0.07324517785585521  0.5263160325833519  1.0000
  H   H511      1.0  0.9940883659130908  0.07202026312799185  0.5680879360913897  1.0000
  H   H512      1.0  0.026249254316162096  0.0721635387180277  0.5278746524935137  1.0000
