data_image0
_chemical_formula_structural       FeS2FeS2FeSFeS3FeS2FeS2FeSFeS3FeS2FeS2FeSFeS3FeS2FeS2FeSFeS3FeS2FeS2FeSFeS3FeS2FeS2FeSFeS3FeS2FeS2FeSFeS3FeS2FeS2FeSFeS3C6H4C6H4C6H4C6H4C6H4C6H4C6H4C6H4C6H4C6H4C6H4C6H4C6H4C6H4C6H4C6H4FeS2FeS2FeSFeS3FeS2FeS2FeSFeS3FeS2FeS2FeSFeS3FeS2FeS2FeSFeS3FeS2FeS2FeSFeS3FeS2FeS2FeSFeS3FeS2FeS2FeSFeS3FeS2FeS2FeSFeS3C6H4C6H4C6H4C6H4C6H4C6H4C6H4C6H4C6H4C6H4C6H4C6H4C6H4C6H4C6H4C6H4FeS2FeS2FeSFeS3FeS2FeS2FeSFeS3FeS2FeS2FeSFeS3FeS2FeS2FeSFeS3FeS2FeS2FeSFeS3FeS2FeS2FeSFeS3FeS2FeS2FeSFeS3FeS2FeS2FeSFeS3C6H4C6H4C6H4C6H4C6H4C6H4C6H4C6H4C6H4C6H4C6H4C6H4C6H4C6H4C6H4C6H4FeS2FeS2FeSFeS3FeS2FeS2FeSFeS3FeS2FeS2FeSFeS3FeS2FeS2FeSFeS3FeS2FeS2FeSFeS3FeS2FeS2FeSFeS3FeS2FeS2FeSFeS3FeS2FeS2FeSFeS3C6H4C6H4C6H4C6H4C6H4C6H4C6H4C6H4C6H4C6H4C6H4C6H4C6H4C6H4C6H4C6H4NC4H12NC4H12NC4H12NC4H12NC4H12NC4H12NC4H12NC4H12NC4H12NC4H12NC4H12NC4H12NC4H12NC4H12NC4H12NC4H12NC4H12NC4H12NC4H12NC4H12NC4H12NC4H12NC4H12NC4H12NC4H12NC4H12NC4H12NC4H12NC4H12NC4H12NC4H12NC4H12NC4H12NC4H12NC4H12NC4H12NC4H12NC4H12NC4H12NC4H12NC4H12NC4H12NC4H12NC4H12NC4H12NC4H12NC4H12NC4H12NC4H12NC4H12NC4H12NC4H12NC4H12NC4H12NC4H12NC4H12NC4H12NC4H12NC4H12NC4H12NC4H12NC4H12NC4H12NC4H12
_chemical_formula_sum              "Fe128 S256 C640 H1024 N64"
_cell_length_a       39.57811571040127
_cell_length_b       22.082473897888516
_cell_length_c       43.33853831838981
_cell_angle_alpha    89.86672966680688
_cell_angle_beta     90.18164073009513
_cell_angle_gamma    89.90000950023378

_space_group_name_H-M_alt    "P 1"
_space_group_IT_number       1

loop_
  _space_group_symop_operation_xyz
  'x, y, z'

loop_
  _atom_site_type_symbol
  _atom_site_label
  _atom_site_symmetry_multiplicity
  _atom_site_fract_x
  _atom_site_fract_y
  _atom_site_fract_z
  _atom_site_occupancy
  Fe  Fe1       1.0  0.9404504352804893  0.7046031964392505  0.3209350096661877  1.0000
  S   S1        1.0  0.9336582165506805  0.6043555786914827  0.3243424644274543  1.0000
  S   S2        1.0  0.9301001842881041  0.7674032093013098  0.3604422288135447  1.0000
  Fe  Fe2       1.0  0.9685574744318568  0.6988104948988143  0.25667136133433077  1.0000
  S   S3        1.0  0.964999978903978  0.5976131209393342  0.253785758879763  1.0000
  S   S4        1.0  0.9868502447994935  0.7633916657922902  0.22037992092024572  1.0000
  Fe  Fe3       1.0  0.9143752066951033  0.6096637916832669  0.2758545909925136  1.0000
  S   S5        1.0  0.8723029873920409  0.5477506274827066  0.2609756479869293  1.0000
  Fe  Fe4       1.0  0.9846617425740191  0.599117521400309  0.30242233113261147  1.0000
  S   S6        1.0  0.019420776945643148  0.5314121104873782  0.3245668233906252  1.0000
  S   S7        1.0  0.9157476890454048  0.7112218311829506  0.2743565443735168  1.0000
  S   S8        1.0  0.9933081237796647  0.6992025498782365  0.30321029974372743  1.0000
  Fe  Fe5       1.0  0.6234852075557603  0.5454103544375363  0.3489874252581031  1.0000
  S   S9        1.0  0.6173760928417226  0.44752280407636247  0.33692912570454586  1.0000
  S   S10       1.0  0.5845224294570435  0.6047285434617948  0.37105443228491225  1.0000
  Fe  Fe6       1.0  0.6971594808762945  0.5487638753134747  0.33097196262515094  1.0000
  S   S11       1.0  0.6986384727116097  0.45103869826889015  0.3170230260162726  1.0000
  S   S12       1.0  0.7383600659616835  0.6179625668907911  0.3313355676420196  1.0000
  Fe  Fe7       1.0  0.6481889574150146  0.4705848036523405  0.29530540145966727  1.0000
  S   S13       1.0  0.6346696647897218  0.43276018243352016  0.24900820262914686  1.0000
  Fe  Fe8       1.0  0.6679310004922927  0.43554133251626165  0.359406037552429  1.0000
  S   S14       1.0  0.676766695026727  0.3547889643333271  0.3893694431348963  1.0000
  S   S15       1.0  0.649740137382633  0.5701197630392594  0.3050380928664788  1.0000
  S   S16       1.0  0.6710474618690268  0.5313299069080125  0.37586706090758437  1.0000
  Fe  Fe9       1.0  0.006321900896507193  0.24348077431671777  0.03546194955515469  1.0000
  S   S17       1.0  0.9939545410325382  0.3417375255045473  0.027789144035407887  1.0000
  S   S18       1.0  0.006267418166867822  0.1879305873518209  0.07896242309696806  1.0000
  Fe  Fe10      1.0  0.9199073300728728  0.20989634400634555  0.5060149310483403  1.0000
  S   S19       1.0  0.9370257733624169  0.3007385624391572  0.5229856551056563  1.0000
  S   S20       1.0  0.8910644876188625  0.1897902522188926  0.46241869464713553  1.0000
  Fe  Fe11      1.0  0.987933260388324  0.25714540200354397  0.5276479644622606  1.0000
  S   S21       1.0  0.0327173568032062  0.30514343777991265  0.5073149560392728  1.0000
  Fe  Fe12      1.0  0.9281108926855427  0.26212203562547465  0.5702024481086734  1.0000
  S   S22       1.0  0.9086385181848113  0.3179634839422493  0.6095279328963785  1.0000
  S   S23       1.0  0.054718253831932184  0.24654603219889243  0.008805155677285237  1.0000
  S   S24       1.0  0.9054745753247625  0.1751927425411295  0.5529263245550986  1.0000
  Fe  Fe13      1.0  0.740355150979036  0.49555444697038786  0.11128146525396318  1.0000
  S   S25       1.0  0.7329018983713355  0.39529639712851333  0.10726892954292552  1.0000
  S   S26       1.0  0.7402931374051972  0.543277343242046  0.1565729665711756  1.0000
  Fe  Fe14      1.0  0.7336252910251898  0.41749508208214364  0.5444295946116668  1.0000
  S   S27       1.0  0.7161030413189334  0.32401525387822977  0.5567139689587604  1.0000
  S   S28       1.0  0.7638800490277662  0.44123787997297675  0.5026153242514345  1.0000
  Fe  Fe15      1.0  0.665555634641478  0.36848829092920743  0.5626016751835635  1.0000
  S   S29       1.0  0.6196319062069809  0.33067080947215677  0.5388858535280975  1.0000
  Fe  Fe16      1.0  0.7794172418785598  0.39788714217445564  0.0783976306949343  1.0000
  S   S30       1.0  0.8206624125685793  0.32957326164152495  0.08550057760630414  1.0000
  S   S31       1.0  0.6824977154453283  0.4601578713142685  0.5470843805436965  1.0000
  S   S32       1.0  0.7481317284436612  0.4427697544906263  0.5926367738408461  1.0000
  Fe  Fe17      1.0  0.4720038511762836  0.31106412661407357  0.333659338944962  1.0000
  S   S33       1.0  0.4898918432034449  0.40685715983663856  0.33674183550584286  1.0000
  S   S34       1.0  0.502344441746744  0.23618040608931568  0.31255398547279295  1.0000
  Fe  Fe18      1.0  0.40425985484012555  0.33927708605937723  0.36232302707524183  1.0000
  S   S35       1.0  0.41564161414666173  0.43797660888146306  0.3676932022961136  1.0000
  S   S36       1.0  0.35649051597126336  0.2947718875357018  0.37786657847529725  1.0000
  Fe  Fe19      1.0  0.4376955274975487  0.43041927451614953  0.32011675549677504  1.0000
  S   S37       1.0  0.42554578583665853  0.4989643170279382  0.283241310686715  1.0000
  Fe  Fe20      1.0  0.46643147890781395  0.40555472984044283  0.3836020539589115  1.0000
  S   S38       1.0  0.4942458504710446  0.448909060887132  0.42270909820970864  1.0000
  S   S39       1.0  0.4215904251321143  0.3344722968294174  0.31333861113694667  1.0000
  S   S40       1.0  0.4532484722505426  0.30705673759704266  0.38223691758134715  1.0000
  Fe  Fe21      1.0  0.12933465103555175  0.29753700675454015  0.2593874038473177  1.0000
  S   S41       1.0  0.13329236630828367  0.19690728919353132  0.26494124623332066  1.0000
  S   S42       1.0  0.086044983592907  0.34264987780821987  0.23497976399873452  1.0000
  Fe  Fe22      1.0  0.19783016266771006  0.32184009894122756  0.28747703275249537  1.0000
  S   S43       1.0  0.2082125513203094  0.22377159477469366  0.2959773657056257  1.0000
  S   S44       1.0  0.23534689302267867  0.3953676864317018  0.29743824243799544  1.0000
  Fe  Fe23      1.0  0.18652389539659395  0.2089889179156408  0.248919137156419  1.0000
  S   S45       1.0  0.21543781851705968  0.1449454132405772  0.2188947695409221  1.0000
  Fe  Fe24      1.0  0.15449713855187489  0.21954959485616504  0.3114669107126666  1.0000
  S   S46       1.0  0.14077168021932665  0.16076715653795404  0.35146801246201126  1.0000
  S   S47       1.0  0.1808489668154014  0.3077733009368406  0.23866204923706594  1.0000
  S   S48       1.0  0.14579407729469107  0.319603173823001  0.3076937393419473  1.0000
  Fe  Fe25      1.0  0.5014806180207048  0.5351622988738209  0.6037344520521036  1.0000
  S   S49       1.0  0.5670685656986473  0.650278225180762  0.1219586943663541  1.0000
  S   S50       1.0  0.549636162907675  0.5782094215395985  0.5874520876741642  1.0000
  Fe  Fe26      1.0  0.4269489237169185  0.5373938968300561  0.618616192083702  1.0000
  S   S51       1.0  0.48943004099618803  0.5998513043896592  0.12579399815881756  1.0000
  S   S52       1.0  0.3798420681241234  0.592399237604566  0.6227269457634117  1.0000
  Fe  Fe27      1.0  0.5313120278792653  0.6211850634498616  0.15875323936628405  1.0000
  S   S53       1.0  0.5487048959762496  0.5584144222687915  0.1961423786377355  1.0000
  Fe  Fe28      1.0  0.4567058346078752  0.42892211180028844  0.5874376359048451  1.0000
  S   S54       1.0  0.4458003008196777  0.3564041303458138  0.5528387716185764  1.0000
  S   S55       1.0  0.5132594772918375  0.7145939402530703  0.16979368204605122  1.0000
  S   S56       1.0  0.45505784872917704  0.526980643574961  0.5742172662560917  1.0000
  Fe  Fe29      1.0  0.16949101317952278  0.6397842395828217  0.5297359061528278  1.0000
  S   S57       1.0  0.165604346379677  0.5383446260851733  0.528578970467246  1.0000
  S   S58       1.0  0.15611721061355643  0.7051710012401838  0.49194800987542203  1.0000
  Fe  Fe30      1.0  0.23686234832203493  0.5803044361946786  0.09316173460045811  1.0000
  S   S59       1.0  0.24123465873503003  0.5092130442976125  0.12986784501833937  1.0000
  S   S60       1.0  0.21866959970350472  0.6738951010351646  0.1029385411717164  1.0000
  Fe  Fe31      1.0  0.291512861982603  0.4909547979984821  0.10844026211412797  1.0000
  S   S61       1.0  0.33674245489403265  0.4784950444823757  0.13908881111517668  1.0000
  Fe  Fe32      1.0  0.14223881872108343  0.5493326879643233  0.5754601377332651  1.0000
  S   S62       1.0  0.09872204830352996  0.49837683070280686  0.5959935302233667  1.0000
  S   S63       1.0  0.22104156031629765  0.6412892529525209  0.5509855372103039  1.0000
  S   S64       1.0  0.1424528782167677  0.6505877650099268  0.5747312120894909  1.0000
  C   C1        1.0  0.34667666517685636  0.5591916050443446  0.6015950103273658  1.0000
  C   C2        1.0  0.31394779524126043  0.582226322192744  0.6046131564173259  1.0000
  C   C3        1.0  0.2871448705815089  0.5562014192937479  0.5882080085157547  1.0000
  C   C4        1.0  0.35782507226459404  0.5474589135695751  0.14428309049515323  1.0000
  C   C5        1.0  0.39102108225459054  0.5476051936614234  0.15535125978345832  1.0000
  C   C6        1.0  0.4093045651765326  0.6018326150080406  0.1562909685134272  1.0000
  H   H1        1.0  0.3091755383238379  0.6204413546154331  0.6195628550596163  1.0000
  H   H2        1.0  0.2620678661880917  0.5739674670378365  0.5913151403077055  1.0000
  H   H3        1.0  0.40289000728359026  0.5056892990508531  0.16258412775447953  1.0000
  H   H4        1.0  0.4347838661301272  0.6018008399925038  0.16506343348437721  1.0000
  C   C7        1.0  0.16418146290010743  0.17974896060206927  0.38434690982052594  1.0000
  C   C8        1.0  0.19666605409375415  0.6133477683773385  0.4201463041938839  1.0000
  C   C9        1.0  0.18591868100141545  0.6286514598833397  0.44999910662133785  1.0000
  C   C10       1.0  0.17183569613341346  0.6857120396501165  0.45552790024467726  1.0000
  C   C11       1.0  0.17852604875446265  0.15868454806051682  0.4375938145836724  1.0000
  C   C12       1.0  0.16245808318559526  0.1420897161451522  0.4101867096334737  1.0000
  H   H5        1.0  0.20734987750116826  0.5690880378010469  0.41575682641549555  1.0000
  H   H6        1.0  0.18820360270153655  0.5961241300094942  0.4685499419139013  1.0000
  H   H7        1.0  0.17585919192203436  0.13014760767407688  0.45755228907122913  1.0000
  H   H8        1.0  0.1485311524062285  0.10002627693263079  0.40918091552478736  1.0000
  C   C13       1.0  0.1922955090178132  0.09875394752078727  0.1937422789316649  1.0000
  C   C14       1.0  0.15324281002836024  0.6205322151520422  0.16880130103325905  1.0000
  C   C15       1.0  0.17247646826906735  0.622787124627353  0.1417176512841617  1.0000
  C   C16       1.0  0.19435407161969634  0.6714114899695878  0.1365124842811218  1.0000
  C   C17       1.0  0.13976663555510127  0.06788937910165926  0.1691914547651879  1.0000
  C   C18       1.0  0.15701299584249978  0.10201090085618247  0.19165258076810432  1.0000
  H   H9        1.0  0.13604424757990152  0.5832400424507496  0.17269357975944002  1.0000
  H   H10       1.0  0.17033019764573692  0.5869793600979751  0.12485084937359953  1.0000
  H   H11       1.0  0.1125872457137159  0.07092065972752537  0.16710939903165714  1.0000
  H   H12       1.0  0.14315038251465825  0.1314400268380942  0.20691447143203284  1.0000
  C   C19       1.0  0.4792060146503652  0.4251600473306984  0.4587113592766286  1.0000
  C   C20       1.0  0.49417752905219575  0.44785120238675025  0.4855725175758266  1.0000
  C   C21       1.0  0.484034801798918  0.4264438831003394  0.5145176052574892  1.0000
  C   C22       1.0  0.4585728009118278  0.3828660422159951  0.5166666145758276  1.0000
  C   C23       1.0  0.44311014862068476  0.3609325477077537  0.48986851693478634  1.0000
  C   C24       1.0  0.45335941467087454  0.38220851282292606  0.46085736532687155  1.0000
  H   H13       1.0  0.5138147376757491  0.4816921715481047  0.48405595782320726  1.0000
  H   H14       1.0  0.4961863794329756  0.4432948410563182  0.535162231728611  1.0000
  H   H15       1.0  0.4227103314639318  0.32866646938076965  0.49166559758676887  1.0000
  H   H16       1.0  0.4409985711232229  0.36593923981639687  0.4402706425163838  1.0000
  C   C25       1.0  0.4592356019365311  0.5128046822485247  0.25792187227261965  1.0000
  C   C26       1.0  0.4894841570797117  0.4803459417614914  0.2605852125937679  1.0000
  C   C27       1.0  0.5173201920676616  0.49560381259017167  0.24227126791689746  1.0000
  C   C28       1.0  0.5145285072371156  0.5417977251686358  0.22029351069474348  1.0000
  C   C29       1.0  0.4840552594466241  0.5733019553012298  0.2170396281804524  1.0000
  C   C30       1.0  0.4565231041968334  0.5591959824548551  0.23599402139701486  1.0000
  H   H17       1.0  0.4915797172768827  0.44351270669019516  0.27672790130744235  1.0000
  H   H18       1.0  0.5409221000796799  0.4714112084696323  0.2451356301879637  1.0000
  H   H19       1.0  0.48179024413740834  0.6091845931357363  0.20020675570472016  1.0000
  H   H20       1.0  0.43332886456137915  0.5847536066193274  0.23377581784880713  1.0000
  C   C31       1.0  0.3225890773063948  0.3235028862782847  0.35613076682310846  1.0000
  C   C32       1.0  0.32740635892217795  0.37301767771825683  0.3364430412065824  1.0000
  C   C33       1.0  0.3003152177034265  0.3958022868454865  0.31898191245398033  1.0000
  C   C34       1.0  0.26848683669855  0.36854788902135205  0.32079155227049877  1.0000
  C   C35       1.0  0.2635413791751716  0.3196751704211945  0.3409026597588362  1.0000
  C   C36       1.0  0.29055370331636765  0.297237196327683  0.35862514731723805  1.0000
  H   H21       1.0  0.35201431700203206  0.3937564487470959  0.3344855150888284  1.0000
  H   H22       1.0  0.3042166892823025  0.4336930550089284  0.30354078558244985  1.0000
  H   H23       1.0  0.2388551577427562  0.29937619572686575  0.34294930638384735  1.0000
  H   H24       1.0  0.28664715396417567  0.2591165723026415  0.37392649243440795  1.0000
  C   C37       1.0  0.603111472716101  0.2689615393740743  0.5591887178605242  1.0000
  C   C38       1.0  0.5775974374020227  0.23346755790210258  0.5459989253570995  1.0000
  C   C39       1.0  0.5442408494742873  0.6714421015150768  0.6290201195146464  1.0000
  C   C40       1.0  0.5648676808006129  0.6406541846327929  0.6081446930456704  1.0000
  C   C41       1.0  0.6414950154048582  0.8698664284236699  0.1295190260548639  1.0000
  C   C42       1.0  0.6752706814877871  0.8668495078462573  0.12031801143261187  1.0000
  H   H25       1.0  0.5678686234008308  0.2446641136243298  0.5233353667928037  1.0000
  H   H26       1.0  0.5189227095507314  0.6557401665118426  0.6335239406336323  1.0000
  H   H27       1.0  0.6322548922291069  0.9107567859845863  0.14012866015415631  1.0000
  H   H28       1.0  0.6917027382920151  0.9048429191684862  0.1244550776606834  1.0000
  C   C43       1.0  0.05041343338146209  0.35936524085177934  0.5319988846040462  1.0000
  C   C44       1.0  0.07155757516033856  0.4041618182245158  0.5198361709064967  1.0000
  C   C45       1.0  0.0861168109787906  0.44759747720774357  0.5393292849936088  1.0000
  C   C46       1.0  0.07997081551295926  0.44577769921510624  0.5710833589192645  1.0000
  C   C47       1.0  0.16493690724107246  0.39966393071117257  0.043387852802299516  1.0000
  C   C48       1.0  0.1417600610773131  0.41129904760705377  0.019680308228720023  1.0000
  H   H29       1.0  0.07645237171639409  0.40562699527567514  0.4952881707440009  1.0000
  H   H30       1.0  0.10162596405158761  0.48291785917969865  0.5296773044496655  1.0000
  H   H31       1.0  0.1916106991019766  0.4060736282679615  0.03934941170407735  1.0000
  H   H32       1.0  0.1505249425344024  0.42780096683060176  0.9976333326934119  1.0000
  C   C49       1.0  0.8656644968544307  0.3065710296380138  0.6171427423713294  1.0000
  C   C50       1.0  0.8415127752793785  0.31364922526194366  0.5937689801320617  1.0000
  C   C51       1.0  0.8069625304332921  0.31058746121967096  0.6008702973191755  1.0000
  C   C52       1.0  0.8465959688368445  0.3273234592293284  0.052862907532055026  1.0000
  C   C53       1.0  0.8808480358981259  0.31328376671978886  0.056133548223825436  1.0000
  C   C54       1.0  0.9019286431347113  0.31344717996893484  0.030257508400141745  1.0000
  H   H33       1.0  0.8494413355318119  0.32348326847759423  0.5704152761154107  1.0000
  H   H34       1.0  0.7884014987305337  0.3176476318188463  0.5828666369038483  1.0000
  H   H35       1.0  0.8912058284301786  0.303136441098048  0.07871244850046712  1.0000
  H   H36       1.0  0.9281953860018878  0.3019562912748515  0.03295432153309963  1.0000
  C   C55       1.0  0.5754530862957539  0.6656779658903574  0.3465359548956306  1.0000
  C   C56       1.0  0.577826267677191  0.6588061090069611  0.31454311786568606  1.0000
  C   C57       1.0  0.5342346720015869  0.22761509052561266  0.3685728463320006  1.0000
  C   C58       1.0  0.5294565842997697  0.20198085808100544  0.33940094862466036  1.0000
  C   C59       1.0  0.5585795611324249  0.7704268772916959  0.33930830159168274  1.0000
  C   C60       1.0  0.5657988840637586  0.7214749588462851  0.3589450100110274  1.0000
  H   H37       1.0  0.5836450984644512  0.6150922004556931  0.3047753888099904  1.0000
  H   H38       1.0  0.5216691669354986  0.26936164112315425  0.37453634736388763  1.0000
  H   H39       1.0  0.5512502445688438  0.8136656289348625  0.3489151977463847  1.0000
  H   H40       1.0  0.5638188479945239  0.7268760095321731  0.3836896000614106  1.0000
  C   C61       1.0  0.703067699684058  0.37639290995126845  0.41978570488626055  1.0000
  C   C62       1.0  0.7021143945459382  0.34405491867547955  0.44745105404421925  1.0000
  C   C63       1.0  0.7211660224520802  0.36364991846080363  0.472747594105191  1.0000
  C   C64       1.0  0.7418816159893373  0.414668507578861  0.47025088215941185  1.0000
  C   C65       1.0  0.7440980295342111  0.44533924728795604  0.44206464193413053  1.0000
  C   C66       1.0  0.7244015329699348  0.4265581472284778  0.41688682326385995  1.0000
  H   H41       1.0  0.6858754102828414  0.30487988511001696  0.44963644590471163  1.0000
  H   H42       1.0  0.7198367091679432  0.338963877853126  0.4941130782943658  1.0000
  H   H43       1.0  0.7603309947241362  0.4845155611877237  0.43990772303070746  1.0000
  H   H44       1.0  0.7259649427661791  0.45069135192069165  0.3952026347422846  1.0000
  C   C67       1.0  0.6646494658328017  0.4609825911350192  0.223137955010781  1.0000
  C   C68       1.0  0.6626293479022323  0.4471018233004301  0.19171595920435885  1.0000
  C   C69       1.0  0.6862030051889282  0.4715922558106845  0.17107882546167677  1.0000
  C   C70       1.0  0.7117543345554125  0.5098007283808268  0.1819814569128954  1.0000
  C   C71       1.0  0.7138907509212041  0.523262162267522  0.2133800692465998  1.0000
  C   C72       1.0  0.6904740445145228  0.49860709325728647  0.23393546369694376  1.0000
  H   H45       1.0  0.6428017032448629  0.4178962264597585  0.18329788649013865  1.0000
  H   H46       1.0  0.6841158215217835  0.46203912032359407  0.14669895738682098  1.0000
  H   H47       1.0  0.7336169090199867  0.5528989717321692  0.22184135139512465  1.0000
  H   H48       1.0  0.6922658992343258  0.5097107446482547  0.25807281161670886  1.0000
  C   C73       1.0  0.0640509798629334  0.3915048155277195  0.2594680400996326  1.0000
  C   C74       1.0  0.06350542303417983  0.3807627850490232  0.2912546055956506  1.0000
  C   C75       1.0  0.049365619974635296  0.4237323542850298  0.31111895862903766  1.0000
  C   C76       1.0  0.035342127939589574  0.4770818910671693  0.2991776614655897  1.0000
  C   C77       1.0  0.03531198502244348  0.4873115469804636  0.2673295785477318  1.0000
  C   C78       1.0  0.04947864396198942  0.44430838157978714  0.24744929159603693  1.0000
  H   H49       1.0  0.07401389300965612  0.3393499797428723  0.3005474733382684  1.0000
  H   H50       1.0  0.04939859106569133  0.4156866757647479  0.33576312952276927  1.0000
  H   H51       1.0  0.025580626938982887  0.529245762753228  0.25803870761782843  1.0000
  H   H52       1.0  0.05033648830933379  0.453138518882888  0.22288443918166773  1.0000
  C   C79       1.0  0.9462328198287508  0.7338546254004651  0.3941465127759733  1.0000
  C   C80       1.0  0.9307187668567738  0.1964109774596079  0.37627972751785216  1.0000
  C   C81       1.0  0.910787453139684  0.18085036937143942  0.40187586972407363  1.0000
  C   C82       1.0  0.9159299242895694  0.20946156035416671  0.43034212966039337  1.0000
  C   C83       1.0  0.9498353489246836  0.7290217165664175  0.45007573105545284  1.0000
  C   C84       1.0  0.9372743084998703  0.7565500480548727  0.4231386939516476  1.0000
  H   H53       1.0  0.9268326034938275  0.17365657080367836  0.3544859916248035  1.0000
  H   H54       1.0  0.891689121915509  0.14613379378267433  0.39960609665022706  1.0000
  H   H55       1.0  0.9424203624017178  0.7461002497925777  0.4723973662117741  1.0000
  H   H56       1.0  0.9201522131753697  0.7946342880336668  0.42474242183694666  1.0000
  C   C85       1.0  0.9951675378619586  0.7270822413193724  0.18532107557572988  1.0000
  C   C86       1.0  0.9919896818364964  0.7597332587332034  0.15779368665749213  1.0000
  C   C87       1.0  0.9629291055427087  0.26268969514591295  0.11164889102843348  1.0000
  C   C88       1.0  0.9825539145689581  0.20985426490055653  0.1112804051127421  1.0000
  C   C89       1.0  0.012669347261022423  0.6385784445883542  0.15626740175501863  1.0000
  C   C90       1.0  0.005883014160930511  0.666681615309316  0.18460746970803718  1.0000
  H   H57       1.0  0.9301975364407934  0.31978991859656347  0.1389817311114799  1.0000
  H   H58       1.0  0.9614501832117038  0.2910924210412325  0.09131791248740563  1.0000
  H   H59       1.0  0.020841806948350472  0.5918072058165058  0.15575043575432795  1.0000
  H   H60       1.0  0.009493459134253257  0.641868918759856  0.2058667443173594  1.0000
  C   C91       1.0  0.8349650552973314  0.5668062718929119  0.2804099555464132  1.0000
  C   C92       1.0  0.8344688046167589  0.6161339886261298  0.3005481472242235  1.0000
  C   C93       1.0  0.8046174996184513  0.631570691706642  0.31597206115670196  1.0000
  C   C94       1.0  0.7752613889984611  0.5973711322598831  0.3115876233939513  1.0000
  C   C95       1.0  0.775726731126899  0.5478275206974133  0.2915013210346228  1.0000
  C   C96       1.0  0.8055887645342419  0.5325622615715678  0.2758871711579841  1.0000
  H   H61       1.0  0.8570455611566377  0.6426468880070608  0.30425053472612534  1.0000
  H   H62       1.0  0.8043796591081863  0.6698761126297316  0.3314999913180435  1.0000
  H   H63       1.0  0.7530391631956899  0.5217844728743339  0.2876859328362609  1.0000
  H   H64       1.0  0.805807062419418  0.4943846643986706  0.2603305262604466  1.0000
  Fe  Fe33      1.0  0.9776687043703005  0.5797073638951074  0.8190285034494067  1.0000
  S   S65       1.0  0.9545818306176357  0.5025032535120088  0.8448654005264996  1.0000
  S   S66       1.0  0.9833598001028774  0.671695081204655  0.8388685649252663  1.0000
  Fe  Fe34      1.0  0.9956515127172734  0.5025643906918548  0.7636184481516435  1.0000
  S   S67       1.0  0.9734906391701486  0.4186833548702105  0.7843920288800935  1.0000
  S   S68       1.0  0.022595325681403544  0.5039170213763415  0.7183303563398258  1.0000
  Fe  Fe35      1.0  0.9313240158363137  0.48051915284705543  0.7989302566488375  1.0000
  S   S69       1.0  0.8759056699935769  0.4644359440250963  0.7921106831813827  1.0000
  Fe  Fe36      1.0  0.9992732583817449  0.45026016625556203  0.8277782261934555  1.0000
  S   S70       1.0  0.028884058692266512  0.38870434455884106  0.8591417745413966  1.0000
  S   S71       1.0  0.95149391787828  0.5620314891897962  0.7744217531520226  1.0000
  S   S72       1.0  0.02429530177322281  0.5299168222019034  0.8056769759575698  1.0000
  Fe  Fe37      1.0  0.6743309776027858  0.7313580616920274  0.81442107412908  1.0000
  S   S73       1.0  0.6498298119246717  0.6404347226195992  0.8202653448547618  1.0000
  S   S74       1.0  0.6466944047373271  0.8172941219042315  0.8028562847201834  1.0000
  Fe  Fe38      1.0  0.7442660800997091  0.6855654889218521  0.8286900426022594  1.0000
  S   S75       1.0  0.7261115136459811  0.5915549826342756  0.8373579857211089  1.0000
  S   S76       1.0  0.7998157534395114  0.705024088895295  0.8305974786716458  1.0000
  Fe  Fe39      1.0  0.6949531004863543  0.6052111903742715  0.7947703885573725  1.0000
  S   S77       1.0  0.6947458401842413  0.523531320298026  0.7640497077233734  1.0000
  Fe  Fe40      1.0  0.6829723809516346  0.6340126068645151  0.8621079181916872  1.0000
  S   S78       1.0  0.6632175285050749  0.5913407221421757  0.9053071655246522  1.0000
  S   S79       1.0  0.7162134734504213  0.6969139515414958  0.784204346867173  1.0000
  S   S80       1.0  0.7042865328227468  0.7276184092922905  0.8584316895396007  1.0000
  Fe  Fe41      1.0  0.9587380607099725  0.1411253153324461  0.5552502758831833  1.0000
  S   S81       1.0  0.9806398731118792  0.2248663206043774  0.5762822856081904  1.0000
  S   S82       1.0  0.9704603725341311  0.04392399507282319  0.5658739014012725  1.0000
  Fe  Fe42      1.0  0.023359599053018876  0.2211868065022925  0.96786583419562  1.0000
  S   S83       1.0  0.011948717208561943  0.31678167438606036  0.954058949010392  1.0000
  S   S84       1.0  0.041479772531643366  0.14742296691345902  0.9364778021735559  1.0000
  Fe  Fe43      1.0  0.039514335800788114  0.3417422497456811  0.9972261055457382  1.0000
  S   S85       1.0  0.0787994360217239  0.41414104664406426  0.9943552831400394  1.0000
  Fe  Fe44      1.0  0.967465163143022  0.3071946460406243  0.9852769870142316  1.0000
  S   S86       1.0  0.9159921692814583  0.33537364770517775  0.9694858785297243  1.0000
  S   S87       1.0  0.9715377543031528  0.1693800092240767  0.5070375987191194  1.0000
  S   S88       1.0  0.9762079963508079  0.20906695035460932  0.9954197615915891  1.0000
  Fe  Fe45      1.0  0.6950454768198552  0.4761742069154347  0.596738534088562  1.0000
  S   S89       1.0  0.6730818348722069  0.38830987969237385  0.6130141163530164  1.0000
  S   S90       1.0  0.6857315040262082  0.5645113625706363  0.6204938526248717  1.0000
  Fe  Fe46      1.0  0.7577740420121838  0.5121348072150775  0.0445578510114617  1.0000
  S   S91       1.0  0.7517116975759838  0.41397380883745566  0.03421245088698166  1.0000
  S   S92       1.0  0.7767615615875993  0.5725953056875043  0.0068778595482394955  1.0000
  Fe  Fe47      1.0  0.7054577684630434  0.4192411450005957  0.06348432327077713  1.0000
  S   S93       1.0  0.665388354420352  0.35851715905223164  0.044187695628468804  1.0000
  Fe  Fe48      1.0  0.7256743603741007  0.35327278817923735  0.6053558428925515  1.0000
  S   S94       1.0  0.7535453997495396  0.29847879465283056  0.6406274800619965  1.0000
  S   S95       1.0  0.7085763288339526  0.5201344476148675  0.07003461655932908  1.0000
  S   S96       1.0  0.7896906973223949  0.49599924524499533  0.08635785889751646  1.0000
  Fe  Fe49      1.0  0.43820588726828613  0.4019531706837082  0.9071493118127623  1.0000
  S   S97       1.0  0.45115997328698443  0.4990686762794154  0.8972973871961907  1.0000
  S   S98       1.0  0.47137511837158313  0.3247828533964506  0.9218172641722497  1.0000
  Fe  Fe50      1.0  0.3638387748815927  0.41951633725504356  0.8963721218472298  1.0000
  S   S99       1.0  0.3690743974994022  0.518071176894661  0.8852716748728275  1.0000
  S   S100      1.0  0.3139238929669549  0.37298699705025196  0.9020021551632885  1.0000
  Fe  Fe51      1.0  0.41449713701622026  0.4898149166535905  0.8579556355471034  1.0000
  S   S101      1.0  0.42337729895692255  0.5411761425796688  0.8138703509586931  1.0000
  Fe  Fe52      1.0  0.4049707174245175  0.5204781258686764  0.9251362688558051  1.0000
  S   S102      1.0  0.40308981595222976  0.5995777323219429  0.9575148998047184  1.0000
  S   S103      1.0  0.40589315211245136  0.3903671050764886  0.8651020969424714  1.0000
  S   S104      1.0  0.3956275518595173  0.42440687137626165  0.9390025009479082  1.0000
  Fe  Fe53      1.0  0.17295097585979385  0.2203388677730345  0.7940787881362698  1.0000
  S   S105      1.0  0.136924038852925  0.1419431183878621  0.7947613667379986  1.0000
  S   S106      1.0  0.15922682875007524  0.3171836426814754  0.7851902987868808  1.0000
  Fe  Fe54      1.0  0.23312001693169648  0.14371105998678368  0.8126946424647243  1.0000
  S   S107      1.0  0.20304299520568556  0.05837725936200977  0.8158880733177943  1.0000
  S   S108      1.0  0.28922690031807596  0.1459980216916663  0.8182168519951293  1.0000
  Fe  Fe55      1.0  0.17910158510962743  0.09107164478843544  0.7721112876744505  1.0000
  S   S109      1.0  0.17415796116245225  0.02718074831106132  0.7326981130676494  1.0000
  Fe  Fe56      1.0  0.16410718998687077  0.11681974306937137  0.8384044216376058  1.0000
  S   S110      1.0  0.13640237938779323  0.08571422087079661  0.8802167346434743  1.0000
  S   S111      1.0  0.21254796087822628  0.17199944160202985  0.7668685679068312  1.0000
  S   S112      1.0  0.19649518572812075  0.1997698996259496  0.8397280003073998  1.0000
  Fe  Fe57      1.0  0.5457391863108308  0.7429069551853495  0.13006341278872413  1.0000
  S   S113      1.0  0.5055809672613867  0.43571291387831057  0.6130517370141322  1.0000
  S   S114      1.0  0.5776719687205569  0.8260737617135894  0.13673108247441768  1.0000
  Fe  Fe58      1.0  0.4736652580809802  0.6962699457642411  0.13402157062903752  1.0000
  S   S115      1.0  0.42493183552172203  0.43858651598300297  0.6297530535049737  1.0000
  S   S116      1.0  0.4191685979744862  0.7214633088746331  0.141941954829079  1.0000
  Fe  Fe59      1.0  0.47376620322937735  0.4551736335719264  0.6544520721685431  1.0000
  S   S117      1.0  0.4859060715769683  0.4065678258452888  0.6987645710254803  1.0000
  Fe  Fe60      1.0  0.5232132504870379  0.6391495937274124  0.08972207493385875  1.0000
  S   S118      1.0  0.5302888097200068  0.5889190161231407  0.045298526499536695  1.0000
  S   S119      1.0  0.4731369115375007  0.5558052173123912  0.647206588995105  1.0000
  S   S120      1.0  0.5042294939694388  0.7344625465170194  0.09492254517436671  1.0000
  Fe  Fe61      1.0  0.26418149539478986  0.49876386715453586  0.042820826588749306  1.0000
  S   S121      1.0  0.2725591169897537  0.42068948652745414  0.0752623651843185  1.0000
  S   S122      1.0  0.27975944271949643  0.498036623669316  0.9930029370328063  1.0000
  Fe  Fe62      1.0  0.19377770724721227  0.6426964871870124  0.5961414271756528  1.0000
  S   S123      1.0  0.19116974813768897  0.542057193557183  0.601057177203417  1.0000
  S   S124      1.0  0.20852993356340147  0.7074015391276417  0.6337080215928393  1.0000
  Fe  Fe63      1.0  0.21493666567770164  0.540563025943598  0.5542793044860753  1.0000
  S   S125      1.0  0.25905184555999144  0.47850288595696633  0.546060977660691  1.0000
  Fe  Fe64      1.0  0.2216106221136471  0.44602859860672806  0.09361582002905333  1.0000
  S   S126      1.0  0.1821881457954966  0.3753654243204964  0.10308342357550249  1.0000
  S   S127      1.0  0.288594831886083  0.5665257472783191  0.07395130006086448  1.0000
  S   S128      1.0  0.21192575462219962  0.5200106097337076  0.0589782347403931  1.0000
  C   C97       1.0  0.39470745739077484  0.6557322597793829  0.14569238272670315  1.0000
  C   C98       1.0  0.36070022958614334  0.6563522676168747  0.1368373501113327  1.0000
  C   C99       1.0  0.34222197642158236  0.602248502077106  0.1363265553832249  1.0000
  C   C100      1.0  0.2928462178782178  0.5078571554193309  0.5680327422273272  1.0000
  C   C101      1.0  0.3255813817838937  0.4842978642700457  0.5651369662976651  1.0000
  C   C102      1.0  0.3524702625162588  0.5098101967642362  0.5819985560173295  1.0000
  H   H65       1.0  0.34895482906893627  0.6981124082602779  0.12928450685557458  1.0000
  H   H66       1.0  0.31597581703949973  0.6030656294544227  0.12957759869442764  1.0000
  H   H67       1.0  0.33025577777506865  0.4467776540874245  0.5497359793621561  1.0000
  H   H68       1.0  0.3776936059394126  0.4917102384765606  0.5794622935178266  1.0000
  C   C103      1.0  0.1628213186934403  0.0909289338725532  0.9124264886984949  1.0000
  C   C104      1.0  0.2296933538308693  0.5308750141453198  0.9131305828063015  1.0000
  C   C105      1.0  0.2552806901418912  0.5199596851252635  0.934927547307295  1.0000
  C   C106      1.0  0.24708481148103228  0.5061082468786641  0.9655512042471822  1.0000
  C   C107      1.0  0.17009486552324185  0.08848622769678773  0.9679312467267975  1.0000
  C   C108      1.0  0.14951381875890235  0.08128563364322372  0.9418372226434467  1.0000
  H   H69       1.0  0.23638185630757838  0.541673656583539  0.8897134820411922  1.0000
  H   H70       1.0  0.28152617168308375  0.5226851575761882  0.9280792879174682  1.0000
  H   H71       1.0  0.15982904272015036  0.08216152792177067  0.9907514594517802  1.0000
  H   H72       1.0  0.12314994969299202  0.06945464180419014  0.9442901140052036  1.0000
  C   C109      1.0  0.17062171150820832  0.07124788181041741  0.6993143680316393  1.0000
  C   C110      1.0  0.23819006130622938  0.5853275238415118  0.698526157895589  1.0000
  C   C111      1.0  0.22990202543084773  0.6118932318005917  0.6700296455255983  1.0000
  C   C112      1.0  0.22332388981765697  0.6740716145010215  0.6680704748556437  1.0000
  C   C113      1.0  0.15351855207346204  0.16434330768462413  0.6737325999246625  1.0000
  C   C114      1.0  0.15658904432305312  0.12943662445142268  0.7006847906245615  1.0000
  H   H73       1.0  0.2422162622674824  0.5369250853263996  0.7000503103350556  1.0000
  H   H74       1.0  0.22853917983815097  0.5841186918118674  0.6497160622951911  1.0000
  H   H75       1.0  0.14199672101525437  0.208756768421768  0.674655506870851  1.0000
  H   H76       1.0  0.14768444690880192  0.147173012903977  0.7224279045251919  1.0000
  C   C115      1.0  0.43798189294939904  0.5963755691603989  0.982388059617297  1.0000
  C   C116      1.0  0.4441159905808505  0.6437449279910765  0.0030405757044240644  1.0000
  C   C117      1.0  0.4722204335770461  0.6413541843493706  0.02284193290203973  1.0000
  C   C118      1.0  0.4942589480720185  0.5917917340608643  0.02181878726272579  1.0000
  C   C119      1.0  0.4877226045666238  0.5440446953549849  0.0015431219886672398  1.0000
  C   C120      1.0  0.4597591097807372  0.546459561172845  0.981689023708077  1.0000
  H   H77       1.0  0.427288004573712  0.6823844747478436  0.0036979315881768837  1.0000
  H   H78       1.0  0.47712887435916645  0.6783185100981888  0.03850096817001436  1.0000
  H   H79       1.0  0.5039792850950093  0.5046529991490595  0.001690117618689424  1.0000
  H   H80       1.0  0.4548364794350127  0.5091890841258258  0.9662130715317829  1.0000
  C   C121      1.0  0.44271913912461347  0.5028860767901671  0.7831725546557043  1.0000
  C   C122      1.0  0.44959515157801655  0.44073562360382607  0.7844561592763094  1.0000
  C   C123      1.0  0.46353947071364054  0.41134966014732616  0.7586659041696646  1.0000
  C   C124      1.0  0.47012673124616267  0.44393510200647  0.7315201488129675  1.0000
  C   C125      1.0  0.46388549884058133  0.5062103432149972  0.7306487617709513  1.0000
  C   C126      1.0  0.4505127485813459  0.5356383991297448  0.7564747457830482  1.0000
  H   H81       1.0  0.4438888105153056  0.4153431421669403  0.8051222914989659  1.0000
  H   H82       1.0  0.46859305745696006  0.3632240817090773  0.7595107933731367  1.0000
  H   H83       1.0  0.4695978154345403  0.5319900497626541  0.7102289867574723  1.0000
  H   H84       1.0  0.44599931846515234  0.5839223008891954  0.7557298395067356  1.0000
  C   C127      1.0  0.30944658858729474  0.3072232563686805  0.8801057317195541  1.0000
  C   C128      1.0  0.329796616945643  0.2969036351989415  0.8543404179258008  1.0000
  C   C129      1.0  0.32473591374242144  0.24532729985897303  0.8361902981459881  1.0000
  C   C130      1.0  0.2988492358477113  0.20486290700730006  0.843485905634505  1.0000
  C   C131      1.0  0.2789312146404114  0.21447504248199759  0.869601443267229  1.0000
  C   C132      1.0  0.2843423089591684  0.2655225952955363  0.8880209838863629  1.0000
  H   H85       1.0  0.3483970449226914  0.3297523001345343  0.8475629248045607  1.0000
  H   H86       1.0  0.3397897919895781  0.23823999049878278  0.8157087660926274  1.0000
  H   H87       1.0  0.25930654690265087  0.182559131589888  0.8755570867463172  1.0000
  H   H88       1.0  0.2686393324812515  0.2733424462949988  0.9080234519179314  1.0000
  C   C133      1.0  0.6226204332528341  0.3729972060975892  0.0510666436085252  1.0000
  C   C134      1.0  0.5991697349206881  0.32998682678602226  0.04110935991249165  1.0000
  C   C135      1.0  0.6321351783451963  0.7690165316738414  0.10974025489377826  1.0000
  C   C136      1.0  0.619784010955407  0.8210068388025089  0.1243118952167177  1.0000
  C   C137      1.0  0.5976347598560862  0.6616222796293039  0.6024671884228536  1.0000
  C   C138      1.0  0.6095370648303723  0.7140304373784483  0.6171273516973076  1.0000
  H   H89       1.0  0.6076791838221574  0.28913993111377717  0.029735566702489002  1.0000
  H   H90       1.0  0.6155167955106122  0.7318008653834863  0.10482070103215912  1.0000
  H   H91       1.0  0.6138777334079101  0.6373825035690401  0.5866703726141996  1.0000
  H   H92       1.0  0.6349348914371359  0.7295636348368968  0.6128394960708509  1.0000
  C   C139      1.0  0.10746150418941025  0.3999811392446928  0.02424773158601856  1.0000
  C   C140      1.0  0.09633846205159578  0.37610734957031666  0.052384086808635155  1.0000
  C   C141      1.0  0.11947656182324454  0.36642467496314124  0.07651087496797127  1.0000
  C   C142      1.0  0.15371730067438155  0.37941303891455563  0.07215964706971167  1.0000
  C   C143      1.0  0.05844615413400667  0.40149722948791444  0.5831665258327522  1.0000
  C   C144      1.0  0.04360439150865236  0.3584635799712264  0.5636321963218139  1.0000
  H   H93       1.0  0.06978244948885837  0.36686594741141465  0.05587229522393056  1.0000
  H   H94       1.0  0.11072962214007603  0.3507768198122259  0.09871549403498547  1.0000
  H   H95       1.0  0.05339085530705834  0.40026766964257404  0.6076978059641054  1.0000
  H   H96       1.0  0.027330417004369334  0.3241267224330414  0.5731988933979816  1.0000
  C   C145      1.0  0.8890188896528066  0.32913420712727304  0.0012219757345639515  1.0000
  C   C146      1.0  0.8546747336882721  0.3419895026943641  0.9978374704397651  1.0000
  C   C147      1.0  0.8334682500765663  0.3404828377693208  0.02361036349558132  1.0000
  C   C148      1.0  0.7966062514497646  0.2986117025301618  0.6311486306220461  1.0000
  C   C149      1.0  0.8208078467210971  0.2895829865091115  0.6542987828843225  1.0000
  C   C150      1.0  0.8552783967509523  0.2947013523664176  0.6474103961601965  1.0000
  H   H97       1.0  0.8444082492413272  0.3529570102011663  0.975332235029693  1.0000
  H   H98       1.0  0.8069071731126786  0.34844904774711927  0.02059123457296841  1.0000
  H   H99       1.0  0.8129147924442057  0.28034623873071063  0.6777249959356123  1.0000
  H   H100      1.0  0.8739505437396977  0.2894105812308355  0.6655208735374342  1.0000
  C   C151      1.0  0.6148351732277716  0.8335397993207829  0.8297310872367694  1.0000
  C   C152      1.0  0.6057461034724259  0.7910088742258178  0.8521709454688567  1.0000
  C   C153      1.0  0.5347311033752651  0.2791402997745309  0.9139539783054234  1.0000
  C   C154      1.0  0.5123175171708271  0.32629572372357546  0.906819450775765  1.0000
  C   C155      1.0  0.568564629683949  0.8984597669840029  0.8460502724327911  1.0000
  C   C156      1.0  0.5970597879507574  0.8882683126963236  0.8275573095693622  1.0000
  H   H101      1.0  0.6196407670176411  0.7490048517667801  0.8543083698299065  1.0000
  H   H102      1.0  0.5266543522288851  0.24233973015576324  0.9287479654970375  1.0000
  H   H103      1.0  0.5543421863406655  0.9401104175243381  0.8436062418697098  1.0000
  H   H104      1.0  0.6050410843968402  0.9223631498052544  0.8111863850223077  1.0000
  C   C157      1.0  0.6956054661763  0.5840541835081825  0.9325939361081692  1.0000
  C   C158      1.0  0.688909515707279  0.5556457180848879  0.9607414422839896  1.0000
  C   C159      1.0  0.7142500289384277  0.5505336579413749  0.9831008109300242  1.0000
  C   C160      1.0  0.746192608851376  0.5750411546047535  0.9777205909624042  1.0000
  C   C161      1.0  0.7531111161989148  0.6033487949323895  0.9495231766761058  1.0000
  C   C162      1.0  0.7278230821370858  0.6075354227252231  0.926824649718605  1.0000
  H   H105      1.0  0.6641312061877177  0.5378206363257221  0.9654847919894565  1.0000
  H   H106      1.0  0.7088323617741656  0.5280793068071501  0.004636059235084922  1.0000
  H   H107      1.0  0.7778800773971895  0.6222497564140202  0.9452764580362533  1.0000
  H   H108      1.0  0.7331546553344557  0.6297336284521128  0.905128722889108  1.0000
  C   C163      1.0  0.6961469246990013  0.5384869961083235  0.7243800389109933  1.0000
  C   C164      1.0  0.7031790880601453  0.4907266727167623  0.7042476708608715  1.0000
  C   C165      1.0  0.7015664249265328  0.4996994661219874  0.6723125897025732  1.0000
  C   C166      1.0  0.6923122834486729  0.5561734591463067  0.6603239891345448  1.0000
  C   C167      1.0  0.6860870971464167  0.6045200037388889  0.6804026412656564  1.0000
  C   C168      1.0  0.6882382400391651  0.5957934403189272  0.7124976350982937  1.0000
  H   H109      1.0  0.7092560743030862  0.4463375763804513  0.7133711756563185  1.0000
  H   H110      1.0  0.7068659236591442  0.46241517234057694  0.6570300877584854  1.0000
  H   H111      1.0  0.6789455717885478  0.648363293319447  0.671181001433748  1.0000
  H   H112      1.0  0.6826300004042165  0.6328191236728207  0.7279641309755815  1.0000
  C   C169      1.0  0.12576982808863738  0.3387823624562518  0.8090021970676082  1.0000
  C   C170      1.0  0.10991522629068036  0.29631421682779363  0.8280033284121795  1.0000
  C   C171      1.0  0.08112857628349013  0.3127497762353381  0.8447824214808891  1.0000
  C   C172      1.0  0.06813091165254526  0.3715130548922445  0.8425672038613452  1.0000
  C   C173      1.0  0.08532430212491837  0.41476351789141197  0.825032536291993  1.0000
  C   C174      1.0  0.1139033327461727  0.3983521867907586  0.8080211116428612  1.0000
  H   H113      1.0  0.11908508128431078  0.25028371771493907  0.8290832000738757  1.0000
  H   H114      1.0  0.06808496462755165  0.2790687793762363  0.8582405481558955  1.0000
  H   H115      1.0  0.07669687072729703  0.4608884859097174  0.8243923900971067  1.0000
  H   H116      1.0  0.1264120207223729  0.4316435498482929  0.7936937989501386  1.0000
  C   C175      1.0  0.96645378219604  0.6739462548770222  0.8760674985166464  1.0000
  C   C176      1.0  0.006328505971537446  0.2184803099938003  0.8559384753002733  1.0000
  C   C177      1.0  0.0179091699657008  0.21256574926243973  0.8864439903639507  1.0000
  C   C178      1.0  0.028121926992030755  0.1560798257031606  0.8978775119476955  1.0000
  C   C179      1.0  0.9691564747224851  0.7120555069867635  0.9282519795133933  1.0000
  C   C180      1.0  0.9832624963645706  0.7065919451239552  0.8988975792678757  1.0000
  H   H117      1.0  0.9988983605270808  0.26243390598857347  0.8472663509744712  1.0000
  H   H118      1.0  0.019508420425657924  0.2521449163946228  0.9007460825519958  1.0000
  H   H119      1.0  0.9825627977064586  0.7372564531465664  0.9455233577136817  1.0000
  H   H120      1.0  0.007158317379702961  0.7280811560796258  0.8938996008923874  1.0000
  C   C181      1.0  0.995140605948034  0.5309332653986565  0.6897903404393102  1.0000
  C   C182      1.0  0.008110502780960038  0.5577890372967914  0.6630815261141239  1.0000
  C   C183      1.0  0.9716160735330326  0.9534102032313827  0.60789454104581  1.0000
  C   C184      1.0  0.9662180777526351  0.015325295035136357  0.6034954003805667  1.0000
  C   C185      1.0  0.9383481967867333  0.5557544945462117  0.6729577564589991  1.0000
  C   C186      1.0  0.9602352957683266  0.5289795484356665  0.694455916725735  1.0000
  H   H121      1.0  0.9750071944748823  0.8803899632333988  0.6405178591890266  1.0000
  H   H122      1.0  0.9775214577173837  0.9246927876812027  0.5883973222444787  1.0000
  H   H123      1.0  0.9113865387650405  0.5548249835669826  0.6767978401508292  1.0000
  H   H124      1.0  0.9500664441118978  0.5064847182699461  0.7145392619548823  1.0000
  C   C187      1.0  0.8549595116058292  0.5324408389079397  0.8012257380184546  1.0000
  C   C188      1.0  0.8723774512904362  0.5789374863433225  0.8163016244688631  1.0000
  C   C189      1.0  0.8556481118116921  0.6324526699584956  0.8246938294435464  1.0000
  C   C190      1.0  0.8213937845964919  0.6400692829061723  0.8176930838230922  1.0000
  C   C191      1.0  0.8043329315351508  0.5947725682171601  0.8012428373000308  1.0000
  C   C192      1.0  0.8209293931553598  0.5406723788687642  0.7934088813059247  1.0000
  H   H125      1.0  0.8986365147332485  0.5732189975504602  0.8221059947203962  1.0000
  H   H126      1.0  0.8690823662041093  0.6672047475849506  0.8372343715703818  1.0000
  H   H127      1.0  0.7783581221599529  0.6014177671995077  0.7943863591856134  1.0000
  H   H128      1.0  0.80739332029904  0.5054111285603753  0.7813113599243208  1.0000
  Fe  Fe65      1.0  0.970631440609137  0.2050431357255813  0.3053334589329062  1.0000
  S   S129      1.0  0.977410391327622  0.10449553517180443  0.3071062784540946  1.0000
  S   S130      1.0  0.9808041842535064  0.26163764675357637  0.34737262558359505  1.0000
  Fe  Fe66      1.0  0.944047320095991  0.2040188775112779  0.23927873370358696  1.0000
  S   S131      1.0  0.9471399718474386  0.10262267568783878  0.2363246666524922  1.0000
  S   S132      1.0  0.9269608861094777  0.26360961021299123  0.19961226532770235  1.0000
  Fe  Fe67      1.0  0.9265870150379477  0.10247517447032717  0.28434165077147366  1.0000
  S   S133      1.0  0.8897272930955681  0.03405716218683419  0.3025168190191783  1.0000
  Fe  Fe68      1.0  0.9976721511337235  0.11474241631650228  0.25912007233645185  1.0000
  S   S134      1.0  0.04141028815392511  0.0638934826199209  0.23868036486185532  1.0000
  S   S135      1.0  0.9184740988744998  0.20274622272830034  0.2854706685206028  1.0000
  S   S136      1.0  0.9959216458719549  0.21619919367368845  0.25929501862193516  1.0000
  Fe  Fe69      1.0  0.6431335748898108  0.06512854632958942  0.38197436248978733  1.0000
  S   S137      1.0  0.6420631680230874  0.9657820341764318  0.3715938007192013  1.0000
  S   S138      1.0  0.6032436138551438  0.11667440255560524  0.4074695673754202  1.0000
  Fe  Fe70      1.0  0.7135253569825311  0.08130868676618519  0.3564208926480744  1.0000
  S   S139      1.0  0.7192654430473808  0.9832473042327985  0.3444325844557158  1.0000
  S   S140      1.0  0.7522091919993568  0.1517864593373417  0.3452050189589909  1.0000
  Fe  Fe71      1.0  0.6663658407818952  0.9917719860547826  0.3267021766534924  1.0000
  S   S141      1.0  0.6555751835207178  0.9443871599739797  0.28191937124888755  1.0000
  Fe  Fe72      1.0  0.6949262360619026  0.9661197734036231  0.3902459840583326  1.0000
  S   S142      1.0  0.7090738161599895  0.8890505578597576  0.42170645398905326  1.0000
  S   S143      1.0  0.6621738443360936  0.09157156599023053  0.33528970959024423  1.0000
  S   S144      1.0  0.6942074586339742  0.06400367849042365  0.4040180142003843  1.0000
  Fe  Fe73      1.0  0.003739384130784007  0.7024165882176502  0.05597975778235531  1.0000
  S   S145      1.0  0.03805464155688654  0.78136306908099  0.048851561117843945  1.0000
  S   S146      1.0  0.016406570231387585  0.635810428086801  0.0931537426598849  1.0000
  Fe  Fe74      1.0  0.9744201743202922  0.699450876588852  0.5229663852196329  1.0000
  S   S147      1.0  0.9790078452439018  0.8001792998315354  0.5264272036780817  1.0000
  S   S148      1.0  0.9890334495531982  0.6464165554612435  0.4812807639236137  1.0000
  Fe  Fe75      1.0  0.001013640210552058  0.7805010139611925  0.5732013143184755  1.0000
  S   S149      1.0  0.04827788684589018  0.8245115962561163  0.591110710502136  1.0000
  Fe  Fe76      1.0  0.929292423866025  0.795113516852951  0.5509028218249804  1.0000
  S   S150      1.0  0.8855498814031614  0.8579305040347797  0.5435292387076599  1.0000
  S   S151      1.0  0.0035254650410510013  0.675850628575962  0.006437895480951417  1.0000
  S   S152      1.0  0.9223480450618423  0.6960403495218654  0.5423955660354917  1.0000
  Fe  Fe77      1.0  0.7433502525952761  0.02128554673018579  0.13517950193831074  1.0000
  S   S153      1.0  0.7652059456708332  0.9318663860896484  0.14937177460363268  1.0000
  S   S154      1.0  0.7127416988656928  0.0824784461622674  0.16540209096095837  1.0000
  Fe  Fe78      1.0  0.6919466477410258  0.9265811237523032  0.5949445642615593  1.0000
  S   S155      1.0  0.6787656649753854  0.8277832946758734  0.5947425959963534  1.0000
  S   S156      1.0  0.6934508954738328  0.9927787114732851  0.5557499744300218  1.0000
  Fe  Fe79      1.0  0.653229687569443  0.8478714751225187  0.6398930513918386  1.0000
  S   S157      1.0  0.6018377422167015  0.8142477320294532  0.6541146474662475  1.0000
  Fe  Fe80      1.0  0.8134146893521227  0.9660668634378331  0.12869372853124844  1.0000
  S   S158      1.0  0.8629109370073721  0.9664711612402491  0.1539154717565345  1.0000
  S   S159      1.0  0.6622786485344009  0.9483120030266353  0.6374011729382334  1.0000
  S   S160      1.0  0.7406602111079682  0.9145117663437576  0.6202984746255886  1.0000
  Fe  Fe81      1.0  0.5019551064814948  0.8650791571030957  0.29743871122854093  1.0000
  S   S161      1.0  0.4908775454816524  0.9648683509026365  0.298173052743604  1.0000
  S   S162      1.0  0.5508654015401889  0.8233030816337151  0.28257889939910824  1.0000
  Fe  Fe82      1.0  0.4312052031473669  0.8287697634224782  0.3144280313109881  1.0000
  S   S163      1.0  0.4134584130971081  0.924591542708991  0.3175279022714496  1.0000
  S   S164      1.0  0.39453197192977163  0.7525593256084402  0.32087303485142954  1.0000
  Fe  Fe83      1.0  0.4426898959580552  0.9392842578652613  0.2741251408190511  1.0000
  S   S165      1.0  0.41609020159961746  0.9876308443209365  0.23532268148493218  1.0000
  Fe  Fe84      1.0  0.4625228764461447  0.9425457929587453  0.3414926426738618  1.0000
  S   S166      1.0  0.46029667991490164  0.005996438154922679  0.3817581533276711  1.0000
  S   S167      1.0  0.45659678546562077  0.8415785413279944  0.26895021035270755  1.0000
  S   S168      1.0  0.47764632062192025  0.8446105706529266  0.3429908193763602  1.0000
  Fe  Fe85      1.0  0.14779313399820762  0.8169677303368054  0.3095499390791326  1.0000
  S   S169      1.0  0.1367724948113352  0.7175772509937833  0.31001620596168034  1.0000
  S   S170      1.0  0.11210573459003247  0.8832214090305895  0.3320015739894566  1.0000
  Fe  Fe86      1.0  0.21527329453192573  0.8000299599135774  0.27820362179368124  1.0000
  S   S171      1.0  0.21039561359872014  0.6995031672940528  0.2756238698512908  1.0000
  S   S172      1.0  0.2602239426335626  0.8471598864921227  0.25856283566945026  1.0000
  Fe  Fe87      1.0  0.15700738052028432  0.7187565686367324  0.2618572486356742  1.0000
  S   S173      1.0  0.13319967126736315  0.6621331061186511  0.2251155282376095  1.0000
  Fe  Fe88      1.0  0.1909274559717011  0.7066690729907903  0.3239920698012457  1.0000
  S   S174      1.0  0.20554698780188632  0.6351062936540691  0.3584497642684274  1.0000
  S   S175      1.0  0.16348134843250528  0.8193479885045367  0.2597464377076375  1.0000
  S   S176      1.0  0.20065047478957712  0.8063777202473965  0.32797347135289656  1.0000
  Fe  Fe89      1.0  0.5228997573342616  0.04878451118186611  0.5900863698984395  1.0000
  S   S177      1.0  0.5205545943279866  0.22469095049799703  0.08163388959149666  1.0000
  S   S178      1.0  0.56203058464439  0.10740132400781133  0.6125666761298693  1.0000
  Fe  Fe90      1.0  0.4542710603662323  0.04401377866572531  0.5590368073212052  1.0000
  S   S179      1.0  0.44998841741463563  0.14771285457859196  0.08603022825425242  1.0000
  S   S180      1.0  0.4146532261412295  0.10527372478755437  0.5390778989529394  1.0000
  Fe  Fe91      1.0  0.4819328217338261  0.2043359244607441  0.11776294707604987  1.0000
  S   S181      1.0  0.501037880336583  0.18691873702420403  0.1659339233751153  1.0000
  Fe  Fe92      1.0  0.5074864518513509  0.9519806713131258  0.5426931255553674  1.0000
  S   S182      1.0  0.5288347608271204  0.9011453570213565  0.502473767163224  1.0000
  S   S183      1.0  0.4520815809433603  0.2891424322451843  0.11009001743443053  1.0000
  S   S184      1.0  0.5067370986789478  0.05312146599491685  0.5407374936204463  1.0000
  Fe  Fe93      1.0  0.2071541674650638  0.15446554477683616  0.506940923221666  1.0000
  S   S185      1.0  0.21162131301451598  0.05514819942039484  0.4961599551661475  1.0000
  S   S186      1.0  0.21842849257926553  0.23011379175972224  0.4736759469599727  1.0000
  Fe  Fe94      1.0  0.18087090439048212  0.9842912720728939  0.08300073040550436  1.0000
  S   S187      1.0  0.21829950472318646  0.9088112991177751  0.08946868909128346  1.0000
  S   S188      1.0  0.13830466207895842  0.9981288339202151  0.11657068645814131  1.0000
  Fe  Fe95      1.0  0.25705565950828585  0.981714926493621  0.08302363234324753  1.0000
  S   S189      1.0  0.30353565792764226  0.9957030005196118  0.11176525163462228  1.0000
  Fe  Fe96      1.0  0.15968111049795786  0.04899538597951536  0.5164926834420912  1.0000
  S   S190      1.0  0.11695129120506682  0.9982764589974751  0.4941740074792318  1.0000
  S   S191      1.0  0.23026909459299663  0.14668163586087624  0.5540823092659574  1.0000
  S   S192      1.0  0.1538622142296789  0.14879015160515907  0.5236681167650331  1.0000
  C   C193      1.0  0.37465190771537843  0.07325796301419651  0.5452834732250247  1.0000
  C   C194      1.0  0.3459980898355275  0.0982905276928252  0.5310976838774747  1.0000
  C   C195      1.0  0.3141648718660719  0.071585988839163  0.5354268209554397  1.0000
  C   C196      1.0  0.3215714894122062  0.06450311366001737  0.1000943311947571  1.0000
  C   C197      1.0  0.3494993613087223  0.08823246268038476  0.11579595220419445  1.0000
  C   C198      1.0  0.36349895385916364  0.14366771127607536  0.1064152292074152  1.0000
  H   H129      1.0  0.34841480185966756  0.13795047142965822  0.516597564789637  1.0000
  H   H130      1.0  0.29216965438919  0.09058087630822254  0.5241439935095299  1.0000
  H   H131      1.0  0.3603760175808172  0.06379413976445703  0.13506885055227077  1.0000
  H   H132      1.0  0.3850658310796966  0.16193031424992044  0.1185805528621821  1.0000
  C   C199      1.0  0.19313205013154913  0.6549776539806358  0.3958838465280195  1.0000
  C   C200      1.0  0.18298855965996916  0.2333717621242266  0.38567605525995496  1.0000
  C   C201      1.0  0.1999481467708325  0.2492184241103894  0.41305290623556423  1.0000
  C   C202      1.0  0.19768173185484572  0.21167922170271702  0.43908880993912924  1.0000
  C   C203      1.0  0.1693303285204662  0.7278343144851113  0.43147953173489556  1.0000
  C   C204      1.0  0.17948860589270674  0.7122430188237605  0.4016257371178591  1.0000
  H   H133      1.0  0.18418959372790641  0.26285202285656206  0.36576132199021805  1.0000
  H   H134      1.0  0.21451167236409438  0.29052856475917843  0.41399017081236694  1.0000
  H   H135      1.0  0.15963804795066056  0.7727077045081161  0.4358749134595285  1.0000
  H   H136      1.0  0.17685647431585375  0.7446590063219929  0.3830909478887262  1.0000
  C   C205      1.0  0.15692484663336614  0.6656057677575932  0.19119166294256054  1.0000
  C   C206      1.0  0.21003965340392  0.05924619288939725  0.17462234295211282  1.0000
  C   C207      1.0  0.19290703029554712  0.025506221658171402  0.1523314832319458  1.0000
  C   C208      1.0  0.15796904509024956  0.03143708371949394  0.14869633021021028  1.0000
  C   C209      1.0  0.19738829630921775  0.7172922614458437  0.1585404477186991  1.0000
  C   C210      1.0  0.1792575841269344  0.7136432299285972  0.1862137843556576  1.0000
  H   H137      1.0  0.2372575271268787  0.055507058438009516  0.1765237822947473  1.0000
  H   H138      1.0  0.20706911493658772  0.9955426899812821  0.13761351713247313  1.0000
  H   H139      1.0  0.2145256289218835  0.754657594950987  0.15459257954671393  1.0000
  H   H140      1.0  0.18244970190840942  0.7482226296294502  0.20356543013388384  1.0000
  C   C211      1.0  0.47874846409590843  0.9736865196964093  0.41480963804903376  1.0000
  C   C212      1.0  0.5067463733243466  0.9350838760647682  0.4126576291036996  1.0000
  C   C213      1.0  0.5218894185282664  0.9118214656460947  0.43959724782233317  1.0000
  C   C214      1.0  0.5090128996571174  0.9272010340406664  0.46862160168975453  1.0000
  C   C215      1.0  0.4808045711537949  0.9651844605784314  0.47063967623421105  1.0000
  C   C216      1.0  0.4656224866794349  0.9880114362097177  0.4437929325580216  1.0000
  H   H141      1.0  0.5171140790488734  0.924107417755986  0.3902883367034257  1.0000
  H   H142      1.0  0.5437616399957739  0.8825819101664715  0.4379027972964525  1.0000
  H   H143      1.0  0.4702563797208859  0.9764122333564981  0.4928449310871517  1.0000
  H   H144      1.0  0.44311280685146714  0.015566119446442928  0.4454273554656633  1.0000
  C   C217      1.0  0.4384876132951369  0.046352315637681274  0.2174018229617285  1.0000
  C   C218      1.0  0.4675411224900381  0.07054045935694075  0.23095580782796926  1.0000
  C   C219      1.0  0.48615842516282864  0.1151596657346321  0.21545240585055103  1.0000
  C   C220      1.0  0.47587189986192746  0.13522833205533602  0.18622400758107074  1.0000
  C   C221      1.0  0.44605652873742124  0.11279185075153308  0.1732419495505837  1.0000
  C   C222      1.0  0.42726098589255646  0.06870469487050945  0.18891587367030166  1.0000
  H   H145      1.0  0.47587599280745885  0.054717274733265375  0.2532577806977998  1.0000
  H   H146      1.0  0.5088559814327058  0.13336015797746836  0.2258466812777673  1.0000
  H   H147      1.0  0.4375430256071197  0.1290660573514837  0.15103955463983418  1.0000
  H   H148      1.0  0.40433994010594526  0.0512896405512695  0.1786255607548552  1.0000
  C   C223      1.0  0.3571206173083788  0.7759979955174028  0.3026827415062468  1.0000
  C   C224      1.0  0.3581900576207092  0.8221956050362339  0.28057948328941085  1.0000
  C   C225      1.0  0.3283175630461057  0.8439025114437181  0.26720773686972726  1.0000
  C   C226      1.0  0.29726480616318557  0.8188604479052434  0.2754735051667551  1.0000
  C   C227      1.0  0.2961148133945953  0.7717221145200348  0.29712856394946596  1.0000
  C   C228      1.0  0.3260900585253938  0.7502301552475663  0.3107240242142459  1.0000
  H   H149      1.0  0.3820203698971793  0.8418786509068802  0.2739670260192415  1.0000
  H   H150      1.0  0.32925687344432475  0.8809810201642626  0.25093741226309924  1.0000
  H   H151      1.0  0.27213951333839204  0.7527631940553432  0.30400360069257953  1.0000
  H   H152      1.0  0.3250942248647323  0.7151115059448185  0.3281528146299062  1.0000
  C   C229      1.0  0.5884829518232135  0.7461937291549761  0.637108967401244  1.0000
  C   C230      1.0  0.5559341204301814  0.7243920821242623  0.6432580894969546  1.0000
  C   C231      1.0  0.5647462912545628  0.18343095854868885  0.5621451246854439  1.0000
  C   C232      1.0  0.5772951984335101  0.16921776951288847  0.5915055451644156  1.0000
  C   C233      1.0  0.5766447557213622  0.43597176625540124  0.06960456665863791  1.0000
  C   C234      1.0  0.6114721106678892  0.4262085832552396  0.06532350821537905  1.0000
  H   H153      1.0  0.5394089269437632  0.7490754027530141  0.6585394072833431  1.0000
  H   H154      1.0  0.5449644159058383  0.15658777944276414  0.5520388624208878  1.0000
  H   H155      1.0  0.5678491314325833  0.47706011553882366  0.08058447537711831  1.0000
  H   H156      1.0  0.6295450003504051  0.45987285650163123  0.0727958005588639  1.0000
  C   C235      1.0  0.06748020073782235  0.8695114648602972  0.5627651226056896  1.0000
  C   C236      1.0  0.10243261843364057  0.8787108491371085  0.5636626194296759  1.0000
  C   C237      1.0  0.11775251060892661  0.9179260770593711  0.5424364494286422  1.0000
  C   C238      1.0  0.09823336359230833  0.9475695699057476  0.5200921799322868  1.0000
  C   C239      1.0  0.1500794218509116  0.8198316764542201  0.013309699753626614  1.0000
  C   C240      1.0  0.11780429428117345  0.8038185733613765  0.002754122844660589  1.0000
  H   H157      1.0  0.11760502452335636  0.8557310350069415  0.5809112753062916  1.0000
  H   H158      1.0  0.1446898236758377  0.9247830783565999  0.5431580813018615  1.0000
  H   H159      1.0  0.15280026288480064  0.8484348549094142  0.03336874679125491  1.0000
  H   H160      1.0  0.09571503794600944  0.8213554923801392  0.014223720724465096  1.0000
  C   C241      1.0  0.8511010466611714  0.8246776232298361  0.5623089368331395  1.0000
  C   C242      1.0  0.8564002724252957  0.7756155538542119  0.5822283284437665  1.0000
  C   C243      1.0  0.8293430993142702  0.7498817802166178  0.598182849001231  1.0000
  C   C244      1.0  0.8975683312462961  0.9512684768641552  0.12987201009654484  1.0000
  C   C245      1.0  0.9286001951316137  0.979030624890815  0.13606254574974247  1.0000
  C   C246      1.0  0.9559761726876137  0.9707001176468056  0.11604916652623236  1.0000
  H   H161      1.0  0.8814393739702253  0.7579055313406103  0.585981047450031  1.0000
  H   H162      1.0  0.8338148990412867  0.7126596139209401  0.6139934810194759  1.0000
  H   H163      1.0  0.9312903996535918  0.008143238318629065  0.15598005913175778  1.0000
  H   H164      1.0  0.9796916130347552  0.9933478063510337  0.12062408218617698  1.0000
  C   C247      1.0  0.5740869175484127  0.1479084758127185  0.38157650815700117  1.0000
  C   C248      1.0  0.556288920098758  0.20022241826709242  0.3897766992771287  1.0000
  C   C249      1.0  0.570959714573783  0.7078109699445638  0.29494810739107247  1.0000
  C   C250      1.0  0.5610914085750477  0.7634669049379225  0.30731900784113714  1.0000
  C   C251      1.0  0.547036051385232  0.1493613895455097  0.33130250028607444  1.0000
  C   C252      1.0  0.569520668145886  0.12247234509987415  0.3523361510830629  1.0000
  H   H165      1.0  0.5604787378246219  0.22067171414279096  0.4121089598394902  1.0000
  H   H166      1.0  0.5721365995907381  0.7019898470966855  0.2701855871692512  1.0000
  H   H167      1.0  0.5432707303096801  0.12934240744458703  0.30878109198685355  1.0000
  H   H168      1.0  0.5830793619263877  0.08175546569794978  0.3460403433708548  1.0000
  C   C253      1.0  0.7092812126127648  0.9143491781690862  0.45998782367191937  1.0000
  C   C254      1.0  0.697730213284692  0.8766454666117325  0.4837408318835086  1.0000
  C   C255      1.0  0.6941369984148488  0.8995854427857756  0.513763517584905  1.0000
  C   C256      1.0  0.7020837950940262  0.9601390037910579  0.5198727495171019  1.0000
  C   C257      1.0  0.7150142688745319  0.9967918845674648  0.49640668605724875  1.0000
  C   C258      1.0  0.7189141563131881  0.9737166999492307  0.4666151710364246  1.0000
  H   H169      1.0  0.6903215940013081  0.8305997415583478  0.4786796811617808  1.0000
  H   H170      1.0  0.6838789011655272  0.8712430178872568  0.5317403043877836  1.0000
  H   H171      1.0  0.7217707567294093  0.04330035273661381  0.5011927031407634  1.0000
  H   H172      1.0  0.7296462748978322  0.0017876232188527297  0.4488025052929929  1.0000
  C   C259      1.0  0.671468160378463  0.9829089261685979  0.249596781442165  1.0000
  C   C260      1.0  0.6789333350079049  0.044699107550814965  0.2511293184344607  1.0000
  C   C261      1.0  0.6908581133110201  0.07533583233455543  0.22497432434413916  1.0000
  C   C262      1.0  0.6961869496561119  0.04393874568853562  0.1974025236243654  1.0000
  C   C263      1.0  0.6892013605432129  0.9819217256877713  0.19593113202008902  1.0000
  C   C264      1.0  0.6764134776567172  0.9516194772651917  0.22189209900195964  1.0000
  H   H173      1.0  0.6752391102198095  0.06911319766720125  0.2723399607203747  1.0000
  H   H174      1.0  0.6964932054667059  0.12320572459582113  0.22624469965495184  1.0000
  H   H175      1.0  0.6931605643948313  0.9574926294384879  0.1746611168016974  1.0000
  H   H176      1.0  0.6706830630824122  0.9037958161206922  0.2205762507664505  1.0000
  C   C265      1.0  0.09276891530867191  0.9337705088406756  0.3060285214403628  1.0000
  C   C266      1.0  0.07679976351041407  0.9859691692776152  0.31714919305939016  1.0000
  C   C267      1.0  0.061131477230655484  0.026542993090047817  0.29658602382203  1.0000
  C   C268      1.0  0.06168025693398893  0.015199335335333242  0.26484832874893544  1.0000
  C   C269      1.0  0.07774415487024222  0.9632319363703713  0.2537413012270935  1.0000
  C   C270      1.0  0.09284546816385686  0.9221918178983003  0.2743229624033758  1.0000
  H   H177      1.0  0.07680472552225814  0.9953497622347877  0.3416478253714949  1.0000
  H   H178      1.0  0.04932522038941589  0.06725035605973884  0.30523863286537856  1.0000
  H   H179      1.0  0.07789260555286082  0.9542562633752146  0.2292198780114292  1.0000
  H   H180      1.0  0.10376712363568497  0.8809799731294685  0.2656878659306316  1.0000
  C   C271      1.0  0.9555211289196431  0.2412361226827031  0.37898994955747256  1.0000
  C   C272      1.0  0.9681327454871161  0.6841987597426944  0.3921632158978442  1.0000
  C   C273      1.0  0.9807185215670103  0.6567834223603283  0.4190285726879296  1.0000
  C   C274      1.0  0.9716045810553797  0.6791328672963822  0.44798294796876886  1.0000
  C   C275      1.0  0.9410296786995774  0.25367588090484694  0.43309031086695854  1.0000
  C   C276      1.0  0.9604501999615919  0.2700824789666727  0.4073676016462967  1.0000
  H   H181      1.0  0.9756039699624892  0.6668871852984496  0.3699236923828042  1.0000
  H   H182      1.0  0.9976504322013472  0.6183923426128062  0.4172926882231166  1.0000
  H   H183      1.0  0.9451650220144264  0.2760606223029498  0.45492784918818857  1.0000
  H   H184      1.0  0.9794046286581881  0.3051010510374559  0.4095175631753928  1.0000
  C   C277      1.0  0.94803088926921  0.2431716358479532  0.16538600441114854  1.0000
  C   C278      1.0  0.9453570811957646  0.2789927399066987  0.1386503067824299  1.0000
  C   C279      1.0  0.9987914505171255  0.731755159495127  0.12952682661888815  1.0000
  C   C280      1.0  0.008745715030010981  0.6709435451618315  0.12868678983749315  1.0000
  C   C281      1.0  0.9843104121544036  0.17345271849080834  0.13767804445474557  1.0000
  C   C282      1.0  0.9677196455386793  0.1906591511036404  0.1647136146351763  1.0000
  H   H185      1.0  0.9836145275854905  0.8064269275412891  0.15825766590257057  1.0000
  H   H186      1.0  0.9960864936725594  0.7573931230897528  0.10844089571244009  1.0000
  H   H187      1.0  0.9990203030309511  0.13206936474523845  0.13748785601489608  1.0000
  H   H188      1.0  0.9703718228969574  0.16307963589377295  0.18507439859857872  1.0000
  C   C283      1.0  0.8516412704257565  0.06704686147233052  0.3145980104306792  1.0000
  C   C284      1.0  0.8418603407970269  0.12408683178258162  0.30367854564922475  1.0000
  C   C285      1.0  0.8115058843815894  0.15027208144033466  0.3135092592584233  1.0000
  C   C286      1.0  0.7902907842914533  0.11864430541406779  0.33356760513186395  1.0000
  C   C287      1.0  0.7997399331001933  0.06118416829956308  0.3442162964968856  1.0000
  C   C288      1.0  0.8303941136840214  0.0353566285680087  0.3346894441278914  1.0000
  H   H189      1.0  0.8571096080823918  0.14743270804135133  0.2869606172722503  1.0000
  H   H190      1.0  0.8041069222619095  0.19447940681084197  0.3049968782265154  1.0000
  H   H191      1.0  0.7838113335231442  0.037096236346935596  0.36028401656493114  1.0000
  H   H192      1.0  0.8377553474116599  0.9910478752611996  0.34310083477787906  1.0000
  Fe  Fe97      1.0  0.9654226418404729  0.08112925500368284  0.7886316810912123  1.0000
  S   S193      1.0  0.944344166014024  0.029388256528479095  0.8285291866084508  1.0000
  S   S194      1.0  0.9846605541410656  0.1736211438175732  0.8004153418085235  1.0000
  Fe  Fe98      1.0  0.9559409205972547  0.978598956868021  0.7439405310290289  1.0000
  S   S195      1.0  0.9344522708415909  0.9177346120966111  0.7803379754309776  1.0000
  S   S196      1.0  0.9619461887884678  0.9287100213103126  0.6991401920320061  1.0000
  Fe  Fe99      1.0  0.9049966198459022  0.9988454673956014  0.7951490419311263  1.0000
  S   S197      1.0  0.8529433064809953  0.9822428708544262  0.8136109880363536  1.0000
  Fe  Fe100     1.0  0.9755847921499988  0.9530054886681142  0.8106066255665957  1.0000
  S   S198      1.0  0.0016683414925553475  0.8917059723143534  0.844459695860012  1.0000
  S   S199      1.0  0.922756790860567  0.057810596921021196  0.7560839204276675  1.0000
  S   S200      1.0  0.00017827628901057047  0.006944184295699429  0.7730870956648889  1.0000
  Fe  Fe101     1.0  0.6461305880545152  0.2418125739781798  0.8683215952755572  1.0000
  S   S201      1.0  0.6217151305920349  0.1508484882590384  0.8734662514352  1.0000
  S   S202      1.0  0.6202755936486697  0.33228183019994906  0.8710321254114151  1.0000
  Fe  Fe102     1.0  0.7144118424352207  0.18910887094349937  0.851667744942373  1.0000
  S   S203      1.0  0.6960171640649226  0.0931709984421476  0.854708666296169  1.0000
  S   S204      1.0  0.7667187347298309  0.21778963150202513  0.8374775526781537  1.0000
  Fe  Fe103     1.0  0.649816862585371  0.127369423293632  0.8304270969539979  1.0000
  S   S205      1.0  0.6245869968234734  0.07380816231832155  0.7932270454116876  1.0000
  Fe  Fe104     1.0  0.6699214557263025  0.12471640076944923  0.8975183801684309  1.0000
  S   S206      1.0  0.6677102647569735  0.06180319681685309  0.9381526193604512  1.0000
  S   S207      1.0  0.6704413231877011  0.22030130199318876  0.8230805690716999  1.0000
  S   S208      1.0  0.6918567933740437  0.21839726869929432  0.8966318829545593  1.0000
  Fe  Fe105     1.0  0.9482732914934248  0.6847990562620987  0.5880023434241431  1.0000
  S   S209      1.0  0.9515200636910078  0.7839890637580956  0.5981380648383946  1.0000
  S   S210      1.0  0.9235424813108019  0.6212209847156944  0.6215116225710942  1.0000
  Fe  Fe106     1.0  0.958740084290912  0.736852112906719  0.0019555347325810324  1.0000
  S   S211      1.0  0.9886365446170994  0.8205638085223254  0.9910550061458367  1.0000
  S   S212      1.0  0.9185775652550242  0.700200184716882  0.9705556200279952  1.0000
  Fe  Fe107     1.0  0.033426429215478226  0.7599729309871758  0.9985004964195836  1.0000
  S   S213      1.0  0.07434592421311992  0.745555794556683  0.9635620427063496  1.0000
  Fe  Fe108     1.0  0.9896750869681435  0.8332110761331576  0.04239069260306216  1.0000
  S   S214      1.0  0.9872680724843097  0.9241894198112566  0.06533435989975933  1.0000
  S   S215      1.0  0.00024374659253734166  0.6795846841469552  0.5677990683539187  1.0000
  S   S216      1.0  0.9553016572532294  0.754942042623856  0.05283077782951784  1.0000
  Fe  Fe109     1.0  0.7102919550655414  0.9279135283957708  0.6628250660459292  1.0000
  S   S217      1.0  0.6988324159729697  0.829561565790286  0.6695227491117097  1.0000
  S   S218      1.0  0.7338162398182682  0.9902886579292088  0.6973700055380112  1.0000
  Fe  Fe110     1.0  0.7785032447296721  0.020374452510470098  0.0730071468090372  1.0000
  S   S219      1.0  0.803330439338433  0.9306143625732807  0.08115137819480323  1.0000
  S   S220      1.0  0.7892159514645507  0.07933739865998124  0.03206587660978233  1.0000
  Fe  Fe111     1.0  0.7530153658067184  0.9041912814509201  0.10087926980253048  1.0000
  S   S221      1.0  0.7289198126750468  0.8143964673298175  0.09141512951400688  1.0000
  Fe  Fe112     1.0  0.7250964537277418  0.8177347451909294  0.6242198977954354  1.0000
  S   S222      1.0  0.7644361131069976  0.7463613031176103  0.6180156807796333  1.0000
  S   S223      1.0  0.7269687311123577  0.9912511926215442  0.08827841691153004  1.0000
  S   S224      1.0  0.7926177450897494  0.05817520780528618  0.11894132245335376  1.0000
  Fe  Fe113     1.0  0.4823359298497708  0.9160667363367524  0.8649686550179356  1.0000
  S   S225      1.0  0.48119107042745396  0.015627258477302508  0.8557089705713836  1.0000
  S   S226      1.0  0.5231383563685841  0.8668391922554113  0.8909872273707342  1.0000
  Fe  Fe114     1.0  0.4152824304913013  0.8945132312187893  0.8334782683032677  1.0000
  S   S227      1.0  0.40727256923575783  0.9924845766563362  0.8216413900318238  1.0000
  S   S228      1.0  0.38260768129371836  0.8182767179615748  0.8170066850741119  1.0000
  Fe  Fe115     1.0  0.4619618751724173  0.9905087220159365  0.8088738216836405  1.0000
  S   S229      1.0  0.4808626709609709  0.04010203459323658  0.7673969253174602  1.0000
  Fe  Fe116     1.0  0.4268195627500124  0.009708679254043506  0.8694955826528948  1.0000
  S   S230      1.0  0.40790111080101404  0.08614049536779644  0.8986925217037075  1.0000
  S   S231      1.0  0.4687253947141763  0.8910249898393627  0.8165178265909602  1.0000
  S   S232      1.0  0.4292876962176914  0.9116008527206632  0.8828352167876721  1.0000
  Fe  Fe117     1.0  0.14683333573021462  0.6855523620205333  0.8070746707600471  1.0000
  S   S233      1.0  0.16479530937333214  0.5893541088227211  0.8068865948528572  1.0000
  S   S234      1.0  0.10245735075063546  0.7135300356109102  0.777884588542597  1.0000
  Fe  Fe118     1.0  0.20706523069113092  0.7286319741770089  0.8444622921138177  1.0000
  S   S235      1.0  0.23038061402661122  0.6362241092407687  0.8471292448632838  1.0000
  S   S236      1.0  0.23274669913566992  0.8085915644439543  0.8659714360608934  1.0000
  Fe  Fe119     1.0  0.2157485301647639  0.6294241788204052  0.7972439291385959  1.0000
  S   S237      1.0  0.24885294287216056  0.58723379368847  0.7609652380428487  1.0000
  Fe  Fe120     1.0  0.17751282265463106  0.6053155119549851  0.8567712898603222  1.0000
  S   S238      1.0  0.16335589476691262  0.5392923856323201  0.8943803586116402  1.0000
  S   S239      1.0  0.1967841629756021  0.7247239661640469  0.7937647594909639  1.0000
  S   S240      1.0  0.15500612286493232  0.6987542919229685  0.8578880547614078  1.0000
  Fe  Fe121     1.0  0.4883900256444285  0.3061678538700232  0.07164583884963971  1.0000
  S   S241      1.0  0.5289031128218765  0.9478891396368277  0.5905865721366419  1.0000
  S   S242      1.0  0.5102231365672515  0.39957951758005983  0.06832995067539116  1.0000
  Fe  Fe122     1.0  0.4235791798588618  0.23522012897821432  0.07511405015827766  1.0000
  S   S243      1.0  0.45354926362199105  0.9425373610073171  0.5573436532402292  1.0000
  S   S244      1.0  0.3676368993866118  0.24296141898843704  0.0684345479670585  1.0000
  Fe  Fe123     1.0  0.47474197479635133  0.9478740155807456  0.6054143644059677  1.0000
  S   S245      1.0  0.45757615206773344  0.8904989583866034  0.6450848395499824  1.0000
  Fe  Fe124     1.0  0.4858349445891201  0.17672271715808696  0.04889571753140198  1.0000
  S   S246      1.0  0.5038383041671887  0.10746574346662907  0.014674503553773643  1.0000
  S   S247      1.0  0.4701305063431746  0.048653483306907  0.6084380947263954  1.0000
  S   S248      1.0  0.4570074966780846  0.26046884959584427  0.03554747803920777  1.0000
  Fe  Fe125     1.0  0.22011192419753942  0.040885517753609824  0.02998425125905113  1.0000
  S   S249      1.0  0.26037165099341114  0.9699122675281722  0.0319556262019971  1.0000
  S   S250      1.0  0.22892202317389898  0.11764827057035876  0.9971145580373115  1.0000
  Fe  Fe126     1.0  0.17716556689619342  0.13257634557464404  0.5700274794706646  1.0000
  S   S251      1.0  0.17764706168551478  0.031792312365415354  0.5646964634098707  1.0000
  S   S252      1.0  0.15803402479574963  0.18246944347414118  0.6114842179445895  1.0000
  Fe  Fe127     1.0  0.2293869979678456  0.04687402448282785  0.5450739513438132  1.0000
  S   S253      1.0  0.2716032229703282  0.9852463695531621  0.559299880180045  1.0000
  Fe  Fe128     1.0  0.21753230845070579  0.9049580049681678  0.03775672738106817  1.0000
  S   S254      1.0  0.2191658984357078  0.8183622002935401  0.010829398357581344  1.0000
  S   S255      1.0  0.21972463198883593  0.05777036946647063  0.08063997634543418  1.0000
  S   S256      1.0  0.17681007842699958  0.9751937199586641  0.031438858525533186  1.0000
  C   C289      1.0  0.34932135632494243  0.17560009485875905  0.08159224749397365  1.0000
  C   C290      1.0  0.32094877025260016  0.15254291192213487  0.06645681073060938  1.0000
  C   C291      1.0  0.30749221328191706  0.09671552699639951  0.07535294725834518  1.0000
  C   C292      1.0  0.31103940301852356  0.019753649196680767  0.5538755077440993  1.0000
  C   C293      1.0  0.3396623922504947  0.9950319872412343  0.5681477362526017  1.0000
  C   C294      1.0  0.3713546595377606  0.02205295398033935  0.5640830114791808  1.0000
  H   H193      1.0  0.30979542782927366  0.1768492102114314  0.04729376576449851  1.0000
  H   H194      1.0  0.28650134039757763  0.07839365479672722  0.06260343367867072  1.0000
  H   H195      1.0  0.33728298835775067  0.9553342340669302  0.5826591538384823  1.0000
  H   H196      1.0  0.3931128843095412  0.003406645075985981  0.5757889648083547  1.0000
  C   C295      1.0  0.19573615918918158  0.5263565716251312  0.9215598677581706  1.0000
  C   C296      1.0  0.1967967672575575  0.10679977182515454  0.9090058428356327  1.0000
  C   C297      1.0  0.21717030281809857  0.1153917629101755  0.9351025961326979  1.0000
  C   C298      1.0  0.20378607991762082  0.10609793599847817  0.9645439857998207  1.0000
  C   C299      1.0  0.21309207419374143  0.5003823084351218  0.9738524756728335  1.0000
  C   C300      1.0  0.1874727718139857  0.5099611272835723  0.9518373010514171  1.0000
  H   H197      1.0  0.20750311656475245  0.11221101467866768  0.8863218023314702  1.0000
  H   H198      1.0  0.24337691185547725  0.1282487389081719  0.9324639135247497  1.0000
  H   H199      1.0  0.20654145907849378  0.4876381330570011  0.9970543668080852  1.0000
  H   H200      1.0  0.16126968045259238  0.5054276264895707  0.9583718970084968  1.0000
  C   C301      1.0  0.24057919846714892  0.6211199388456221  0.7250526736137212  1.0000
  C   C302      1.0  0.1823618105449548  0.04864443812906338  0.6712594683246127  1.0000
  C   C303      1.0  0.18024599649224649  0.08428280422648138  0.6445782812948604  1.0000
  C   C304      1.0  0.16515324700121092  0.1415297514920768  0.6455891012994139  1.0000
  C   C305      1.0  0.22695165743628104  0.7100651222310721  0.694397371192337  1.0000
  C   C306      1.0  0.23573745230530666  0.6836900295049946  0.7227726166145898  1.0000
  H   H201      1.0  0.19387647206664357  0.004195215693640009  0.6702985337785364  1.0000
  H   H202      1.0  0.19060621905557867  0.06743782913365481  0.6233764000468871  1.0000
  H   H203      1.0  0.22249391842028177  0.7583745878155034  0.6929495413869998  1.0000
  H   H204      1.0  0.2390654378448566  0.7120245609872913  0.742788900028741  1.0000
  C   C307      1.0  0.4338063189988241  0.09220147013566748  0.9313757867513335  1.0000
  C   C308      1.0  0.4429770069666171  0.14931266596548598  0.9425250340887668  1.0000
  C   C309      1.0  0.4640162536039573  0.15426321890344852  0.9684897398731224  1.0000
  C   C310      1.0  0.4758283409582801  0.10206169349329852  0.9833930215161829  1.0000
  C   C311      1.0  0.46655798677416443  0.0449719710265053  0.9722363858527352  1.0000
  C   C312      1.0  0.44586026287093206  0.04004514991174224  0.9460700272742048  1.0000
  H   H205      1.0  0.4346393094642632  0.1898029834686672  0.9306836996737651  1.0000
  H   H206      1.0  0.4718708628723603  0.19848893123958944  0.9763981127479195  1.0000
  H   H207      1.0  0.47508222968852654  0.004461285174691687  0.983996538591733  1.0000
  H   H208      1.0  0.4386784546551376  0.9958263303150999  0.9376774242342892  1.0000
  C   C313      1.0  0.47316987674120875  0.9992364076044771  0.7334465779240765  1.0000
  C   C314      1.0  0.4513585128558678  0.9493566800418484  0.7334095286302668  1.0000
  C   C315      1.0  0.44644848139372073  0.91589333351948  0.7062204420362839  1.0000
  C   C316      1.0  0.46360051234554883  0.9319506490064587  0.6791880780680697  1.0000
  C   C317      1.0  0.4860875826851308  0.9807769657330451  0.6796027306220743  1.0000
  C   C318      1.0  0.4905310292214198  0.014810112211273596  0.7065367861343004  1.0000
  H   H209      1.0  0.43802727701782673  0.9368658090176285  0.7542081915608368  1.0000
  H   H210      1.0  0.42926376871614585  0.8778376836105632  0.7060785677635044  1.0000
  H   H211      1.0  0.5007452491546507  0.9915829182353842  0.6593727440661049  1.0000
  H   H212      1.0  0.5080304368017633  0.05242495961207472  0.7066883350281302  1.0000
  C   C319      1.0  0.34172666531034984  0.8147035185292939  0.8322230712465913  1.0000
  C   C320      1.0  0.33145060635510737  0.8531446307210352  0.8560414594824738  1.0000
  C   C321      1.0  0.2979305317251843  0.8510642938847285  0.8666657259699624  1.0000
  C   C322      1.0  0.2749247266099917  0.810131204442971  0.8536720258873175  1.0000
  C   C323      1.0  0.28552219077649676  0.771194513309145  0.8302063163174931  1.0000
  C   C324      1.0  0.31883080313714574  0.7734795074900718  0.8195285914227395  1.0000
  H   H213      1.0  0.3491229099040135  0.8850000302868826  0.865982363900892  1.0000
  H   H214      1.0  0.2898010176689182  0.8812304616497032  0.8848532482295663  1.0000
  H   H215      1.0  0.2679559055813124  0.7398061556107673  0.8198694295518534  1.0000
  H   H216      1.0  0.3267319357945721  0.7436385103633062  0.8011259494531322  1.0000
  C   C325      1.0  0.6875042512155654  0.8153300859407986  0.10546358830604019  1.0000
  C   C326      1.0  0.6660630968808507  0.7659253668589328  0.10055079453903848  1.0000
  C   C327      1.0  0.5646371976884437  0.3395569651525412  0.04554060424869788  1.0000
  C   C328      1.0  0.5533049950488568  0.39201421843553774  0.06012440287642229  1.0000
  C   C329      1.0  0.6022094530776924  0.20558024455984913  0.6048520636616945  1.0000
  C   C330      1.0  0.6153399344263589  0.2549866323135914  0.5886079159977377  1.0000
  H   H217      1.0  0.6754710959617773  0.7258393987418369  0.08909211695976538  1.0000
  H   H218      1.0  0.5467104117788756  0.30650799410250285  0.03719840213641312  1.0000
  H   H219      1.0  0.6112848669668054  0.19565079350940118  0.6278664781632106  1.0000
  H   H220      1.0  0.6347624980548092  0.28248712392640374  0.5989549043642667  1.0000
  C   C331      1.0  0.11431771379836642  0.7661953945472952  0.977038127717835  1.0000
  C   C332      1.0  0.1430027783568902  0.7443499803983262  0.9619306580415103  1.0000
  C   C333      1.0  0.17524026582973998  0.7601141370239863  0.9725516722611566  1.0000
  C   C334      1.0  0.17879198246743627  0.7981415100671655  0.9981320426913277  1.0000
  C   C335      1.0  0.06336556840626661  0.9376901465083564  0.518856445346616  1.0000
  C   C336      1.0  0.04795982191631909  0.8993716544287418  0.5404385467486876  1.0000
  H   H221      1.0  0.14036649576884896  0.7153229044641166  0.9419750006411107  1.0000
  H   H222      1.0  0.19737714656246452  0.7438507458272569  0.9605291346509206  1.0000
  H   H223      1.0  0.04808594325373483  0.961585329819577  0.5020272684884631  1.0000
  H   H224      1.0  0.02082319098612384  0.895666394487887  0.5408005997697638  1.0000
  C   C337      1.0  0.9528628799068743  0.9325787519660528  0.09044701082761031  1.0000
  C   C338      1.0  0.9220891000172019  0.9035576379544914  0.08461858177080428  1.0000
  C   C339      1.0  0.8943373256591782  0.913441342325012  0.10414490537661036  1.0000
  C   C340      1.0  0.7969336930724396  0.7739020042231438  0.5947567420365956  1.0000
  C   C341      1.0  0.7912892003799208  0.8221212591679541  0.5742978526711559  1.0000
  C   C342      1.0  0.8184485288580529  0.8477280522649502  0.5581539765653523  1.0000
  H   H225      1.0  0.9194442611787207  0.874413674526962  0.06474897725694606  1.0000
  H   H226      1.0  0.8706752294354574  0.8908295716824591  0.09958757125904394  1.0000
  H   H227      1.0  0.7660808541517947  0.8399478862167271  0.5709855846489847  1.0000
  H   H228      1.0  0.8141491890160418  0.885376078205502  0.5425877905431179  1.0000
  C   C343      1.0  0.5784761974229441  0.32819815099977423  0.8839545863104816  1.0000
  C   C344      1.0  0.5677915332172195  0.2799952783026838  0.9024498916669105  1.0000
  C   C345      1.0  0.5780830702802968  0.8022330658833293  0.8715476473335125  1.0000
  C   C346      1.0  0.5589410363311095  0.8551890641719777  0.8679417859481676  1.0000
  C   C347      1.0  0.5228408082827398  0.3740897196939572  0.8879965275337767  1.0000
  C   C348      1.0  0.5560155381510173  0.37528258105849854  0.8767911452344792  1.0000
  H   H229      1.0  0.5852558015963032  0.2442890974559795  0.9086448540152037  1.0000
  H   H230      1.0  0.5709507533622957  0.7690013158486221  0.8887099761367815  1.0000
  H   H231      1.0  0.5055506683700766  0.41033780655301966  0.8822375274344221  1.0000
  H   H232      1.0  0.5642907793785596  0.41267441980455155  0.862512776647618  1.0000
  C   C349      1.0  0.7031357782869068  0.06471987498026954  0.9624818768994543  1.0000
  C   C350      1.0  0.7277050556972948  0.10969187608728026  0.9590237362641174  1.0000
  C   C351      1.0  0.7548323813900663  0.11305297539741277  0.9798902770499086  1.0000
  C   C352      1.0  0.7575842073912736  0.07099457065766646  0.00397253498566319  1.0000
  C   C353      1.0  0.7338102240748872  0.024512260897902483  0.006574280232995999  1.0000
  C   C354      1.0  0.7063990230927268  0.021821718126848966  0.9861117213076601  1.0000
  H   H233      1.0  0.7256123880497036  0.14244171081106738  0.9406169969077044  1.0000
  H   H234      1.0  0.7733392822024938  0.14879834936549718  0.9776328272009916  1.0000
  H   H235      1.0  0.7364501341650279  0.9906511781959805  0.024376203736208968  1.0000
  H   H236      1.0  0.6876553347038233  0.9865801743599683  0.988646685531818  1.0000
  C   C355      1.0  0.653893543927687  0.055431161819949226  0.7646692398343415  1.0000
  C   C356      1.0  0.6462602127928737  0.00982170448473263  0.7435156971699741  1.0000
  C   C357      1.0  0.6706898916777703  0.9901781281446724  0.7224844456860262  1.0000
  C   C358      1.0  0.7026863324162707  0.016850320118739104  0.7224198515703362  1.0000
  C   C359      1.0  0.7099295435773031  0.06433338277024281  0.7426769406598016  1.0000
  C   C360      1.0  0.6855100322505161  0.08361749276129382  0.763868067330469  1.0000
  H   H237      1.0  0.6217073774429611  0.9888089664733568  0.7440368426323749  1.0000
  H   H238      1.0  0.6650014325868123  0.9534236773631504  0.706891055018356  1.0000
  H   H239      1.0  0.7346323816852115  0.08530094642656239  0.7425393703755956  1.0000
  H   H240      1.0  0.691493499793167  0.11913561450773469  0.7801061472943743  1.0000
  C   C361      1.0  0.07513986832863817  0.7634047458587941  0.7969154956804165  1.0000
  C   C362      1.0  0.07027478110922014  0.7595008037625379  0.8288073285258548  1.0000
  C   C363      1.0  0.04783390083396477  0.7993787551794611  0.8434438563495886  1.0000
  C   C364      1.0  0.030113859752192385  0.8427533273292555  0.8261782019003643  1.0000
  C   C365      1.0  0.03531792575075143  0.8469994912966999  0.7943824063551111  1.0000
  C   C366      1.0  0.05781816792903571  0.807380481315152  0.779771306078574  1.0000
  H   H241      1.0  0.08317349704601963  0.7250147630661979  0.8420781860461886  1.0000
  H   H242      1.0  0.043875299986780414  0.7961979029535856  0.8680626219888333  1.0000
  H   H243      1.0  0.02206261725147418  0.8809296402662299  0.7810488116716772  1.0000
  H   H244      1.0  0.06210973459323199  0.8112872766596887  0.7552144147549479  1.0000
  C   C367      1.0  0.003872488537318919  0.16759334185538788  0.8369870014929073  1.0000
  C   C368      1.0  0.9356129304521387  0.6460081221779634  0.8827685576128651  1.0000
  C   C369      1.0  0.9209347769632104  0.6530678343280836  0.9119912713417005  1.0000
  C   C370      1.0  0.9376054506280834  0.6867815488199206  0.9347102239283065  1.0000
  C   C371      1.0  0.027506067418507252  0.10579241243228044  0.8783065779987915  1.0000
  C   C372      1.0  0.015174731254558704  0.11143628019766605  0.8480182805653727  1.0000
  H   H245      1.0  0.9223859503898147  0.6211387704960301  0.8650986971702785  1.0000
  H   H246      1.0  0.8964399879830017  0.6335405762579136  0.9166478353440571  1.0000
  H   H247      1.0  0.0359670731001307  0.06211224007666338  0.8867038874327712  1.0000
  H   H248      1.0  0.014464389481016138  0.07206746651423002  0.8333002948584212  1.0000
  C   C373      1.0  0.9631769537866507  0.9645132915535456  0.662955000604963  1.0000
  C   C374      1.0  0.9701101101704331  0.9282375176686  0.637420705853625  1.0000
  C   C375      1.0  0.9862266566081318  0.5855556113945926  0.6418476408202819  1.0000
  C   C376      1.0  0.9513626976956546  0.5849401240970968  0.6469255368728523  1.0000
  C   C377      1.0  0.9588982013051459  0.052244776215667255  0.6289532586858115  1.0000
  C   C378      1.0  0.9573689287468929  0.026716493231422334  0.6588428711006842  1.0000
  H   H249      1.0  0.035049485449174966  0.5579111346514092  0.6589576992328439  1.0000
  H   H250      1.0  0.9964374268646924  0.6075233726225736  0.6217187848596829  1.0000
  H   H251      1.0  0.9547889024598871  0.10030080815024411  0.6256402193578532  1.0000
  H   H252      1.0  0.9519435113608307  0.05501231663529671  0.6785738832060025  1.0000
  C   C379      1.0  0.831952257538069  0.04996984262774906  0.8226045271446121  1.0000
  C   C380      1.0  0.8399404901930935  0.10414288706212282  0.807481405830732  1.0000
  C   C381      1.0  0.8205398884361541  0.1564300945725019  0.8128420813820013  1.0000
  C   C382      1.0  0.7932337656472511  0.15447800287779412  0.833328877928278  1.0000
  C   C383      1.0  0.786613151637143  0.10122234103878536  0.8497066565524576  1.0000
  C   C384      1.0  0.8059246842771642  0.04906179920796161  0.8443308901803422  1.0000
  H   H253      1.0  0.8602053647716201  0.1052398529026437  0.7908300634151312  1.0000
  H   H254      1.0  0.8258830173531293  0.19766655042486958  0.8002572558416348  1.0000
  H   H255      1.0  0.7666688502032878  0.10026450117566132  0.8666461358502677  1.0000
  H   H256      1.0  0.8004572480576703  0.007857747149212502  0.8568746804487202  1.0000
  N   N1        1.0  0.29204088569937386  0.36380415913160324  0.45592119684326726  1.0000
  C   C385      1.0  0.2923509379357099  0.3986179068831092  0.42672880856980083  1.0000
  C   C386      1.0  0.25974748792604785  0.3743107974242519  0.4721250509807241  1.0000
  C   C387      1.0  0.3203419464423015  0.3836990976930517  0.4758062730768531  1.0000
  C   C388      1.0  0.2957203959848187  0.29855827913202543  0.4490442226739728  1.0000
  H   H257      1.0  0.31652379179112755  0.39201346521489655  0.414046771170115  1.0000
  H   H258      1.0  0.28925630827759763  0.44803262036456815  0.4309131229662132  1.0000
  H   H259      1.0  0.27160797879602977  0.3840910169827011  0.41096471978156174  1.0000
  H   H260      1.0  0.2585672572093492  0.34791554355159715  0.49402487719604843  1.0000
  H   H261      1.0  0.25637047936830754  0.42298693642520474  0.4781451248632947  1.0000
  H   H262      1.0  0.23781009282199939  0.3601380073957684  0.4577262820500903  1.0000
  H   H263      1.0  0.3209380259722094  0.35802247767376705  0.49795805216393324  1.0000
  H   H264      1.0  0.3180917276412363  0.4326142226741285  0.4817757912803492  1.0000
  H   H265      1.0  0.3451511037701554  0.3769474379020749  0.4642343788685235  1.0000
  H   H266      1.0  0.2950017126074944  0.27058494670272126  0.47044894007732185  1.0000
  H   H267      1.0  0.31991325838563245  0.2888690846876809  0.4369741425081185  1.0000
  H   H268      1.0  0.27491835472049886  0.28215146980374683  0.43387754613607754  1.0000
  N   N2        1.0  0.9711936262055402  0.903114177438817  0.2901353280690698  1.0000
  C   C389      1.0  0.9714942618618368  0.9511841925181199  0.26637937953306123  1.0000
  C   C390      1.0  0.003285458282488385  0.8689344623952951  0.289061452470567  1.0000
  C   C391      1.0  0.9426500152649492  0.8618097465776032  0.2841044518568377  1.0000
  C   C392      1.0  0.9672983147573133  0.9303987241873064  0.32103052153080447  1.0000
  H   H269      1.0  0.9473753967420723  0.977158255282391  0.26629627549414603  1.0000
  H   H270      1.0  0.9750064621776071  0.9319779776538887  0.24284537966737071  1.0000
  H   H271      1.0  0.992355111313023  0.9838423474647189  0.2704094956353702  1.0000
  H   H272      1.0  0.025219504963700734  0.8988624691178545  0.29363095463598093  1.0000
  H   H273      1.0  0.0038520470203047275  0.8321259437663749  0.3066160838396479  1.0000
  H   H274      1.0  0.007260831878768137  0.8478186409523035  0.2660758494800456  1.0000
  H   H275      1.0  0.9417083014986084  0.8249200305713794  0.30157174405725157  1.0000
  H   H276      1.0  0.9447931327150351  0.8403369488213627  0.2609480880263917  1.0000
  H   H277      1.0  0.9180156483891665  0.8861640052803049  0.2849996168989735  1.0000
  H   H278      1.0  0.966466786592511  0.8948712418927441  0.3393314076437964  1.0000
  H   H279      1.0  0.9434163267618488  0.9568235297074221  0.3226562492463335  1.0000
  H   H280      1.0  0.9885622621407512  0.9616251696426397  0.3263935103096482  1.0000
  N   N3        1.0  0.07491145241096732  0.012001798763423777  0.6293492184989659  1.0000
  C   C393      1.0  0.05649271117957344  0.009064070243207434  0.5996869057549646  1.0000
  C   C394      1.0  0.05118295626426984  0.0010338723490419532  0.6550165129716022  1.0000
  C   C395      1.0  0.0902177415505014  0.07253425453736817  0.6327349814204785  1.0000
  C   C396      1.0  0.1017861039816972  0.9654445306947094  0.6299845463564386  1.0000
  H   H281      1.0  0.07385428591565436  0.013731972799023717  0.5796584926079863  1.0000
  H   H282      1.0  0.03722503613811301  0.045625488151833204  0.5977338619770496  1.0000
  H   H283      1.0  0.04290991405109068  0.9653077456732759  0.5971987480067669  1.0000
  H   H284      1.0  0.030362905633531282  0.03493197122604941  0.6550173831277141  1.0000
  H   H285      1.0  0.039390614993907835  0.955386342892171  0.6532038598593292  1.0000
  H   H286      1.0  0.0641769555915932  0.0033841447405411618  0.677807376255667  1.0000
  H   H287      1.0  0.1084984216140852  0.08190007540493238  0.6138271151822052  1.0000
  H   H288      1.0  0.10410193132122529  0.07645870703080693  0.654998575728977  1.0000
  H   H289      1.0  0.07081066660987712  0.10901817158600347  0.6320490438707019  1.0000
  H   H290      1.0  0.11638073514078749  0.9668592934782738  0.6520032403748156  1.0000
  H   H291      1.0  0.12010321477026331  0.972225426776676  0.6108425008780409  1.0000
  H   H292      1.0  0.09100671300745963  0.9191012639941283  0.6275393646147316  1.0000
  N   N4        1.0  0.19321293814983379  0.01453769225079049  0.28839740279718673  1.0000
  C   C397      1.0  0.21382972014194887  0.9865541416404848  0.26384442370193273  1.0000
  C   C398      1.0  0.16173094328879503  0.03923524621075414  0.2749023712465486  1.0000
  C   C399      1.0  0.21256770012641402  0.06394542531899394  0.30298908456887563  1.0000
  C   C400      1.0  0.1847628904518258  0.9685143488902042  0.31188095919366327  1.0000
  H   H293      1.0  0.2004167855184555  0.94811702731121  0.2526753513210955  1.0000
  H   H294      1.0  0.23808938746018574  0.9685397830698286  0.27317722610702827  1.0000
  H   H295      1.0  0.22016930761142445  0.01980415869305352  0.24540888639375058  1.0000
  H   H296      1.0  0.1450982678950647  0.05932670412969432  0.2929322337942022  1.0000
  H   H297      1.0  0.16721055742139831  0.07523878847156729  0.25771194834713596  1.0000
  H   H298      1.0  0.14701102217827847  0.0035436909619297463  0.2628682144210674  1.0000
  H   H299      1.0  0.19718762638349768  0.0880323484915344  0.3206627747725944  1.0000
  H   H300      1.0  0.22074954440785377  0.09774807385061335  0.28547491700348065  1.0000
  H   H301      1.0  0.23575574465339424  0.04655954022694475  0.31459239885705664  1.0000
  H   H302      1.0  0.1687837802326077  0.9878877534509715  0.3305748293570992  1.0000
  H   H303      1.0  0.2078807247215061  0.9490060265732759  0.3227232651088564  1.0000
  H   H304      1.0  0.1703972064104382  0.9304967512688359  0.30149026923874617  1.0000
  N   N5        1.0  0.48787883353748873  0.7521195928496456  0.5597317527219007  1.0000
  C   C401      1.0  0.4789866238416776  0.7835467982323778  0.5886839862600179  1.0000
  C   C402      1.0  0.524507628004745  0.7587148788171152  0.5540072246706679  1.0000
  C   C403      1.0  0.4687869524994422  0.7790851863506499  0.5337297694146846  1.0000
  C   C404      1.0  0.47921493889997513  0.6872409065466918  0.5624760166002473  1.0000
  H   H305      1.0  0.45145343631211415  0.7805918311926047  0.5937078349599885  1.0000
  H   H306      1.0  0.4855878373253034  0.8323807737668488  0.5876371930953554  1.0000
  H   H307      1.0  0.4927245786665191  0.7641929284566339  0.6088690992882013  1.0000
  H   H308      1.0  0.5322372803960057  0.7354050089927087  0.5324154659995552  1.0000
  H   H309      1.0  0.5317940606463935  0.8072223104225967  0.5517345013309336  1.0000
  H   H310      1.0  0.5397714868016562  0.7393866256438789  0.5732176526594187  1.0000
  H   H311      1.0  0.4753884740433177  0.8275833495294558  0.5304282515219046  1.0000
  H   H312      1.0  0.4410259097681203  0.7765578843625915  0.5375999517255468  1.0000
  H   H313      1.0  0.4745100406765237  0.755767625780022  0.5116090699739766  1.0000
  H   H314      1.0  0.48606060239605836  0.6617450206500587  0.5412601456140239  1.0000
  H   H315      1.0  0.4516875631250866  0.6807104165920372  0.5666347810876917  1.0000
  H   H316      1.0  0.4929395197014867  0.6655257252022562  0.5819741904569333  1.0000
  N   N6        1.0  0.6364263720819883  0.6685012018330925  0.19800435890250626  1.0000
  C   C405      1.0  0.6656546061636899  0.7099815856265805  0.19622043803640823  1.0000
  C   C406      1.0  0.6369448743065774  0.6357539931270979  0.2277865648929049  1.0000
  C   C407      1.0  0.6383210267518352  0.6244312057740937  0.1724413142492149  1.0000
  C   C408      1.0  0.6047626706356038  0.7037287321873079  0.19550781164208372  1.0000
  H   H317      1.0  0.6900066114137432  0.6846102046066168  0.1975334995093563  1.0000
  H   H318      1.0  0.6653657732828264  0.7435349344400106  0.21533040414282867  1.0000
  H   H319      1.0  0.6656763799831081  0.7357241419468304  0.17404291516755316  1.0000
  H   H320      1.0  0.6610415437497177  0.6106404155076067  0.23101511775735184  1.0000
  H   H321      1.0  0.6341243708335007  0.6672521376125545  0.24760786400091508  1.0000
  H   H322      1.0  0.6160275241032924  0.6019956961599136  0.22915493468921286  1.0000
  H   H323      1.0  0.6379590496247431  0.6474884739015991  0.14957962495104937  1.0000
  H   H324      1.0  0.6168077845432475  0.5919842304384957  0.17307793972687288  1.0000
  H   H325      1.0  0.6620076676033524  0.5973854024057011  0.17363054361225533  1.0000
  H   H326      1.0  0.582247530598343  0.6738499656119121  0.19729408106245544  1.0000
  H   H327      1.0  0.603120368757602  0.7279025505202784  0.17304045788763478  1.0000
  H   H328      1.0  0.6027354740475375  0.7382018305021921  0.21410446052214918  1.0000
  N   N7        1.0  0.6045918548748994  0.03525737109141258  0.4962757357687509  1.0000
  C   C409      1.0  0.6306860798652585  0.0830581805708408  0.4958746353925795  1.0000
  C   C410      1.0  0.5719849822305811  0.061039852381644444  0.4859955715035183  1.0000
  C   C411      1.0  0.6011002243602985  0.011194649305286353  0.5279844583523079  1.0000
  C   C412      1.0  0.614504289704906  0.9858197087742647  0.4751813241295864  1.0000
  H   H329      1.0  0.6237247132761252  0.121579868325985  0.5111373125322278  1.0000
  H   H330      1.0  0.6344240816069338  0.10132523701471885  0.47212947149813583  1.0000
  H   H331      1.0  0.6554420394219975  0.06532516660965659  0.5041313922577068  1.0000
  H   H332      1.0  0.551785218670811  0.02610071051331797  0.4861036488861999  1.0000
  H   H333      1.0  0.563992619547405  0.09903244328062355  0.5010907508004846  1.0000
  H   H334      1.0  0.5735727272288034  0.07867252556027404  0.46202240877148704  1.0000
  H   H335      1.0  0.5942207504876524  0.04743050551714734  0.5446808909795193  1.0000
  H   H336      1.0  0.6250573250320657  0.9902331969012866  0.5362228796301455  1.0000
  H   H337      1.0  0.5813350905652637  0.975540996187261  0.5292271818289367  1.0000
  H   H338      1.0  0.6391254660036887  0.965493410208055  0.48208696703950293  1.0000
  H   H339      1.0  0.6171572122539495  0.002468414455800483  0.45100936404081743  1.0000
  H   H340      1.0  0.5953633613107904  0.9488705511134755  0.4750476902731979  1.0000
  N   N8        1.0  0.47146442205148414  0.2350581555841061  0.6221724279528774  1.0000
  C   C413      1.0  0.5011265472468072  0.2737193268929444  0.6159923926591381  1.0000
  C   C414      1.0  0.47989686193193937  0.19117860142973522  0.646861326876562  1.0000
  C   C415      1.0  0.46208897213906586  0.2022956703157455  0.5936952699578613  1.0000
  C   C416      1.0  0.4427881708689463  0.27320797393756624  0.6321065499666811  1.0000
  H   H341      1.0  0.5081680185889245  0.30089671856148353  0.63663660383875  1.0000
  H   H342      1.0  0.49607941888965207  0.305631793867036  0.5965864573865832  1.0000
  H   H343      1.0  0.5235336050408261  0.24614990675994067  0.6095078866085984  1.0000
  H   H344      1.0  0.45821737914165545  0.1607101388447705  0.651958083118005  1.0000
  H   H345      1.0  0.5016632563722866  0.16194545194361631  0.6402655277336515  1.0000
  H   H346      1.0  0.4869130227384531  0.21456961769720428  0.6686859576286021  1.0000
  H   H347      1.0  0.4833200046620289  0.1737776745427395  0.5852731743761554  1.0000
  H   H348      1.0  0.455179578116999  0.2340878493007808  0.5747182425429594  1.0000
  H   H349      1.0  0.4397927401438364  0.17245232361922216  0.5973880323253666  1.0000
  H   H350      1.0  0.4201052955982818  0.2453183523592525  0.6373249444566772  1.0000
  H   H351      1.0  0.43537326930218084  0.30593766762014046  0.613717854924019  1.0000
  H   H352      1.0  0.4491830364656753  0.2998078260347065  0.6531543450908533  1.0000
  N   N9        1.0  0.29395452641992265  0.6878368468092756  0.9921853164869135  1.0000
  C   C417      1.0  0.2971806370572953  0.7544930438452118  0.9911567928557928  1.0000
  C   C418      1.0  0.3219073098433832  0.6617643015574464  0.01065365513108052  1.0000
  C   C419      1.0  0.2954691844967488  0.6635106002704045  0.9604726026125096  1.0000
  C   C420      1.0  0.2612684523892471  0.6714650331568821  0.006388993088720651  1.0000
  H   H353      1.0  0.29452386651435525  0.7747240856468091  0.014563575980150567  1.0000
  H   H354      1.0  0.27709237545086207  0.7752377590582551  0.9764449321952566  1.0000
  H   H355      1.0  0.3220004285991624  0.7686958034964836  0.9816433028216178  1.0000
  H   H356      1.0  0.3216011573159803  0.6791027641277317  0.034755992575374206  1.0000
  H   H357      1.0  0.32007775674635824  0.6114392839800722  0.011709303552320582  1.0000
  H   H358      1.0  0.3469703434477312  0.6726710816424518  0.00042597251508103007  1.0000
  H   H359      1.0  0.2741436343307962  0.6805884324031287  0.9460240867503968  1.0000
  H   H360      1.0  0.29418441978976034  0.6132290376243484  0.960592502723169  1.0000
  H   H361      1.0  0.31951788258916264  0.676062423311897  0.9488697531867601  1.0000
  H   H362      1.0  0.25786222398157826  0.6215149815331795  0.007459984235892003  1.0000
  H   H363      1.0  0.239671057668413  0.6905727437218234  0.9930604500024279  1.0000
  H   H364      1.0  0.25914775993012346  0.6894490024405672  0.03033464993547863  1.0000
  N   N10       1.0  0.8986709301198993  0.8298637834010022  0.8632664032204158  1.0000
  C   C421      1.0  0.9266230078709595  0.7974766717374202  0.8479076026081881  1.0000
  C   C422      1.0  0.9090646318463694  0.8928727904252444  0.8695255387190937  1.0000
  C   C423      1.0  0.8905331012961409  0.7992494274941278  0.8926598384457444  1.0000
  C   C424      1.0  0.8685858818918066  0.8298664463780332  0.8429599960819872  1.0000
  H   H365      1.0  0.9338572191717243  0.8195427948588438  0.8258751938588341  1.0000
  H   H366      1.0  0.9197690022567826  0.7497642709955099  0.8426887594136657  1.0000
  H   H367      1.0  0.9498296941053098  0.7968979102808438  0.8625214180951929  1.0000
  H   H368      1.0  0.9323194628442613  0.8945377190928957  0.8840861431293876  1.0000
  H   H369      1.0  0.9148123407241489  0.9172054201480353  0.8477550205616219  1.0000
  H   H370      1.0  0.8887986413076311  0.9188618559719711  0.8813599867339418  1.0000
  H   H371      1.0  0.8697405090598674  0.8227287416697282  0.9050469413624183  1.0000
  H   H372      1.0  0.9128409596424455  0.7980326233595172  0.9083993425974196  1.0000
  H   H373      1.0  0.8824020448730643  0.7516425792203723  0.8887410015905219  1.0000
  H   H374      1.0  0.8471628557715692  0.8548403735951009  0.8536074245686442  1.0000
  H   H375      1.0  0.8598119372895199  0.7829717083376742  0.8380577511872468  1.0000
  H   H376      1.0  0.8739840318341496  0.852143326252055  0.8204480622220722  1.0000
  N   N11       1.0  0.22031849877154852  0.8326525066838488  0.5299858012701132  1.0000
  C   C425      1.0  0.24846694147520562  0.8293445648640655  0.5524617795323218  1.0000
  C   C426      1.0  0.18895117506329445  0.8111161256158443  0.544807118312893  1.0000
  C   C427      1.0  0.2281870636170317  0.7946236208673909  0.502918393801028  1.0000
  C   C428      1.0  0.21562904284267775  0.8959440343741647  0.5197503005467553  1.0000
  H   H377      1.0  0.27249614835199554  0.846263798620437  0.5423040830410656  1.0000
  H   H378      1.0  0.25271652404436423  0.7821104324291711  0.5606902832659405  1.0000
  H   H379      1.0  0.2433582355856544  0.8578447084678064  0.5731279521809473  1.0000
  H   H380      1.0  0.16702563994889108  0.8136233342266984  0.5286924211074681  1.0000
  H   H381      1.0  0.19128842851999858  0.7632286777060939  0.5524511108903133  1.0000
  H   H382      1.0  0.18270506631273786  0.8384072011670554  0.565579831987242  1.0000
  H   H383      1.0  0.2521820622340275  0.8088675632993297  0.49175326040854395  1.0000
  H   H384      1.0  0.20783391474223586  0.7974944002615437  0.48518540890301715  1.0000
  H   H385      1.0  0.23077196948532538  0.7461011441418831  0.509410675663072  1.0000
  H   H386      1.0  0.19435431585674462  0.9004095164288618  0.503005394343774  1.0000
  H   H387      1.0  0.2388491844214101  0.9139349467162936  0.5085504403266405  1.0000
  H   H388      1.0  0.21009180185398305  0.9258648702814438  0.5396459863870199  1.0000
  N   N12       1.0  0.6280073018662253  0.26555954985453356  0.2977423679368739  1.0000
  C   C429      1.0  0.6577379994613066  0.30099663624239714  0.287927864689949  1.0000
  C   C430      1.0  0.6289050044344054  0.2579017753795634  0.3316415892358164  1.0000
  C   C431      1.0  0.6287706380061805  0.2055953761469095  0.2826824902116198  1.0000
  C   C432      1.0  0.5967072023633453  0.29780496734368067  0.28868694304114206  1.0000
  H   H389      1.0  0.6581953486222466  0.307457964408365  0.26243861497768556  1.0000
  H   H390      1.0  0.6818122351107087  0.27858475684358436  0.2949279346622322  1.0000
  H   H391      1.0  0.6575588625206252  0.34679206264521517  0.29847106840182414  1.0000
  H   H392      1.0  0.6068950635318849  0.2314861041528287  0.3399874842682843  1.0000
  H   H393      1.0  0.6522262723388874  0.23389826606389466  0.3393918539365073  1.0000
  H   H394      1.0  0.6284046264880997  0.3023655965226875  0.3436765903880106  1.0000
  H   H395      1.0  0.6077061388607319  0.17633145329640532  0.2908664125289016  1.0000
  H   H396      1.0  0.6529122342282431  0.18151355373983402  0.2875564051604422  1.0000
  H   H397      1.0  0.6264788796941319  0.20979388340963986  0.25715921611435744  1.0000
  H   H398      1.0  0.5737439725760435  0.2717513486814169  0.2952783087524616  1.0000
  H   H399      1.0  0.5956711580525729  0.30595567600957935  0.2633423101482318  1.0000
  H   H400      1.0  0.5949662024912383  0.34291581999459164  0.2999057049030565  1.0000
  N   N13       1.0  0.9795174978456955  0.7260501421917988  0.7277762032353081  1.0000
  C   C433      1.0  0.9463953717343428  0.6958658787350676  0.7307343556760197  1.0000
  C   C434      1.0  0.005595092494766751  0.6899555458621666  0.7440873313782319  1.0000
  C   C435      1.0  0.9775270843762401  0.7871177830351397  0.7415394579776712  1.0000
  C   C436      1.0  0.9883672543609806  0.7313294589550602  0.694746481643086  1.0000
  H   H401      1.0  0.9261982229502805  0.7214467980274192  0.7183852955416986  1.0000
  H   H402      1.0  0.9387847596019849  0.6917891381940177  0.7553834045650296  1.0000
  H   H403      1.0  0.9470303420610312  0.6495035104299254  0.7207358472952937  1.0000
  H   H404      1.0  0.030955518319541353  0.7112483186097037  0.7422655700538294  1.0000
  H   H405      1.0  0.9999535174178581  0.6858087042899426  0.769216378012575  1.0000
  H   H406      1.0  0.0074879604315916115  0.6432148150277712  0.734599247967209  1.0000
  H   H407      1.0  0.0010162134202522655  0.8133880235976236  0.7373514223088427  1.0000
  H   H408      1.0  0.973629127495965  0.7848555405742524  0.7669834814347904  1.0000
  H   H409      1.0  0.9564001440866837  0.8139670216388736  0.731417395021839  1.0000
  H   H410      1.0  0.013341463397887665  0.7535805942734828  0.6915921732147802  1.0000
  H   H411      1.0  0.9693880169389542  0.7589590095555443  0.6818638205136532  1.0000
  H   H412      1.0  0.9895647349911489  0.6860923948993124  0.6835285185962664  1.0000
  N   N14       1.0  0.9081889852789585  0.2882350213669357  0.8701070062181675  1.0000
  C   C437      1.0  0.8952450994223965  0.3427353560993734  0.8859468577408395  1.0000
  C   C438      1.0  0.9283279613396803  0.30683201533677557  0.8430144508133465  1.0000
  C   C439      1.0  0.8795199203902619  0.2502925150417563  0.8598307396858915  1.0000
  C   C440      1.0  0.9297143213614197  0.25317734639175005  0.8916707998293305  1.0000
  H   H413      1.0  0.916334480971232  0.37169390719570444  0.8944349988953467  1.0000
  H   H414      1.0  0.8797674543720249  0.330365580682613  0.9064423038924648  1.0000
  H   H415      1.0  0.879258471877089  0.37084847103930046  0.8702718193987279  1.0000
  H   H416      1.0  0.9504669577584639  0.33485263031815443  0.8499807746408786  1.0000
  H   H417      1.0  0.9382185052667377  0.2667394944227182  0.8303101175002578  1.0000
  H   H418      1.0  0.9129691149754889  0.3341218744046774  0.8264462336603307  1.0000
  H   H419      1.0  0.8884515626753245  0.2088399063542133  0.8476713956279006  1.0000
  H   H420      1.0  0.8626149228756108  0.27533938455090434  0.8436177226653399  1.0000
  H   H421      1.0  0.8637979362880486  0.2351699826122911  0.879667709545998  1.0000
  H   H422      1.0  0.9519428804575673  0.2800916588048213  0.89945425605761  1.0000
  H   H423      1.0  0.9394893541421099  0.21105728588384165  0.8807312681565118  1.0000
  H   H424      1.0  0.9155645405040086  0.23979307939986222  0.9127864446606276  1.0000
  N   N15       1.0  0.8547684973880114  0.9360703291869854  0.6476324006953161  1.0000
  C   C441      1.0  0.8339823228054888  0.8805785646309123  0.6469114051762797  1.0000
  C   C442      1.0  0.8323863238385053  0.9897391072055756  0.6466213381486873  1.0000
  C   C443      1.0  0.8775995050788687  0.9368507906958154  0.6206594745374823  1.0000
  C   C444      1.0  0.8750059507432104  0.9370310107293416  0.6763401436661624  1.0000
  H   H425      1.0  0.849937673137145  0.8389919329668639  0.6468805349215478  1.0000
  H   H426      1.0  0.8179556330424438  0.8792131402835971  0.6258494117504508  1.0000
  H   H427      1.0  0.8166661138707141  0.8778841944471175  0.667069510385363  1.0000
  H   H428      1.0  0.8472128691627359  0.032542103386133725  0.6472941916586187  1.0000
  H   H429      1.0  0.8168218068662304  0.9903826605053517  0.6251609345046921  1.0000
  H   H430      1.0  0.8145791818987317  0.990220313578331  0.6665222382521508  1.0000
  H   H431      1.0  0.8939489353131779  0.9778171702451187  0.6205553417830243  1.0000
  H   H432      1.0  0.8632070952220733  0.9363965606494038  0.5985453152774148  1.0000
  H   H433      1.0  0.8946418291732395  0.8966191392406168  0.6204314445856758  1.0000
  H   H434      1.0  0.8907879232121362  0.9786105020424  0.6778293800314384  1.0000
  H   H435      1.0  0.8925193506829103  0.897559232926916  0.6776085491001037  1.0000
  H   H436      1.0  0.8586689706765462  0.9358662384527524  0.6971933571260851  1.0000
  N   N16       1.0  0.08068862285468838  0.23445648950650613  0.15972281120508908  1.0000
  C   C445      1.0  0.06944119155340724  0.1993439509099959  0.18694753484651194  1.0000
  C   C446      1.0  0.05758383434660619  0.28637921342487094  0.15495456004872213  1.0000
  C   C447      1.0  0.08023286847143751  0.19533775149932  0.13209191390272626  1.0000
  C   C448      1.0  0.11545708041165556  0.2568774904241567  0.16479252846120168  1.0000
  H   H437      1.0  0.0697225473701597  0.22736379355529338  0.20827065800800018  1.0000
  H   H438      1.0  0.08579732247791355  0.15931983560479113  0.19131852249143566  1.0000
  H   H439      1.0  0.043159621107873525  0.1823326553158613  0.18402160638896572  1.0000
  H   H440      1.0  0.06495874787253197  0.3138979715298575  0.13454781726451606  1.0000
  H   H441      1.0  0.03111393841499899  0.27110173039473506  0.15127954371923502  1.0000
  H   H442      1.0  0.057462274693188764  0.31696114535637104  0.17535559100019535  1.0000
  H   H443      1.0  0.08659011626546004  0.22129411619250441  0.11083618947094935  1.0000
  H   H444      1.0  0.05492416946439738  0.1750218938432928  0.12840638207321042  1.0000
  H   H445      1.0  0.09857173823290802  0.15732721365881597  0.1342113699862133  1.0000
  H   H446      1.0  0.12462900817200853  0.2836532746450353  0.14469621928734028  1.0000
  H   H447      1.0  0.1334770312346398  0.21895813580734527  0.16873484902996708  1.0000
  H   H448      1.0  0.11689027649495258  0.2868761148714027  0.18529329195707997  1.0000
  N   N17       1.0  0.6733844309674595  0.7680594495410009  0.3557810489734108  1.0000
  C   C449      1.0  0.6844442947468128  0.8235703916125033  0.33965815320328946  1.0000
  C   C450      1.0  0.645871188709916  0.7832166504131098  0.3774328127166298  1.0000
  C   C451      1.0  0.7022007722710352  0.7418359111454371  0.37304606535009127  1.0000
  C   C452      1.0  0.6610109442768058  0.7236867667522859  0.3329502882957426  1.0000
  H   H449      1.0  0.7047599623964486  0.8137679677071591  0.3226854479633475  1.0000
  H   H450      1.0  0.6945395723201807  0.8573502713132921  0.35627420038338947  1.0000
  H   H451      1.0  0.6631674233849228  0.8453140290774238  0.3268664276069946  1.0000
  H   H452      1.0  0.6363798567292392  0.7420975842835721  0.3895146385039405  1.0000
  H   H453      1.0  0.6545160782253835  0.8158971701649036  0.3953152283985605  1.0000
  H   H454      1.0  0.624103264533891  0.8044360685211721  0.36515457167214976  1.0000
  H   H455      1.0  0.69538165134917  0.6979268685817774  0.3840196601104315  1.0000
  H   H456      1.0  0.7112042917620552  0.7728983013075754  0.391495487272028  1.0000
  H   H457      1.0  0.7240854294921601  0.7330330840730404  0.3576051107208254  1.0000
  H   H458      1.0  0.6398154765797136  0.7426139915776846  0.31896910836148584  1.0000
  H   H459      1.0  0.6516141353620284  0.6819386950580357  0.34451097283955484  1.0000
  H   H460      1.0  0.68149338661869  0.7096854888769113  0.31688022789525255  1.0000
  N   N18       1.0  0.175051946758407  0.3430366370817798  0.5538553785956661  1.0000
  C   C453      1.0  0.1428228948460523  0.3096276766962636  0.5558890493070396  1.0000
  C   C454      1.0  0.17662682147511694  0.38849067694005734  0.5787610468765555  1.0000
  C   C455      1.0  0.1772097587590197  0.37357255435627207  0.523543231229115  1.0000
  C   C456      1.0  0.20359865532601581  0.30036884993811747  0.5572513790545996  1.0000
  H   H461      1.0  0.14043873037982235  0.27554981551663726  0.5372037464628066  1.0000
  H   H462      1.0  0.12081518045770485  0.3405168925202378  0.5540499701029318  1.0000
  H   H463      1.0  0.14040859645725595  0.2856505895911489  0.5783389208019936  1.0000
  H   H464      1.0  0.20090343075821873  0.41391032531386857  0.5781990391836257  1.0000
  H   H465      1.0  0.15567463238703944  0.4219139895771787  0.5767162151576661  1.0000
  H   H466      1.0  0.1745553299438535  0.3668149121506352  0.6019081255032123  1.0000
  H   H467      1.0  0.1774888792974859  0.3401093127198458  0.5043262200875909  1.0000
  H   H468      1.0  0.20060320382980706  0.40132660220391464  0.5217849361619089  1.0000
  H   H469      1.0  0.1552451844371935  0.40420857266982707  0.5196824121894011  1.0000
  H   H470      1.0  0.22832306423703322  0.3243345506545821  0.5564131851957312  1.0000
  H   H471      1.0  0.20349793416511774  0.26621967851099193  0.5384432823291129  1.0000
  H   H472      1.0  0.20235786613033252  0.2753771890693298  0.5796020069681983  1.0000
  N   N19       1.0  0.44307423342221086  0.710714705530822  0.8845711642555407  1.0000
  C   C457      1.0  0.4308880849462015  0.6530625148938939  0.8714351788720466  1.0000
  C   C458      1.0  0.4681404018959863  0.6982549321929942  0.9091647906124811  1.0000
  C   C459      1.0  0.4141575305882045  0.7443123866330298  0.897663527405534  1.0000
  C   C460      1.0  0.45904936096791416  0.7471641764221075  0.8600098183442898  1.0000
  H   H473      1.0  0.4119699435670901  0.6608687556917338  0.8527235933238968  1.0000
  H   H474      1.0  0.4185675962144809  0.6245944542931204  0.889350308425649  1.0000
  H   H475      1.0  0.45191230412695016  0.6262170973210162  0.8612890139710725  1.0000
  H   H476      1.0  0.4782733149636679  0.7410504507156424  0.9191431493927934  1.0000
  H   H477      1.0  0.456810360689657  0.6716676900162409  0.9283672643491038  1.0000
  H   H478      1.0  0.48999473490846385  0.6719286304564155  0.9002196069353227  1.0000
  H   H479      1.0  0.42249068399076745  0.7872665336271716  0.9086245902199597  1.0000
  H   H480      1.0  0.4010372942776253  0.7170786559072388  0.9156780859868523  1.0000
  H   H481      1.0  0.3952068565628497  0.7560192124120152  0.8795035983621837  1.0000
  H   H482      1.0  0.48126355855247244  0.723465309737917  0.8499720601311064  1.0000
  H   H483      1.0  0.4680532871845147  0.7913821396294967  0.8690436513370791  1.0000
  H   H484      1.0  0.4410251128416513  0.7566886746797362  0.8408322648668348  1.0000
  N   N20       1.0  0.5362862034382252  0.37823571649558296  0.1639378399975171  1.0000
  C   C461      1.0  0.51810937983731  0.42944548495550383  0.14933334945320942  1.0000
  C   C462      1.0  0.5454275431946228  0.33349103282760995  0.14010798810807135  1.0000
  C   C463      1.0  0.5142040023854487  0.3492655504039781  0.18712078302052038  1.0000
  C   C464      1.0  0.5673995432161779  0.40053026218270205  0.17901028233344585  1.0000
  H   H485      1.0  0.5102331614475437  0.4636490445248109  0.1666748456633007  1.0000
  H   H486      1.0  0.4949418331916144  0.4139532346309127  0.13708925802278382  1.0000
  H   H487      1.0  0.5341324955155358  0.4529994252411089  0.1319722912280017  1.0000
  H   H488      1.0  0.5577291405495712  0.292717557365741  0.1503285597145967  1.0000
  H   H489      1.0  0.5226530868522516  0.3177072522606901  0.1275430882282802  1.0000
  H   H490      1.0  0.5628866245602975  0.35317067730959417  0.12270139197098073  1.0000
  H   H491      1.0  0.5270369085627268  0.3103011507349367  0.19857741913486637  1.0000
  H   H492      1.0  0.4907419859773617  0.3311584212620964  0.17629012357864182  1.0000
  H   H493      1.0  0.5065317617904616  0.38191445391140233  0.20536386428805908  1.0000
  H   H494      1.0  0.582458529381317  0.3628785699590513  0.18920229475875927  1.0000
  H   H495      1.0  0.5615867604020711  0.43253062626316763  0.19797542427948578  1.0000
  H   H496      1.0  0.5837468087448069  0.42530568095099586  0.16237978300352784  1.0000
  N   N21       1.0  0.5978577817224875  0.4262146662951655  0.45513291700830916  1.0000
  C   C465      1.0  0.5846536589934833  0.4887399129408095  0.45276865613980355  1.0000
  C   C466      1.0  0.6308594039366408  0.42676145576230895  0.47118673640168685  1.0000
  C   C467      1.0  0.6019641623249  0.4010122706232807  0.4238198624810144  1.0000
  C   C468      1.0  0.5739501906467576  0.3882019951653909  0.472710703105061  1.0000
  H   H497      1.0  0.5599365952865576  0.4900081412473533  0.4404431843546255  1.0000
  H   H498      1.0  0.6021765550773678  0.5185437595270158  0.43961556108471656  1.0000
  H   H499      1.0  0.5807676316431579  0.5090843746858619  0.47595980096196516  1.0000
  H   H500      1.0  0.6286416590081263  0.44644075206057865  0.4947186419890837  1.0000
  H   H501      1.0  0.6409533849596114  0.38004144994181316  0.4742247000611657  1.0000
  H   H502      1.0  0.650045006010558  0.45321215052261454  0.4581446497871834  1.0000
  H   H503      1.0  0.619786249056574  0.4287435679219615  0.4099165742062519  1.0000
  H   H504      1.0  0.5774500072164698  0.39995206268928474  0.41110722523488047  1.0000
  H   H505      1.0  0.6122074988514905  0.3540163318400286  0.42461195278630254  1.0000
  H   H506      1.0  0.5491531880928872  0.384967764780181  0.46071671304683354  1.0000
  H   H507      1.0  0.5694686217479419  0.40674595241019007  0.4962434783844219  1.0000
  H   H508      1.0  0.5838402145569231  0.34133580226624444  0.47580547333806905  1.0000
  N   N22       1.0  0.13425188193666682  0.8963609881917406  0.8757405569628075  1.0000
  C   C469      1.0  0.1422247716444532  0.8727833728115982  0.844697173420245  1.0000
  C   C470      1.0  0.10401979609568737  0.9357129299459059  0.8738258424256092  1.0000
  C   C471      1.0  0.16331097237936568  0.931665829415109  0.8873936512185062  1.0000
  C   C472      1.0  0.1276017525212186  0.8452823893381003  0.8969864490623654  1.0000
  H   H509      1.0  0.1647232895876196  0.8424995719081746  0.8452898242856052  1.0000
  H   H510      1.0  0.14777016295621617  0.9102202212156463  0.8282273556705104  1.0000
  H   H511      1.0  0.12077289883706649  0.8465187012833695  0.8349687689268025  1.0000
  H   H512      1.0  0.09807376341251395  0.9566737585313446  0.8965024423832416  1.0000
  H   H513      1.0  0.10776802018080707  0.9735225911368768  0.857141668285628  1.0000
  H   H514      1.0  0.08129615865554563  0.9101107608545372  0.8661266452994775  1.0000
  H   H515      1.0  0.18638897728071133  0.9030106450704507  0.8896528280180206  1.0000
  H   H516      1.0  0.15798730136052164  0.9515030801500886  0.9104628787009931  1.0000
  H   H517      1.0  0.1695539502719291  0.9698101716980415  0.8716040482181235  1.0000
  H   H518      1.0  0.12109159019041972  0.8615155604014183  0.9205382825719406  1.0000
  H   H519      1.0  0.15016630766480207  0.8153409804321218  0.8993094601124669  1.0000
  H   H520      1.0  0.10618595096187577  0.8169246452687592  0.8887471086608721  1.0000
  N   N23       1.0  0.06171793044225771  0.20051624905514487  0.42158544765691125  1.0000
  C   C473      1.0  0.052494200718817385  0.22208333821337067  0.39034912544711536  1.0000
  C   C474      1.0  0.07214651803321503  0.13629292298954243  0.4198875149279922  1.0000
  C   C475      1.0  0.032315724971931026  0.2062427192184062  0.4423164631893746  1.0000
  C   C476      1.0  0.08988849609051486  0.23742326734895558  0.43373643052541244  1.0000
  H   H521      1.0  0.04346894430264836  0.2698563871755999  0.3906520061422145  1.0000
  H   H522      1.0  0.031964121859701544  0.194125243919814  0.38012790875470315  1.0000
  H   H523      1.0  0.07438591595842525  0.21972520154240072  0.37425448603169037  1.0000
  H   H524      1.0  0.05076801095767647  0.10676440783932306  0.41280593066122667  1.0000
  H   H525      1.0  0.09238287839535086  0.12982464660722792  0.4024638620936306  1.0000
  H   H526      1.0  0.08190439464843591  0.11940319566293045  0.44249016909897093  1.0000
  H   H527      1.0  0.010281230787275275  0.17997369191616186  0.4336722389201046  1.0000
  H   H528      1.0  0.024072236321845963  0.25428066277688055  0.4444577319523764  1.0000
  H   H529      1.0  0.03844744915282372  0.19000776308525436  0.46604071328003  1.0000
  H   H530      1.0  0.09813173677539111  0.22138466492505438  0.4569600404227901  1.0000
  H   H531      1.0  0.08242760589887999  0.2858395144637511  0.4360416396946423  1.0000
  H   H532      1.0  0.112209923334885  0.2355286211351797  0.4182410550347197  1.0000
  N   N24       1.0  0.45890892645410425  0.2133829092301498  0.8402379880572749  1.0000
  C   C477      1.0  0.47449721728868005  0.2720347107059087  0.83206470299234  1.0000
  C   C478      1.0  0.46004381979717346  0.1722817402690835  0.8133600723612847  1.0000
  C   C479      1.0  0.4233801445177814  0.2234152000788252  0.8494413017935865  1.0000
  C   C480      1.0  0.4777510424546428  0.18579899287761492  0.8662112522320943  1.0000
  H   H533      1.0  0.47311888914667205  0.3044246688206198  0.8516660798295186  1.0000
  H   H534      1.0  0.46151241261962994  0.2935448096358859  0.8120280098294901  1.0000
  H   H535      1.0  0.5016638858858409  0.2665517698347719  0.826023178267585  1.0000
  H   H536      1.0  0.448351281074755  0.12765031656767278  0.8187488714112194  1.0000
  H   H537      1.0  0.4462171304355938  0.19147704066281235  0.7931958853379918  1.0000
  H   H538      1.0  0.48649401672127907  0.16306913636359277  0.8059379010110413  1.0000
  H   H539      1.0  0.42175261651444107  0.2514644654010998  0.8707308883443078  1.0000
  H   H540      1.0  0.41032654330788604  0.17989023473236654  0.8543933117931914  1.0000
  H   H541      1.0  0.4087216819651546  0.24677393114191948  0.8309723578468591  1.0000
  H   H542      1.0  0.46672308805854057  0.14153515014544693  0.8729357554522409  1.0000
  H   H543      1.0  0.4769477195896037  0.21497218805352047  0.8870536503649472  1.0000
  H   H544      1.0  0.5047717715511799  0.17821532595889544  0.8603067402925949  1.0000
  N   N25       1.0  0.1510954447025119  0.5136102183297171  0.2919875103737099  1.0000
  C   C481      1.0  0.12027739924662773  0.551417224187571  0.29259858859412763  1.0000
  C   C482      1.0  0.14724213436445854  0.46554458356702844  0.26862203946177743  1.0000
  C   C483      1.0  0.1564387741971751  0.48627228753899415  0.32279714226981016  1.0000
  C   C484      1.0  0.18048641278245658  0.5514040292279913  0.2839370281823484  1.0000
  H   H545      1.0  0.12243525211693673  0.5883689321985931  0.30984171710030145  1.0000
  H   H546      1.0  0.09779888165315764  0.5243014671396647  0.29896958606321966  1.0000
  H   H547      1.0  0.1150005748574423  0.5723928045047637  0.26971079786538726  1.0000
  H   H548      1.0  0.1704573709736048  0.4372373096847259  0.2670019602213708  1.0000
  H   H549      1.0  0.1259417837296961  0.4350994332121939  0.2743649309970796  1.0000
  H   H550      1.0  0.1420609272397657  0.48485587309148537  0.24530795781139553  1.0000
  H   H551      1.0  0.13453043598635261  0.4578362791087545  0.32972427301414714  1.0000
  H   H552      1.0  0.16003346899379656  0.5217646422105706  0.3407653619697087  1.0000
  H   H553      1.0  0.1793582190798022  0.4570910547315883  0.32323477377736415  1.0000
  H   H554      1.0  0.20418767141742666  0.5241173929450169  0.28348098840463026  1.0000
  H   H555      1.0  0.1841652523751549  0.5878916010065388  0.30117086562507817  1.0000
  H   H556      1.0  0.17714964883821538  0.5730980586853145  0.2608911822185064  1.0000
  N   N26       1.0  0.880954051886587  0.5332704515492591  0.005005508365257816  1.0000
  C   C485      1.0  0.8612877680093597  0.5733420430436948  0.9842852520851447  1.0000
  C   C486      1.0  0.9056370032607413  0.5696511053479641  0.02268230630705581  1.0000
  C   C487      1.0  0.899134224166439  0.48771251573513713  0.9864386535945291  1.0000
  C   C488      1.0  0.8577171963668497  0.5024309845831235  0.02653865427520663  1.0000
  H   H557      1.0  0.8777452069084823  0.5956390323411498  0.9669713330979665  1.0000
  H   H558      1.0  0.8483044520477123  0.6098922238045638  0.9973924669551821  1.0000
  H   H559      1.0  0.8414351641332952  0.5478496786261471  0.971533855953324  1.0000
  H   H560      1.0  0.92029465524785  0.5411555313461579  0.03919800967345677  1.0000
  H   H561      1.0  0.9240955857515013  0.5922044603538648  0.007116725046227179  1.0000
  H   H562      1.0  0.8929269397883743  0.6060992095941993  0.03608175254032764  1.0000
  H   H563      1.0  0.9143400097245423  0.4567019752892635  0.0013067615663664434  1.0000
  H   H564      1.0  0.9167467103590188  0.5094637442741342  0.9698002596142156  1.0000
  H   H565      1.0  0.8812946868841318  0.45922920391512356  0.972900707243873  1.0000
  H   H566      1.0  0.8439576109325893  0.5357810621743859  0.04108720785911779  1.0000
  H   H567      1.0  0.8714221550447111  0.47046974953889314  0.042072082726172466  1.0000
  H   H568      1.0  0.8382026058019127  0.475873571919096  0.013890003194822365  1.0000
  N   N27       1.0  0.7942635106200605  0.24545781339907413  0.420296743533258  1.0000
  C   C489      1.0  0.7644972989344794  0.21037625525856282  0.43042777273724614  1.0000
  C   C490      1.0  0.8085354881888492  0.27893898435114334  0.44682095060646426  1.0000
  C   C491      1.0  0.7839646644697992  0.28870881715304864  0.3959262148998838  1.0000
  C   C492      1.0  0.82007305810175  0.2037048242540866  0.4079296875894902  1.0000
  H   H569      1.0  0.7530599522861102  0.18483461783543986  0.4108677821214851  1.0000
  H   H570      1.0  0.7445029690469385  0.24052867027989974  0.43983773672272203  1.0000
  H   H571      1.0  0.7713399457985237  0.17699051396940724  0.44868137175656053  1.0000
  H   H572      1.0  0.8167156974137616  0.24755296441882965  0.46558533791154294  1.0000
  H   H573      1.0  0.8311835613844992  0.3055801980476288  0.44000243538826  1.0000
  H   H574      1.0  0.7898111402217559  0.31114162620289687  0.45675334470363066  1.0000
  H   H575      1.0  0.8057802025605469  0.3157437321047563  0.38754250392118483  1.0000
  H   H576      1.0  0.764587183242071  0.32098505214937595  0.4044771780892329  1.0000
  H   H577      1.0  0.7727857727880846  0.26488568279654423  0.3756870927735816  1.0000
  H   H578      1.0  0.842869014319665  0.22868395765884053  0.4000489260435361  1.0000
  H   H579      1.0  0.8101970327597497  0.17766404324253648  0.3879192189702423  1.0000
  H   H580      1.0  0.8284952034369386  0.17041760328306377  0.4256909431891471  1.0000
  N   N28       1.0  0.35374644439271546  0.5882416869241694  0.7161010351560819  1.0000
  C   C493      1.0  0.3696556124614737  0.5302302043571246  0.7072171226817  1.0000
  C   C494      1.0  0.3781443319592474  0.6381459753601674  0.7118710714760448  1.0000
  C   C495      1.0  0.34321883218750004  0.585361907632805  0.7487945798730514  1.0000
  C   C496      1.0  0.32386271213178197  0.5991892354722337  0.696359846153036  1.0000
  H   H581      1.0  0.3516814342549188  0.491814013298616  0.7095049395537699  1.0000
  H   H582      1.0  0.39193157748271895  0.5197645271196693  0.7219587675309322  1.0000
  H   H583      1.0  0.37834667835835994  0.5312663000543406  0.6827907278288303  1.0000
  H   H584      1.0  0.36678720729392195  0.6826135258157728  0.7181065627942603  1.0000
  H   H585      1.0  0.40098711791432007  0.6315433620726405  0.7264890143281308  1.0000
  H   H586      1.0  0.38661464407580637  0.6413382647573524  0.6874010736633407  1.0000
  H   H587      1.0  0.3309473892474853  0.6283526354240774  0.7562222613789241  1.0000
  H   H588      1.0  0.3651736566714756  0.5768936208217431  0.7644305388629329  1.0000
  H   H589      1.0  0.3244887766560344  0.5485725862419163  0.7526779182473042  1.0000
  H   H590      1.0  0.3104895660916679  0.6416679180344327  0.7028591841550991  1.0000
  H   H591      1.0  0.3055243900972806  0.5613336248626917  0.6981481512494673  1.0000
  H   H592      1.0  0.33100089544668054  0.6032758583009974  0.6716506662110256  1.0000
  N   N29       1.0  0.09307147087011036  0.8279235970739603  0.16478985662961926  1.0000
  C   C497      1.0  0.09488272969994394  0.7744151737328873  0.14440214674315266  1.0000
  C   C498      1.0  0.12647618042039377  0.8577547649947531  0.16606266808407866  1.0000
  C   C499      1.0  0.0831752815511706  0.808296114463768  0.19612672738231893  1.0000
  C   C500      1.0  0.06775862167875979  0.8711651519927514  0.1525594163078996  1.0000
  H   H593      1.0  0.07016777366109594  0.7504262159651165  0.1432830111157489  1.0000
  H   H594      1.0  0.11388682560990993  0.7410674117574421  0.15293749479132465  1.0000
  H   H595      1.0  0.10201805790352503  0.7873428197130933  0.12047164040645114  1.0000
  H   H596      1.0  0.12585108400761214  0.8990918113127662  0.18072060536239296  1.0000
  H   H597      1.0  0.1461453084422295  0.8269285454631209  0.17564082928425157  1.0000
  H   H598      1.0  0.1350052674073483  0.8721260799075736  0.1426894452268065  1.0000
  H   H599      1.0  0.08120470318075301  0.8472317069725195  0.21219292480924862  1.0000
  H   H600      1.0  0.1017782026392684  0.7757098203735928  0.20605934976050935  1.0000
  H   H601      1.0  0.058216159927476197  0.7851103316613994  0.19596612022298068  1.0000
  H   H602      1.0  0.04229670892879511  0.8501094393274174  0.15089411528389413  1.0000
  H   H603      1.0  0.07472165805371422  0.8875056096003852  0.12909181994354496  1.0000
  H   H604      1.0  0.06544019896800268  0.9117455608728272  0.16762173737252184  1.0000
  N   N30       1.0  0.3627986347710902  0.8817079080131185  0.17115964161250563  1.0000
  C   C501      1.0  0.3402774671901698  0.9267061839028844  0.18577325326830274  1.0000
  C   C502      1.0  0.3909503086334375  0.9131919384841238  0.15559395072716642  1.0000
  C   C503      1.0  0.343529225800884  0.8463959424060575  0.14814142021420174  1.0000
  C   C504      1.0  0.3765033727900054  0.8405460888466614  0.1950831418696699  1.0000
  H   H605      1.0  0.31804434298779977  0.9046651023201365  0.19672854078495683  1.0000
  H   H606      1.0  0.33041892954964436  0.9598372455219484  0.1686149048403187  1.0000
  H   H607      1.0  0.35379331578490403  0.9530233418163455  0.2038593826868973  1.0000
  H   H608      1.0  0.40813356851985916  0.8804118509869573  0.14397199882631262  1.0000
  H   H609      1.0  0.3814317102165967  0.9454183399942802  0.13771696788163168  1.0000
  H   H610      1.0  0.40642390192321276  0.9394131233426154  0.17233963412427866  1.0000
  H   H611      1.0  0.3219921231976576  0.8220446614877588  0.15894781164047123  1.0000
  H   H612      1.0  0.3598881350675045  0.8120972935726478  0.1366747983545471  1.0000
  H   H613      1.0  0.33287419354754516  0.8763509471328367  0.12977831026201625  1.0000
  H   H614      1.0  0.3942875632244502  0.8069590415369146  0.18502280206144706  1.0000
  H   H615      1.0  0.356015981907102  0.8149797578099711  0.20677496552943864  1.0000
  H   H616      1.0  0.3906663909716304  0.8660463247456336  0.21310239723167612  1.0000
  N   N31       1.0  0.12075287428195991  0.6361616663350559  0.6908490752933972  1.0000
  C   C505      1.0  0.14377702001983828  0.6094982660136036  0.7141191420360007  1.0000
  C   C506      1.0  0.12736483885968175  0.608671412091871  0.6603630357184418  1.0000
  C   C507      1.0  0.1264246183111979  0.7022467208948735  0.6890794101953313  1.0000
  C   C508      1.0  0.08545905728239345  0.6241815434124574  0.6999512017674249  1.0000
  H   H617      1.0  0.1404242653486183  0.5596008989955916  0.7159694930566375  1.0000
  H   H618      1.0  0.13938019695140458  0.6291765726959068  0.737403350520482  1.0000
  H   H619      1.0  0.17056076856218505  0.6182498646041805  0.708213802576371  1.0000
  H   H620      1.0  0.11028719510901408  0.6275245417796449  0.6422511632713215  1.0000
  H   H621      1.0  0.15379570587584102  0.6171445259577293  0.652794205525661  1.0000
  H   H622      1.0  0.12342610105661111  0.5587271434167339  0.6607338183675885  1.0000
  H   H623      1.0  0.10950348391436093  0.723946000947951  0.6717142405341657  1.0000
  H   H624      1.0  0.15287696047643018  0.7127427096746269  0.6822169301575469  1.0000
  H   H625      1.0  0.12191783382626453  0.7244077967544156  0.71177344601281  1.0000
  H   H626      1.0  0.06725796120640326  0.6443013743615351  0.6832175516224053  1.0000
  H   H627      1.0  0.07991938647803853  0.6430505519441687  0.7231961720091341  1.0000
  H   H628      1.0  0.08038644237149128  0.5746467970140844  0.7010902631433183  1.0000
  N   N32       1.0  0.40619554389980334  0.4668250981447207  0.060146723603037966  1.0000
  C   C509      1.0  0.42433710768468613  0.5243615668232087  0.06546310948525247  1.0000
  C   C510      1.0  0.4195665890055588  0.43716295404085864  0.032169730402130225  1.0000
  C   C511      1.0  0.3697355396119177  0.47917776113862676  0.0559907466927021  1.0000
  C   C512      1.0  0.41120134644945877  0.426523988189845  0.08702903228231262  1.0000
  H   H629      1.0  0.4155354044829129  0.5471943676944707  0.08689134887669869  1.0000
  H   H630      1.0  0.4203883862511676  0.5564563663773079  0.04600762542029013  1.0000
  H   H631      1.0  0.45212624942391505  0.5168520837542612  0.06781133479053092  1.0000
  H   H632      1.0  0.40728261922586384  0.3925488092280175  0.028141350336080784  1.0000
  H   H633      1.0  0.41518832956827  0.46553763486820976  0.011284836862532899  1.0000
  H   H634      1.0  0.44730693672136695  0.4291019868190461  0.03408991303424069  1.0000
  H   H635      1.0  0.35515520521969646  0.43650468510028717  0.05290993628409524  1.0000
  H   H636      1.0  0.3649014132595782  0.5082005761174647  0.03538019891559996  1.0000
  H   H637      1.0  0.35911928016614797  0.5028917561119219  0.07640991048227552  1.0000
  H   H638      1.0  0.3980825778035617  0.3823466365202612  0.08381818675033581  1.0000
  H   H639      1.0  0.40102265104979257  0.44714765072591034  0.10849061621792022  1.0000
  H   H640      1.0  0.4385228739484155  0.41717955088376096  0.09094350245161498  1.0000
  N   N33       1.0  0.8029536088571132  0.9933949116299087  0.23459657250635266  1.0000
  C   C513      1.0  0.8394785711087709  0.999520576664084  0.24089102126289355  1.0000
  C   C514      1.0  0.793391627254802  0.03470976019531058  0.2091694819233706  1.0000
  C   C515      1.0  0.7834380627059861  0.009117234302211674  0.26251093172044854  1.0000
  C   C516      1.0  0.7956106173451523  0.9301974862297154  0.22569315102830423  1.0000
  H   H641      1.0  0.8476386859795024  0.9693480518829972  0.26012360316379035  1.0000
  H   H642      1.0  0.8461613962610066  0.04677574389073724  0.24727482226863887  1.0000
  H   H643      1.0  0.8549004977944601  0.9874518998927678  0.22032953430228214  1.0000
  H   H644      1.0  0.7661967478320572  0.030272744811015828  0.2032458406663085  1.0000
  H   H645      1.0  0.7979999168085894  0.08287450223045556  0.21536454366889604  1.0000
  H   H646      1.0  0.8081684096109558  0.024986414519317934  0.18795386562000851  1.0000
  H   H647      1.0  0.7557404226945681  0.0042561640707490245  0.2585256318630851  1.0000
  H   H648      1.0  0.7880786699997485  0.056755532332978254  0.2696534518015741  1.0000
  H   H649      1.0  0.790451384721441  0.9796206607970324  0.28239981106472445  1.0000
  H   H650      1.0  0.7683022153553368  0.923916757714774  0.2203161239752485  1.0000
  H   H651      1.0  0.8023875849152334  0.8979678702980702  0.2445145542432336  1.0000
  H   H652      1.0  0.8103669292478722  0.9167306748758726  0.20491409565584112  1.0000
  N   N34       1.0  0.8243388264145648  0.47728514725747617  0.6828812831107661  1.0000
  C   C517      1.0  0.8218018477471576  0.5418138636284663  0.6916643309655867  1.0000
  C   C518      1.0  0.8466084975170819  0.4451777003839329  0.7050104203411847  1.0000
  C   C519      1.0  0.8385544966535272  0.4723970421207035  0.651448541280087  1.0000
  C   C520      1.0  0.7903035532951032  0.44978642758518456  0.6833921707834493  1.0000
  H   H653      1.0  0.8469558688167762  0.5642829119270054  0.6911724848146145  1.0000
  H   H654      1.0  0.8114853217180819  0.5470574958446861  0.7154217329245406  1.0000
  H   H655      1.0  0.8047995026916052  0.5672771865725468  0.6756823592404687  1.0000
  H   H656      1.0  0.8725220089902403  0.46476982326148664  0.7052640417770824  1.0000
  H   H657      1.0  0.8367536953466757  0.4480245751422761  0.7290390360878073  1.0000
  H   H658      1.0  0.8490545449172363  0.39631338351296425  0.6990800751516427  1.0000
  H   H659      1.0  0.8406404532127161  0.42427382461814883  0.6440332895307176  1.0000
  H   H660      1.0  0.8643229906587486  0.4924500390033924  0.6501245387249664  1.0000
  H   H661      1.0  0.8224108640521031  0.4961635214062005  0.6341491443774111  1.0000
  H   H662      1.0  0.7911387210346934  0.4009574632352135  0.6770942974471349  1.0000
  H   H663      1.0  0.7729989279807384  0.4725167118088896  0.6666846807713932  1.0000
  H   H664      1.0  0.7785979427965771  0.45322264409731144  0.7066583721876999  1.0000
  N   N35       1.0  0.059855556802812515  0.5648663395895931  0.9131538928140273  1.0000
  C   C521      1.0  0.08104959177365557  0.5123706304392981  0.9219637175688085  1.0000
  C   C522      1.0  0.045527641428185994  0.5928297198346616  0.9411770181655938  1.0000
  C   C523      1.0  0.032199944507337985  0.5441521392357372  0.8928079566750099  1.0000
  C   C524      1.0  0.08061087573279126  0.6100203874183134  0.8965903872798497  1.0000
  H   H665      1.0  0.0923641314261348  0.4904194332277374  0.9013016094499109  1.0000
  H   H666      1.0  0.06608741668037932  0.47727832130861586  0.9343427911434625  1.0000
  H   H667      1.0  0.10224872643069302  0.5261126120687607  0.9373228972318061  1.0000
  H   H668      1.0  0.029480326468095844  0.6327366475883343  0.9353277367795457  1.0000
  H   H669      1.0  0.02969499755629546  0.5601663603187628  0.9543070159435166  1.0000
  H   H670      1.0  0.06579626533497575  0.6092970172745901  0.9568995064667276  1.0000
  H   H671      1.0  0.015733194223487512  0.5105131888356946  0.9045960203277799  1.0000
  H   H672      1.0  0.04233632076466032  0.5218145951562168  0.8718036105677973  1.0000
  H   H673      1.0  0.01602809291778895  0.5826036440100478  0.8851019626795419  1.0000
  H   H674      1.0  0.09196731641421732  0.5904280120532768  0.8753458240729957  1.0000
  H   H675      1.0  0.10180172919902714  0.626610546680338  0.9112705534263681  1.0000
  H   H676      1.0  0.065274423442786  0.6501748542647544  0.8895673455219927  1.0000
  N   N36       1.0  0.7139769348085024  0.7595724342448995  0.0020503737062047556  1.0000
  C   C525      1.0  0.7092491100887695  0.7383120796747135  0.9700150747239972  1.0000
  C   C526      1.0  0.6807006470861634  0.7738176438536037  0.015638403534457446  1.0000
  C   C527      1.0  0.7352700211429022  0.8145579026244196  0.0021153577532813106  1.0000
  C   C528      1.0  0.7306893786339452  0.7115434301416929  0.020434394187645477  1.0000
  H   H677      1.0  0.7338724334474851  0.7271272362493911  0.959063465889504  1.0000
  H   H678      1.0  0.6966232905787353  0.7731881389264067  0.9554008027206525  1.0000
  H   H679      1.0  0.6933942533994575  0.6966979372219219  0.9692136082875175  1.0000
  H   H680      1.0  0.6835026859754462  0.7923469235919861  0.03933490366366388  1.0000
  H   H681      1.0  0.6668668573618061  0.8083879914349654  0.0017810397708499792  1.0000
  H   H682      1.0  0.6644877112717121  0.7327769515819348  0.017253916451270168  1.0000
  H   H683      1.0  0.7605794012081892  0.8054583636150541  0.9919888568899949  1.0000
  H   H684      1.0  0.7395326720378268  0.8313937500589508  0.02603538138504669  1.0000
  H   H685      1.0  0.7233379634804074  0.8520539311433635  0.9887380424398468  1.0000
  H   H686      1.0  0.7342927651750717  0.7254762162312263  0.04488028716240122  1.0000
  H   H687      1.0  0.7561019803292269  0.7002743530475894  0.011108633709278948  1.0000
  H   H688      1.0  0.7156739929259854  0.6689624714457829  0.020608519586666763  1.0000
  N   N37       1.0  0.560780411941008  0.8731041611502022  0.7370593445375345  1.0000
  C   C529      1.0  0.5971649521232231  0.8680051485526175  0.7299119926732762  1.0000
  C   C530      1.0  0.5408252713204754  0.865049912860799  0.708515645198006  1.0000
  C   C531      1.0  0.5535932988700085  0.9334750310988283  0.7501908268676706  1.0000
  C   C532      1.0  0.5513587666741632  0.8256236822962235  0.7595165083947079  1.0000
  H   H689      1.0  0.6047336159735325  0.9009209182980584  0.7117232770465312  1.0000
  H   H690      1.0  0.6036802518676707  0.8220564178853484  0.7212265675805262  1.0000
  H   H691      1.0  0.6130808134372462  0.8762838915615375  0.7506953460492168  1.0000
  H   H692      1.0  0.5457589564803156  0.8202091678425297  0.6979254259458488  1.0000
  H   H693      1.0  0.5132794690737725  0.8682805877347011  0.7130990997823209  1.0000
  H   H694      1.0  0.5472196750521134  0.8998776909879038  0.6908370109350738  1.0000
  H   H695      1.0  0.5269054172672054  0.9371649527119336  0.7578057176024564  1.0000
  H   H696      1.0  0.558174329031759  0.9702726260954456  0.7331106855696383  1.0000
  H   H697      1.0  0.5695848591194083  0.9431356002913648  0.7706676505582882  1.0000
  H   H698      1.0  0.5560161109121133  0.7795640491544757  0.7500643226594232  1.0000
  H   H699      1.0  0.5241902767001069  0.8288380238137597  0.7658954411976299  1.0000
  H   H700      1.0  0.5664186888960951  0.8294197734623908  0.7810589246228292  1.0000
  N   N38       1.0  0.5882017042647465  0.5037848882049502  0.6790381530965167  1.0000
  C   C533      1.0  0.6087523486838456  0.5144002667122217  0.6511346288002403  1.0000
  C   C534      1.0  0.558403597216727  0.5440571641719816  0.6782548251182365  1.0000
  C   C535      1.0  0.6085522916591923  0.5168803071146505  0.7068710637307654  1.0000
  C   C536      1.0  0.5770362691086566  0.4399544281499751  0.6798045077732541  1.0000
  H   H701      1.0  0.6316292472090147  0.4851591378178337  0.6508888065546361  1.0000
  H   H702      1.0  0.6173685457821682  0.5623481214192182  0.6496500037154502  1.0000
  H   H703      1.0  0.5942535202914934  0.5049139885088866  0.6296166470836654  1.0000
  H   H704      1.0  0.5438257840934547  0.537589003226204  0.6565678529014752  1.0000
  H   H705      1.0  0.5411145311196892  0.5350730411035632  0.6979744033543732  1.0000
  H   H706      1.0  0.5659766752589617  0.5925821540072331  0.6790963505602029  1.0000
  H   H707      1.0  0.5936262094841097  0.5103805173485468  0.7283463102729459  1.0000
  H   H708      1.0  0.6179583754930037  0.5643811259132676  0.7067448622936614  1.0000
  H   H709      1.0  0.6310362787741977  0.4867069790225294  0.7084138308808606  1.0000
  H   H710      1.0  0.5612353812630567  0.43043108407296576  0.7004970985182261  1.0000
  H   H711      1.0  0.5989650411227688  0.40834158579380925  0.6803316093539511  1.0000
  H   H712      1.0  0.5615342084438416  0.42862140355396794  0.6591760903401034  1.0000
  N   N39       1.0  0.3259423141301843  0.6065185754126209  0.24143677462891452  1.0000
  C   C537      1.0  0.30061964585077056  0.5831824197973386  0.21931055617788803  1.0000
  C   C538      1.0  0.3112829525845334  0.607534014673996  0.2727788676387046  1.0000
  C   C539      1.0  0.3359503892072202  0.6685835634879704  0.23241819568725997  1.0000
  C   C540      1.0  0.35602478741785515  0.5667400668607044  0.24129609919747705  1.0000
  H   H713      1.0  0.29251034279879545  0.5364159942671108  0.225466884934324  1.0000
  H   H714      1.0  0.3109678051401333  0.581202663802571  0.19547068159120437  1.0000
  H   H715      1.0  0.27763050064609623  0.6123365413588423  0.21862207033263853  1.0000
  H   H716      1.0  0.3299833317073438  0.6239517038088996  0.2900929642108915  1.0000
  H   H717      1.0  0.288874804426677  0.6380456110482672  0.27394401528348833  1.0000
  H   H718      1.0  0.3030541210191275  0.5615440323578352  0.2802100128814048  1.0000
  H   H719      1.0  0.31390041857448553  0.7000498461608312  0.23250595563919893  1.0000
  H   H720      1.0  0.3471421659594055  0.6693824773274284  0.20885134736726438  1.0000
  H   H721      1.0  0.3551124491913596  0.6874050463011918  0.2486667857832302  1.0000
  H   H722      1.0  0.37567207491864607  0.5831530333384849  0.25768733564367224  1.0000
  H   H723      1.0  0.36775926847408713  0.5645800249195742  0.2180109328494678  1.0000
  H   H724      1.0  0.349652372485455  0.5195102207893378  0.2482018260042573  1.0000
  N   N40       1.0  0.5822198690085462  0.4639881790823235  0.9616368446421186  1.0000
  C   C541      1.0  0.5646576831630409  0.4080989647358139  0.9712976930596569  1.0000
  C   C542      1.0  0.5926669814266616  0.498322255864379  0.9893177078256326  1.0000
  C   C543      1.0  0.5592522299585131  0.5015761812181551  0.9426107875910301  1.0000
  C   C544      1.0  0.6123426384127052  0.4478097922743414  0.9432814849988546  1.0000
  H   H725      1.0  0.5819510434535594  0.3774250321625549  0.9842072064070786  1.0000
  H   H726      1.0  0.5550194896470573  0.38236708050148827  0.951127225612107  1.0000
  H   H727      1.0  0.5427297108290584  0.4180810658134598  0.9865349846518456  1.0000
  H   H728      1.0  0.5706586773523739  0.5092034490118023  0.004344063984094371  1.0000
  H   H729      1.0  0.6109164336173037  0.47201419090492447  0.0036498927471899645  1.0000
  H   H730      1.0  0.6048664991349548  0.5419513963518171  0.9830243588838031  1.0000
  H   H731      1.0  0.5362549562174572  0.5146287623744704  0.955652308498122  1.0000
  H   H732      1.0  0.5508851101075186  0.4769387867110033  0.9215798558813967  1.0000
  H   H733      1.0  0.5718477962260522  0.544075759928604  0.9349394662114074  1.0000
  H   H734      1.0  0.6055140296249885  0.4190786827644758  0.9231824214366442  1.0000
  H   H735      1.0  0.6311548055191076  0.4221012672762033  0.9573240840186296  1.0000
  H   H736      1.0  0.6250684664398298  0.4887503829365768  0.9339021574734823  1.0000
  N   N41       1.0  0.4102190408663147  0.14170423750146255  0.30958519565930925  1.0000
  C   C545      1.0  0.37784397380998436  0.1734297083475349  0.31503047842319326  1.0000
  C   C546      1.0  0.42756296854413606  0.16895411853491038  0.28277665998866347  1.0000
  C   C547      1.0  0.40358959705060143  0.07717299126383215  0.3032412354719269  1.0000
  C   C548      1.0  0.43196244763724573  0.1467486040215793  0.3372645477731454  1.0000
  H   H737      1.0  0.3610132650488051  0.17111905120445203  0.29443867077748376  1.0000
  H   H738      1.0  0.3818207226861033  0.22214022256193378  0.3204082423404707  1.0000
  H   H739      1.0  0.3639721681575637  0.15351710229857285  0.3349217206223246  1.0000
  H   H740      1.0  0.4530609343849495  0.14877627383544523  0.27944479421137935  1.0000
  H   H741      1.0  0.4130048709466412  0.16238407957298984  0.2610101637481207  1.0000
  H   H742      1.0  0.43155084796311405  0.21828355170444477  0.2858779721144652  1.0000
  H   H743      1.0  0.39116777085998705  0.05459062606040144  0.32319092133174504  1.0000
  H   H744      1.0  0.4274925944124748  0.05238257564682081  0.2984570254830791  1.0000
  H   H745      1.0  0.3869480835223038  0.07126407813964852  0.28269438131532787  1.0000
  H   H746      1.0  0.45664948643601183  0.12326053676490624  0.3338971160757196  1.0000
  H   H747      1.0  0.4198323253420271  0.12589543048518292  0.35784331798654795  1.0000
  H   H748      1.0  0.4375785611517603  0.1948738760029083  0.3426556123355291  1.0000
  N   N42       1.0  0.8900858255445736  0.12244297016808114  0.07607558566493844  1.0000
  C   C549      1.0  0.8584117068148056  0.1575074283209894  0.07284340653933774  1.0000
  C   C550      1.0  0.9006097174802928  0.12117127226659563  0.10884421571481706  1.0000
  C   C551      1.0  0.9168601401550791  0.15121676189918354  0.057432519717516506  1.0000
  C   C552      1.0  0.8845123199887646  0.05985679668380639  0.06514713142054407  1.0000
  H   H749      1.0  0.8610279331259459  0.20394154332383674  0.08237392699363277  1.0000
  H   H750      1.0  0.837293902463685  0.13547560640617595  0.08528953329853617  1.0000
  H   H751      1.0  0.8505080915098088  0.16176687861492955  0.048228043281023814  1.0000
  H   H752      1.0  0.9252165289622629  0.09734594117853024  0.11181364101003122  1.0000
  H   H753      1.0  0.9038745903613747  0.16769532678182975  0.11822992038124802  1.0000
  H   H754      1.0  0.8817347850448893  0.09731446329171156  0.1234988569662323  1.0000
  H   H755      1.0  0.9411169413964303  0.12572534393604884  0.05920439432358715  1.0000
  H   H756      1.0  0.9219697739514207  0.1982134633866386  0.06531897373622364  1.0000
  H   H757      1.0  0.9096978986861374  0.1535468138273468  0.03259802432495529  1.0000
  H   H758      1.0  0.8754243093202975  0.05917200243362575  0.04080036245929208  1.0000
  H   H759      1.0  0.8651791059933711  0.03612521709063321  0.07933022813338653  1.0000
  H   H760      1.0  0.9081463482464569  0.03251928696588191  0.066482139374898  1.0000
  N   N43       1.0  0.9167791321413077  0.9903918685898173  0.48168924013355163  1.0000
  C   C553      1.0  0.8993961296594741  0.022573906379791397  0.5069672902129843  1.0000
  C   C554      1.0  0.9467237683762686  0.9585104007707201  0.4942576836572886  1.0000
  C   C555      1.0  0.927503960691156  0.03458814531179467  0.45799963399382687  1.0000
  C   C556      1.0  0.8934557555837317  0.9460209486519194  0.4676013378904966  1.0000
  H   H761      1.0  0.8770515878276037  0.04832043522509544  0.4983730425701471  1.0000
  H   H762      1.0  0.9165788599904579  0.055481543608617345  0.5184176517781212  1.0000
  H   H763      1.0  0.8906394039190805  0.9904218155980361  0.5251106933693657  1.0000
  H   H764      1.0  0.9599328607053764  0.9318870689806096  0.47619199690631847  1.0000
  H   H765      1.0  0.9652295306290407  0.9908614162606759  0.5043972835009782  1.0000
  H   H766      1.0  0.9395335343634573  0.9265835273190395  0.5130675490127061  1.0000
  H   H767      1.0  0.9054626452934647  0.05945221339622653  0.4480960537412519  1.0000
  H   H768      1.0  0.940894180064418  0.012049394245333467  0.4386289393578549  1.0000
  H   H769      1.0  0.9447624405245336  0.06923371770314413  0.4678977163666585  1.0000
  H   H770      1.0  0.9057280172464097  0.9207738930420365  0.44845127894616904  1.0000
  H   H771      1.0  0.8704562714806083  0.9685199351195765  0.4581314122296501  1.0000
  H   H772      1.0  0.8848702092424172  0.9118859278547884  0.4847885244780613  1.0000
  N   N44       1.0  0.5626520823090303  0.9434562545047981  0.21119689165908895  1.0000
  C   C557      1.0  0.5900258438348233  0.9490142557348039  0.18832952523081614  1.0000
  C   C558      1.0  0.5457994124778885  0.8841436733721564  0.20765161930906417  1.0000
  C   C559      1.0  0.5376769126717974  0.9922309630912294  0.20620505082416668  1.0000
  C   C560      1.0  0.5770584073961103  0.9484313687265495  0.24258395665864993  1.0000
  H   H773      1.0  0.6037873731580192  0.9926896686856456  0.19069597495634488  1.0000
  H   H774      1.0  0.5799478992061609  0.9465220033678747  0.1643359548431652  1.0000
  H   H775      1.0  0.6088218900689696  0.9118421533125531  0.1911332103831887  1.0000
  H   H776      1.0  0.5251720165003511  0.8781940362734711  0.22478803668329683  1.0000
  H   H777      1.0  0.5345243107508977  0.8790217639304804  0.18422925455559316  1.0000
  H   H778      1.0  0.563880228719834  0.8460519346812914  0.2110734092112286  1.0000
  H   H779      1.0  0.5164546075411001  0.9880751027546032  0.2227805903538982  1.0000
  H   H780      1.0  0.526607840061747  0.9904406783042489  0.18254976592663713  1.0000
  H   H781      1.0  0.5491996647404486  0.037792458598322254  0.2091644219952596  1.0000
  H   H782      1.0  0.5570780551737863  0.9466141486899781  0.2605316874977082  1.0000
  H   H783      1.0  0.5912421988219855  0.9914268005259663  0.24575902377568207  1.0000
  H   H784      1.0  0.5949106969399656  0.9105757885755762  0.24756638733205016  1.0000
  N   N45       1.0  0.7276042585795951  0.6464105430294684  0.54311710165266  1.0000
  C   C561      1.0  0.6908749181864078  0.6427518034725939  0.548997255124275  1.0000
  C   C562      1.0  0.7360787133356004  0.6119254662454736  0.5149599343617233  1.0000
  C   C563      1.0  0.746182935888944  0.6204080110838098  0.5696677314130633  1.0000
  C   C564      1.0  0.7372886887007504  0.710551880686693  0.5390055697626391  1.0000
  H   H785      1.0  0.6838804335650425  0.6677348690979875  0.5704105008458963  1.0000
  H   H786      1.0  0.6826541551427872  0.5951150421516551  0.5524996800699912  1.0000
  H   H787      1.0  0.6759224803747073  0.6621925346990309  0.5295965355603316  1.0000
  H   H788      1.0  0.7637091875034566  0.613273212214217  0.5101899563640953  1.0000
  H   H789      1.0  0.7290465287193868  0.5632742235405056  0.5172667587260892  1.0000
  H   H790      1.0  0.722720463199335  0.630272906795847  0.494336380708996  1.0000
  H   H791      1.0  0.7739633329944331  0.6265286211988224  0.5673587876418836  1.0000
  H   H792      1.0  0.7410245613473017  0.571234683763853  0.5722497432719607  1.0000
  H   H793      1.0  0.7384196718276879  0.6420236904533635  0.591717809707139  1.0000
  H   H794      1.0  0.7304971361531197  0.7378084756667623  0.5596542953400196  1.0000
  H   H795      1.0  0.7243340376660401  0.7314297372491647  0.5187846782775538  1.0000
  H   H796      1.0  0.7650294374930512  0.715461901602969  0.5355777236795572  1.0000
  N   N46       1.0  0.7135758729061712  0.2010407204915705  0.07316404218686468  1.0000
  C   C565      1.0  0.7453472992165551  0.19813714577033537  0.09115519345808343  1.0000
  C   C566      1.0  0.7008240261163079  0.1391358543669834  0.06781076921983642  1.0000
  C   C567      1.0  0.7200806271972567  0.23082263623038868  0.04317919096691125  1.0000
  C   C568      1.0  0.6880089404750194  0.23578743296156568  0.09052843752062678  1.0000
  H   H797      1.0  0.7556670034693085  0.2442326730827742  0.0956151217502339  1.0000
  H   H798      1.0  0.7651633606804925  0.17231974998463673  0.07855528784248622  1.0000
  H   H799      1.0  0.7414554015769238  0.17549983619701837  0.11387784072108209  1.0000
  H   H800      1.0  0.6952320060430337  0.11566045210750908  0.08999768379255291  1.0000
  H   H801      1.0  0.6772220507967391  0.13957894430192352  0.05376499412573499  1.0000
  H   H802      1.0  0.7196443366008676  0.11136090735664372  0.055162165364249116  1.0000
  H   H803      1.0  0.7391079675037916  0.20529365042674774  0.029451176410881796  1.0000
  H   H804      1.0  0.7297789968986418  0.27769090702492694  0.046375575536465874  1.0000
  H   H805      1.0  0.696599562174145  0.23436550137227985  0.02904372005967848  1.0000
  H   H806      1.0  0.6637157515903288  0.23885128597359406  0.0775466499679971  1.0000
  H   H807      1.0  0.6965032220536926  0.2829780613687509  0.09472162268613737  1.0000
  H   H808      1.0  0.6827194245569905  0.2145894486692288  0.11334795025949629  1.0000
  N   N47       1.0  0.9335762603441438  0.41220350842507186  0.3095357281912831  1.0000
  C   C569      1.0  0.929408609654595  0.34890568171234343  0.2994914369212871  1.0000
  C   C570      1.0  0.9002771491199111  0.4376677825065425  0.31788077472021337  1.0000
  C   C571      1.0  0.9483828422026741  0.44767122246342533  0.28404732799854937  1.0000
  C   C572      1.0  0.9563662331393601  0.4142279247145175  0.33661486945650454  1.0000
  H   H809      1.0  0.9541974185836425  0.328440220904768  0.29315455436446963  1.0000
  H   H810      1.0  0.912627563439847  0.3455632738746215  0.2789069164330747  1.0000
  H   H811      1.0  0.9185533813785949  0.3205440048665003  0.3182583663593429  1.0000
  H   H812      1.0  0.9023803095834657  0.4858933470510903  0.3249321453612526  1.0000
  H   H813      1.0  0.8823457271485311  0.4362722282086047  0.29805432898576195  1.0000
  H   H814      1.0  0.8886922993713126  0.41237209622045873  0.3373661060567954  1.0000
  H   H815      1.0  0.9545252023370941  0.494226938953357  0.29168161620623073  1.0000
  H   H816      1.0  0.9308174665920653  0.45128976520506325  0.26402323092822433  1.0000
  H   H817      1.0  0.9723341517088261  0.42691364408164917  0.2757369348058424  1.0000
  H   H818      1.0  0.959952369057151  0.4614131584315667  0.345026708723348  1.0000
  H   H819      1.0  0.9818459322728798  0.39604112191397217  0.33090218638215096  1.0000
  H   H820      1.0  0.9465028760299083  0.38657294902562817  0.3560850479145779  1.0000
  N   N48       1.0  0.11918554589127815  0.6087779716626898  0.04559090975265612  1.0000
  C   C573      1.0  0.08685777054144833  0.6416487449985526  0.04221795804936068  1.0000
  C   C574      1.0  0.12704121638101554  0.5771234062481537  0.016443341462673455  1.0000
  C   C575      1.0  0.11623822687767939  0.5640638583200274  0.07091572418523029  1.0000
  C   C576      1.0  0.14635556403779398  0.6525142401697718  0.052759864465269146  1.0000
  H   H821      1.0  0.0805410664729389  0.6669298855506104  0.0636405651990366  1.0000
  H   H822      1.0  0.06552537123801927  0.6100198402504808  0.03770226717575076  1.0000
  H   H823      1.0  0.08775754703486982  0.6749399133462237  0.022915340554811925  1.0000
  H   H824      1.0  0.15123064683195425  0.5515772254319398  0.018235808735007852  1.0000
  H   H825      1.0  0.10696951406934876  0.5438324333380449  0.010370522886248068  1.0000
  H   H826      1.0  0.12950047361665012  0.6096481047575139  0.9968852785547291  1.0000
  H   H827      1.0  0.14015564503871428  0.538400204823211  0.07438591135773942  1.0000
  H   H828      1.0  0.09601295512916111  0.5302942306851088  0.06608611532511666  1.0000
  H   H829      1.0  0.1098801684827884  0.5864111265350268  0.09318996904163424  1.0000
  H   H830      1.0  0.17132884254631464  0.6298454323823309  0.054884888659173736  1.0000
  H   H831      1.0  0.14176049792938758  0.6762369850011541  0.07500685927898076  1.0000
  H   H832      1.0  0.14873847542139723  0.6877250291306004  0.03445915820401346  1.0000
  N   N49       1.0  0.24785108653164592  0.22823363673127367  0.12919231500855954  1.0000
  C   C577      1.0  0.256823963735898  0.2837895152995479  0.1463349950490943  1.0000
  C   C578      1.0  0.2537754121955045  0.2380513262651395  0.09588732997980522  1.0000
  C   C579      1.0  0.21181230336395696  0.21404472928528195  0.13431290057822245  1.0000
  C   C580      1.0  0.2689324848273945  0.1772241453872596  0.1402856258523328  1.0000
  H   H833      1.0  0.25274920089249486  0.27795433662235886  0.17159481109720112  1.0000
  H   H834      1.0  0.24120766279349806  0.323107187622499  0.1386349157772784  1.0000
  H   H835      1.0  0.2838285870258741  0.29612921013136484  0.1428360792268173  1.0000
  H   H836      1.0  0.23784134656769412  0.2757500673693603  0.08673870290741133  1.0000
  H   H837      1.0  0.28064048765273897  0.24996962545975396  0.09129796958053606  1.0000
  H   H838      1.0  0.24779916367401658  0.19671079599070262  0.08224290736117833  1.0000
  H   H839      1.0  0.20636165365463863  0.20833614622921492  0.15931637853206537  1.0000
  H   H840      1.0  0.20441549727791522  0.1712811360682127  0.12254040072131804  1.0000
  H   H841      1.0  0.1951763631250252  0.2509368568750674  0.12545288224322565  1.0000
  H   H842      1.0  0.2626711263249195  0.13437089885201448  0.1280396897199815  1.0000
  H   H843      1.0  0.26513195719212584  0.1687851559703457  0.16539396203018364  1.0000
  H   H844      1.0  0.2963064674269607  0.18608042091506638  0.1365316683069299  1.0000
  N   N50       1.0  0.46610927105868477  0.17874730761927426  0.45460771467087296  1.0000
  C   C581      1.0  0.490879689635641  0.2283954200392566  0.45788736642761857  1.0000
  C   C582      1.0  0.47210514766537426  0.1332822866093124  0.4790701333878991  1.0000
  C   C583      1.0  0.4699681306980934  0.1499798452158414  0.4240192573897605  1.0000
  C   C584      1.0  0.4314560373720297  0.20308828096094045  0.4577377717343305  1.0000
  H   H845      1.0  0.48737796659788696  0.2634650546381101  0.4396837999006729  1.0000
  H   H846      1.0  0.5172461945099645  0.21118888410996894  0.45609674146874835  1.0000
  H   H847      1.0  0.4882697128930981  0.2515987204455401  0.4805787473782083  1.0000
  H   H848      1.0  0.4522007518661826  0.09773777055874544  0.47902864528269873  1.0000
  H   H849      1.0  0.4968871055119613  0.11023495724381904  0.4761873539057522  1.0000
  H   H850      1.0  0.4714879259743634  0.15429409852228781  0.5024018478062767  1.0000
  H   H851      1.0  0.4509852323821095  0.11352618703549666  0.42047305179819017  1.0000
  H   H852      1.0  0.4953887190507832  0.1289072783450027  0.4212093255635163  1.0000
  H   H853      1.0  0.46668487913307355  0.1831765052533303  0.40495543898672076  1.0000
  H   H854      1.0  0.42619399774256417  0.23929843958264385  0.4404637829417869  1.0000
  H   H855      1.0  0.4273034638172894  0.22227737092761513  0.4811797388883039  1.0000
  H   H856      1.0  0.41215666609329743  0.16692308347123874  0.4545510159093279  1.0000
  N   N51       1.0  0.06651392468569273  0.7792164186936769  0.4425840374257598  1.0000
  C   C585      1.0  0.06958941672213004  0.7133136762557786  0.4481359799084664  1.0000
  C   C586      1.0  0.030532403950723545  0.7969000354276595  0.4437243040858693  1.0000
  C   C587      1.0  0.08031210464693107  0.7941623330616644  0.4117976818368804  1.0000
  C   C588      1.0  0.08540173898511753  0.8123867977507089  0.46670949121955607  1.0000
  H   H857      1.0  0.05971120256536411  0.7004603401349321  0.4712918052788814  1.0000
  H   H858      1.0  0.09640669378980442  0.6981156806219542  0.44718766513407154  1.0000
  H   H859      1.0  0.055111639878623775  0.686807983278995  0.4307377162804132  1.0000
  H   H860      1.0  0.02731612508596593  0.8466286716437237  0.44089115796673717  1.0000
  H   H861      1.0  0.01577617552870647  0.7744553858842299  0.4250771310701546  1.0000
  H   H862      1.0  0.01889634884490743  0.783516701451414  0.46608211177648484  1.0000
  H   H863      1.0  0.07899720583595515  0.8436517821230588  0.4069295381431558  1.0000
  H   H864      1.0  0.06624857121837335  0.7704705182364395  0.3930860576378036  1.0000
  H   H865      1.0  0.10721061866014261  0.7803431810273632  0.4097340841416042  1.0000
  H   H866      1.0  0.08413049801717043  0.8622886402625294  0.463119063298897  1.0000
  H   H867      1.0  0.11253195033645005  0.7994353879099498  0.46694765460909204  1.0000
  H   H868      1.0  0.07535201777767965  0.8024352945845158  0.49017326074939993  1.0000
  N   N52       1.0  0.13457795434907235  0.27947072993425515  0.9262859096512447  1.0000
  C   C589      1.0  0.16991172178192057  0.2582428519748533  0.9287844386452805  1.0000
  C   C590      1.0  0.13331090017003702  0.3362393747136124  0.9081494638602595  1.0000
  C   C591      1.0  0.121086491751695  0.29064665626930514  0.9574784061548401  1.0000
  C   C592      1.0  0.11385668775089539  0.2326732930461132  0.9109406657803008  1.0000
  H   H869      1.0  0.18052091857577884  0.24676349226013303  0.9057788807269214  1.0000
  H   H870      1.0  0.17169670512544588  0.2167603993479596  0.9433138755446091  1.0000
  H   H871      1.0  0.18647377171572105  0.29306396261771495  0.9395353938533006  1.0000
  H   H872      1.0  0.14367265439217328  0.3295690013241405  0.8845624408557831  1.0000
  H   H873      1.0  0.10685009594543801  0.35291408966078225  0.9055655208651154  1.0000
  H   H874      1.0  0.14813592361452177  0.37293598745843126  0.9194305073359362  1.0000
  H   H875      1.0  0.09449659374062373  0.3070044345966076  0.9563932516411299  1.0000
  H   H876      1.0  0.13607920618757297  0.3255113260886619  0.9699125981833938  1.0000
  H   H877      1.0  0.12145266864521358  0.2486647876315799  0.9717511139618178  1.0000
  H   H878      1.0  0.08700558299032314  0.2470333545111313  0.9087844380093875  1.0000
  H   H879      1.0  0.11383086838137225  0.1894280689349415  0.9241753063377669  1.0000
  H   H880      1.0  0.12330268280308448  0.2220633986074564  0.8874111557204531  1.0000
  N   N53       1.0  0.7100918176583852  0.4079935300941944  0.8406200206853324  1.0000
  C   C593      1.0  0.7162452174188221  0.36709829401806304  0.8670839156210515  1.0000
  C   C594      1.0  0.6861897108443358  0.45613802715889673  0.8498765553428227  1.0000
  C   C595      1.0  0.6954190915652934  0.37334080437984085  0.8147311935809464  1.0000
  C   C596      1.0  0.7424389396482332  0.43513496374135957  0.830752424222167  1.0000
  H   H881      1.0  0.6922883841907724  0.3465029235405121  0.8753017522000446  1.0000
  H   H882      1.0  0.7276150670105018  0.39173295775866995  0.8869196925829959  1.0000
  H   H883      1.0  0.7336396547573711  0.32938625255338816  0.8608214633850922  1.0000
  H   H884      1.0  0.680407967818939  0.4871535995493942  0.8302745233999048  1.0000
  H   H885      1.0  0.6616880837466937  0.43690167009715675  0.8576967414644752  1.0000
  H   H886      1.0  0.6963468471807533  0.48367311230633653  0.8692821752229855  1.0000
  H   H887      1.0  0.6913268993837002  0.4026714222712034  0.7941126116258671  1.0000
  H   H888      1.0  0.6704250965801024  0.3539803959209568  0.8210647881507763  1.0000
  H   H889      1.0  0.7122308502777123  0.3352608304794736  0.8077725392951633  1.0000
  H   H890      1.0  0.7388108867585769  0.46576904101322364  0.8105550504309004  1.0000
  H   H891      1.0  0.7609681933845407  0.3996578870137892  0.8238773611306308  1.0000
  H   H892      1.0  0.7541158523167689  0.4622941402104567  0.8495645276259952  1.0000
  N   N54       1.0  0.6991851360189265  0.1377585448620393  0.6413624260511518  1.0000
  C   C597      1.0  0.7124561590605825  0.08575744766691251  0.6237824910352533  1.0000
  C   C598      1.0  0.6926021606540785  0.18862891578922292  0.619943646945554  1.0000
  C   C599      1.0  0.7243164087640991  0.15635925914840532  0.6647812292451202  1.0000
  C   C600      1.0  0.6674100654659242  0.12005500395256097  0.656795421830784  1.0000
  H   H893      1.0  0.718508982995392  0.04696950794737664  0.6392208356101645  1.0000
  H   H894      1.0  0.7358956499438876  0.09770179481882058  0.6110585882358649  1.0000
  H   H895      1.0  0.6936494247830638  0.069709807419152  0.6065568363160977  1.0000
  H   H896      1.0  0.6740052075412742  0.175835406898039  0.6017880725135439  1.0000
  H   H897      1.0  0.6826407327386779  0.2289149843824987  0.632367288246808  1.0000
  H   H898      1.0  0.7161446188341036  0.20308774208138214  0.6080189768576714  1.0000
  H   H899      1.0  0.7294737623663727  0.11936865557565524  0.6816205924714018  1.0000
  H   H900      1.0  0.7155054270622082  0.19653391220153726  0.6780022799524819  1.0000
  H   H901      1.0  0.7488121286475107  0.16881318132592038  0.6539388453470821  1.0000
  H   H902      1.0  0.6567015174013314  0.15806967490925272  0.6704672097154224  1.0000
  H   H903      1.0  0.6715416052967691  0.08144980343661845  0.6729205605119081  1.0000
  H   H904      1.0  0.6478561533300711  0.10549369111947726  0.6398000333958709  1.0000
  N   N55       1.0  0.061293918358579225  0.02274118393824409  0.02226140870207649  1.0000
  C   C601      1.0  0.08848455506804997  0.057088676429530194  0.006908402696532034  1.0000
  C   C602      1.0  0.040102082952506946  0.9928863516546255  0.998622198886736  1.0000
  C   C603      1.0  0.040241943823750015  0.06465487269178083  0.040559057697534984  1.0000
  C   C604      1.0  0.07643126172101988  0.9765321833325822  0.04287317717212402  1.0000
  H   H905      1.0  0.1047713273183477  0.08084798532274173  0.02400401691975618  1.0000
  H   H906      1.0  0.07802087769285726  0.09187794534433102  0.9908016429505637  1.0000
  H   H907      1.0  0.10499352991892952  0.02648914820788595  0.9932275245191236  1.0000
  H   H908      1.0  0.018936769998945335  0.9673146811324377  0.009357909422130994  1.0000
  H   H909      1.0  0.028800534008415868  0.026622824064594264  0.9823895440341472  1.0000
  H   H910      1.0  0.05503383418539931  0.960240222794451  0.984645559889009  1.0000
  H   H911      1.0  0.01939440942152504  0.04034503693630098  0.052516111371141205  1.0000
  H   H912      1.0  0.028481319895221846  0.10022731995651024  0.025753526713572672  1.0000
  H   H913      1.0  0.05533484802490696  0.08803199345039636  0.05866522923168916  1.0000
  H   H914      1.0  0.056644779799812195  0.9498259795740852  0.054945891205569364  1.0000
  H   H915      1.0  0.0925748513939324  0.9976733098875372  0.060980252381495736  1.0000
  H   H916      1.0  0.09249124506115236  0.944073093561809  0.029845686573106267  1.0000
  N   N56       1.0  0.4682301374085537  0.6230167495605683  0.34444957927416975  1.0000
  C   C605      1.0  0.478745845631496  0.6026944285867856  0.3755703271790808  1.0000
  C   C606      1.0  0.47335748295969926  0.6889328755610787  0.34150561389917566  1.0000
  C   C607      1.0  0.43207966733596936  0.6093322907414017  0.3395717366754854  1.0000
  C   C608      1.0  0.4887290779845103  0.5914193628741122  0.3210282673174857  1.0000
  H   H917      1.0  0.47529719955074506  0.5529398792657723  0.37845637342142774  1.0000
  H   H918      1.0  0.46382772180310383  0.6255720706940541  0.393877635089989  1.0000
  H   H919      1.0  0.5059800291913789  0.6124607925796837  0.3799110253637756  1.0000
  H   H920      1.0  0.500165353024826  0.7012674301737909  0.34517897893739996  1.0000
  H   H921      1.0  0.46595333471002975  0.7055027180628475  0.318134912668931  1.0000
  H   H922      1.0  0.4578910425111316  0.714354210836081  0.3585608969942951  1.0000
  H   H923      1.0  0.4237134066589631  0.6226570466133604  0.31593181432155043  1.0000
  H   H924      1.0  0.4157837832829935  0.6342596884840502  0.35616392298073224  1.0000
  H   H925      1.0  0.426893281971098  0.5602367839310869  0.34226064377667487  1.0000
  H   H926      1.0  0.48450289541557057  0.5417102624458691  0.3218357328125061  1.0000
  H   H927      1.0  0.5161849465997569  0.5991554095851307  0.324688941634155  1.0000
  H   H928      1.0  0.482363421645401  0.607187408717718  0.29729352783276974  1.0000
  N   N57       1.0  0.2947497713236646  0.9715814267786893  0.7815607661201491  1.0000
  C   C609      1.0  0.32522360087348334  0.9436586125500065  0.767936818667873  1.0000
  C   C610      1.0  0.28346316989752823  0.022868148680451617  0.7620590564099016  1.0000
  C   C611      1.0  0.3028567023643121  0.9938283587500212  0.8128491448047469  1.0000
  C   C612      1.0  0.2674995763727821  0.9260140371373298  0.7834850831025096  1.0000
  H   H929      1.0  0.32011610132026996  0.9263767037084668  0.7442769193610511  1.0000
  H   H930      1.0  0.3344137517649937  0.9047873460220633  0.7821224784321871  1.0000
  H   H931      1.0  0.34634940466359704  0.9767592392452352  0.7663342734435533  1.0000
  H   H932      1.0  0.3032295292744002  0.05858414475463425  0.7604947712703958  1.0000
  H   H933      1.0  0.2770991364199759  0.007971604011086653  0.7382155770496426  1.0000
  H   H934      1.0  0.26051033508016275  0.044916728117050164  0.77167392780444  1.0000
  H   H935      1.0  0.2804065350557776  0.014703127917346182  0.824030765863085  1.0000
  H   H936      1.0  0.3230821227003831  0.028821093668114584  0.8122936536116097  1.0000
  H   H937      1.0  0.3117844872994137  0.9567125300959233  0.8281039818375344  1.0000
  H   H938      1.0  0.24421637742357835  0.9454588646422866  0.7939048113256316  1.0000
  H   H939      1.0  0.2752219873413995  0.8866326583594144  0.7979679811890403  1.0000
  H   H940      1.0  0.26050425600275384  0.9085399293652898  0.7602572559150572  1.0000
  N   N58       1.0  0.9643598052810338  0.4896854970301342  0.5431747854317871  1.0000
  C   C613      1.0  0.9683711110149473  0.45807206236658  0.5133747868521604  1.0000
  C   C614      1.0  0.9558877564701117  0.4455005622079687  0.5676619851625154  1.0000
  C   C615      1.0  0.9370081520203761  0.5350105888993276  0.540480584927672  1.0000
  C   C616      1.0  0.9962787885232899  0.5205708686988922  0.5511270253951148  1.0000
  H   H941      1.0  0.9755968685242207  0.4902736560842608  0.4946682712401944  1.0000
  H   H942      1.0  0.9445334843904634  0.43544521352866417  0.5062017287996475  1.0000
  H   H943      1.0  0.9884208621153684  0.42268826645320795  0.5147049820674499  1.0000
  H   H944      1.0  0.9759628500822659  0.41049758842987694  0.5703170051307659  1.0000
  H   H945      1.0  0.9528515113681788  0.46805663669364644  0.5904727273579722  1.0000
  H   H946      1.0  0.9318148525261589  0.4214112712963901  0.5625894308958953  1.0000
  H   H947      1.0  0.9336682305759956  0.5603400454170774  0.562445094410405  1.0000
  H   H948      1.0  0.9123960396899455  0.513374757607524  0.5348265939716744  1.0000
  H   H949      1.0  0.9425322817856969  0.5686784230765539  0.5219749988869574  1.0000
  H   H950      1.0  0.9946615762213397  0.5432895883174587  0.5739512996014042  1.0000
  H   H951      1.0  0.0030288469438068955  0.5554189819381332  0.5335608951047032  1.0000
  H   H952      1.0  0.017599898750801923  0.488048886154445  0.5523466614523165  1.0000
  N   N59       1.0  0.04602233755800267  0.2818008876741216  0.745121407898861  1.0000
  C   C617      1.0  0.08329880186365246  0.2841032453004464  0.7435124249908606  1.0000
  C   C618      1.0  0.031433406491073956  0.32692763990498436  0.7235902412404003  1.0000
  C   C619      1.0  0.035040189930553245  0.29573034261602854  0.776866138136971  1.0000
  C   C620      1.0  0.034316594727452854  0.2204897759724458  0.7366818440291849  1.0000
  H   H953      1.0  0.09517829746561435  0.2517131452167575  0.7600630042944932  1.0000
  H   H954      1.0  0.09295433566297873  0.33004821890844  0.7492958346147452  1.0000
  H   H955      1.0  0.09267458827298936  0.2727112915715675  0.720054293950272  1.0000
  H   H956      1.0  0.003315652137081626  0.32674888954543674  0.7243582879850442  1.0000
  H   H957      1.0  0.039791945272732  0.3737131390163415  0.7294505385011921  1.0000
  H   H958      1.0  0.03917534904028086  0.31804273877313677  0.699355792117472  1.0000
  H   H959      1.0  0.045532197350488524  0.26258710032762983  0.7937930053272142  1.0000
  H   H960      1.0  0.007067556839569056  0.29372141278721026  0.7790652856537281  1.0000
  H   H961      1.0  0.04322175668389994  0.3417511140948448  0.7839945972634528  1.0000
  H   H962      1.0  0.006248632093262874  0.2172531615877807  0.7376571840433666  1.0000
  H   H963      1.0  0.04443132758298751  0.18569467329110156  0.7529786983992963  1.0000
  H   H964      1.0  0.04241085680177159  0.20794302703788145  0.7129933526056481  1.0000
  N   N60       1.0  0.7369227638494079  0.9144594724638477  0.8035640882833822  1.0000
  C   C621      1.0  0.7176803305395275  0.8916829333300955  0.8303097130902135  1.0000
  C   C622      1.0  0.7367123806497226  0.9812426956595106  0.8040713363595963  1.0000
  C   C623      1.0  0.7209214629236157  0.8930755316715883  0.7747141390882334  1.0000
  C   C624      1.0  0.7721313209706298  0.8921456171938215  0.8052614960652701  1.0000
  H   H965      1.0  0.7293206859580407  0.9059245087890547  0.8525266584096134  1.0000
  H   H966      1.0  0.7163676366562359  0.8415128059730113  0.8301184864173387  1.0000
  H   H967      1.0  0.6911587867106769  0.9088311388451815  0.8299832736053683  1.0000
  H   H968      1.0  0.7519442899467249  0.0005817963670433635  0.7848875423127915  1.0000
  H   H969      1.0  0.710516066092031  0.9990888684209185  0.8021122939319794  1.0000
  H   H970      1.0  0.7471346214670188  0.9989278888108625  0.8260397244087623  1.0000
  H   H971      1.0  0.7346081719329517  0.9098566440892122  0.753996982149821  1.0000
  H   H972      1.0  0.6942591049404647  0.9090366828526858  0.7728588072224138  1.0000
  H   H973      1.0  0.7203010300807392  0.8427341598201036  0.773625662750698  1.0000
  H   H974      1.0  0.7873142269175091  0.9087056188728964  0.785365554490583  1.0000
  H   H975      1.0  0.7731637827310788  0.8416850466006105  0.8052615137802591  1.0000
  H   H976      1.0  0.7850556329447212  0.9082537290416249  0.8265544096227185  1.0000
  N   N61       1.0  0.567050155892306  0.020450204376852188  0.9410717764512857  1.0000
  C   C625      1.0  0.5825408957210985  0.07376293418427116  0.9560336277477807  1.0000
  C   C626      1.0  0.5396191115760625  0.04063721495285355  0.92025161396872  1.0000
  C   C627      1.0  0.553174282969759  0.9797662648367466  0.9649933574031887  1.0000
  C   C628      1.0  0.5927690025429986  0.9874795556506691  0.9229894513726661  1.0000
  H   H977      1.0  0.5937102828123365  0.10513260888961207  0.9387279241694227  1.0000
  H   H978      1.0  0.6032318132399082  0.060127580139177184  0.9720767417754347  1.0000
  H   H979      1.0  0.5636361442350489  0.09974966338067137  0.9697205486547494  1.0000
  H   H980      1.0  0.5204134499947974  0.06777298225083062  0.9328244674674091  1.0000
  H   H981      1.0  0.5495151169738995  0.06931888418111254  0.9011701669615786  1.0000
  H   H982      1.0  0.526457976650214  0.0012223896578775761  0.9097188167032749  1.0000
  H   H983      1.0  0.5348682341680088  0.004010412616254788  0.9799879606482326  1.0000
  H   H984      1.0  0.5734583329788858  0.9619273219264194  0.9803590580757864  1.0000
  H   H985      1.0  0.5399067261475207  0.9403164502144429  0.9545146503478796  1.0000
  H   H986      1.0  0.5817490518208221  0.9471418271567184  0.9113890939187771  1.0000
  H   H987      1.0  0.6139173970137686  0.9715049379044183  0.9379149560655572  1.0000
  H   H988      1.0  0.6040240637464991  0.016830355883715953  0.904802518182167  1.0000
  N   N62       1.0  0.34774891904912225  0.21145781462757984  0.971099591354384  1.0000
  C   C629      1.0  0.33943767274748904  0.2663883520777086  0.9890082267002555  1.0000
  C   C630      1.0  0.36388605724334205  0.2294583157756147  0.941783870962894  1.0000
  C   C631      1.0  0.31644578580322547  0.17729279757634808  0.9644741216590748  1.0000
  C   C632      1.0  0.3712843912618219  0.17282588914926533  0.989012277790217  1.0000
  H   H989      1.0  0.32256689721334375  0.29748540309632565  0.9757134077549655  1.0000
  H   H990      1.0  0.36262755154781395  0.2920908993051494  0.9952727840399421  1.0000
  H   H991      1.0  0.3264156544521563  0.2547901463381288  0.010937725235763418  1.0000
  H   H992      1.0  0.36999238495267167  0.18925954756680285  0.9273430033177609  1.0000
  H   H993      1.0  0.34705381198035334  0.25935561554671116  0.9279477249085264  1.0000
  H   H994      1.0  0.387737196435017  0.25489116735013684  0.9459579726846056  1.0000
  H   H995      1.0  0.32177987125412555  0.1358666086784739  0.9506921553462594  1.0000
  H   H996      1.0  0.29800237516781214  0.20520588800560535  0.9511899331031849  1.0000
  H   H997      1.0  0.3036764216016389  0.16246545184390282  0.986100345003855  1.0000
  H   H998      1.0  0.37821123269080165  0.13113551524111844  0.9760511243857042  1.0000
  H   H999      1.0  0.36000950513604857  0.15827633056116763  0.011292099610505923  1.0000
  H   H1000     1.0  0.3951270779185106  0.19719464909847817  0.994622004913999  1.0000
  N   N63       1.0  0.8491523753428956  0.452658945274641  0.179780705794334  1.0000
  C   C633      1.0  0.8814101312243046  0.4857058972831956  0.17648154279863926  1.0000
  C   C634      1.0  0.8213863883733534  0.49651217110586643  0.18469732443512285  1.0000
  C   C635      1.0  0.851399872470749  0.41109416104879837  0.20650364214980685  1.0000
  C   C636      1.0  0.8424795965187001  0.4172814888588485  0.15148413050231505  1.0000
  H   H1001     1.0  0.90295710356099  0.4540621709101711  0.1727887784392139  1.0000
  H   H1002     1.0  0.8871987694225427  0.5128628266463546  0.19748682081063512  1.0000
  H   H1003     1.0  0.8805712686161457  0.5178003536099383  0.1566492622624058  1.0000
  H   H1004     1.0  0.7966722275645852  0.47335747488763347  0.18796626566701555  1.0000
  H   H1005     1.0  0.8259825207936548  0.5250383818088831  0.20546936141071276  1.0000
  H   H1006     1.0  0.8183472305160839  0.527772706591668  0.16466657202621532  1.0000
  H   H1007     1.0  0.8274980525774237  0.3853530029001915  0.20961622736285182  1.0000
  H   H1008     1.0  0.8562912372072135  0.4364021619228684  0.22824670179096662  1.0000
  H   H1009     1.0  0.8722415254027462  0.3775175740942245  0.20360742807724333  1.0000
  H   H1010     1.0  0.8178008790730824  0.3932406281696039  0.15271588888539245  1.0000
  H   H1011     1.0  0.8623778558815717  0.3824225791737288  0.14751279335685738  1.0000
  H   H1012     1.0  0.8416379241990095  0.4468246873241035  0.13068521793375693  1.0000
  N   N64       1.0  0.2358758161898923  0.41742805265580046  0.8297137925724192  1.0000
  C   C637      1.0  0.2386977828541714  0.3517921310565622  0.83575228203501  1.0000
  C   C638      1.0  0.26461245968109526  0.4492263899537478  0.844286233770556  1.0000
  C   C639      1.0  0.20388481796486013  0.4402182002140738  0.8428043349624307  1.0000
  C   C640      1.0  0.23616391552452373  0.4283717817803525  0.7960691748256278  1.0000
  H   H1013     1.0  0.2380941159830759  0.3420305155441671  0.8609211509223766  1.0000
  H   H1014     1.0  0.2626695389670501  0.33287452399214984  0.8264513144835282  1.0000
  H   H1015     1.0  0.21760838283785947  0.3265015051974304  0.824778219972278  1.0000
  H   H1016     1.0  0.2892873200409606  0.4310900291312042  0.8361702221111953  1.0000
  H   H1017     1.0  0.26402784949848024  0.4986415811965791  0.8391496882926106  1.0000
  H   H1018     1.0  0.26426345682425917  0.44382303358827524  0.8698489819810268  1.0000
  H   H1019     1.0  0.20254731326559447  0.431914510961374  0.8681153030980855  1.0000
  H   H1020     1.0  0.1816350803908464  0.4180344972212193  0.8319401752933665  1.0000
  H   H1021     1.0  0.20120840648719146  0.4898383719813431  0.8392350066255849  1.0000
  H   H1022     1.0  0.26022595287421424  0.412795647226955  0.7855039171369497  1.0000
  H   H1023     1.0  0.23315440558480854  0.4773277552669075  0.7906947592222604  1.0000
  H   H1024     1.0  0.21511374561842242  0.4041057507215658  0.7843102332348124  1.0000
