data_image0
_chemical_formula_structural       FeS2FeS2FeSFeS3FeS2FeS2FeSFeS3FeS2FeS2FeSFeS3FeS2FeS2FeSFeS3FeS2FeS2FeSFeS3FeS2FeS2FeSFeS3FeS2FeS2FeSFeS3FeS2FeS2FeSFeS3FeS2FeS2FeSFeS3FeS2FeS2FeSFeS3FeS2FeS2FeSFeS3FeS2FeS2FeSFeS3FeS2FeS2FeSFeS3FeS2FeS2FeSFeS3FeS2FeS2FeSFeS3FeS2FeS2FeSFeS3C6H4C6H4C6H4C6H4C6H4C6H4C6H4C6H4C6H4C6H4C6H4C6H4C6H4C6H4C6H4C6H4C6H4C6H4C6H4C6H4C6H4C6H4C6H4C6H4C6H4C6H4C6H4C6H4C6H4C6H4C6H4C6H4NC4H12NC4H12NC4H12NC4H12NC4H12NC4H12NC4H12NC4H12NC4H12NC4H12NC4H12NC4H12NC4H12NC4H12NC4H12NC4H12NC4H12NC4H12NC4H12NC4H12NC4H12NC4H12NC4H12NC4H12NC4H12NC4H12NC4H12NC4H12NC4H12NC4H12NC4H12NC4H12
_chemical_formula_sum              "Fe64 S128 C320 H512 N32"
_cell_length_a       27.10925737481837
_cell_length_b       27.416964956224273
_cell_length_c       60.360409854977966
_cell_angle_alpha    91.05944902685981
_cell_angle_beta     87.88602833511867
_cell_angle_gamma    85.27657702396174

_space_group_name_H-M_alt    "P 1"
_space_group_IT_number       1

loop_
  _space_group_symop_operation_xyz
  'x, y, z'

loop_
  _atom_site_type_symbol
  _atom_site_label
  _atom_site_symmetry_multiplicity
  _atom_site_fract_x
  _atom_site_fract_y
  _atom_site_fract_z
  _atom_site_occupancy
  Fe  Fe1       1.0  0.5451895991667819  0.9150682720628803  0.10903083878357228  1.0000
  S   S1        1.0  0.46209943804526216  0.9166815986288027  0.10985376575287686  1.0000
  S   S2        1.0  0.5991229789998844  0.848307684347456  0.10765303033700668  1.0000
  Fe  Fe2       1.0  0.5458139826574273  0.02536050103167753  0.11288721856352989  1.0000
  S   S3        1.0  0.4634371773323883  0.03715740273415858  0.11453556224717608  1.0000
  S   S4        1.0  0.5911045877254288  0.09006168693660521  0.11058388711535014  1.0000
  Fe  Fe3       1.0  0.46606711690319885  0.9730852402547504  0.13694747504772425  1.0000
  S   S5        1.0  0.41766256182869727  0.9789122168851848  0.16769630593541518  1.0000
  Fe  Fe4       1.0  0.4666236754864155  0.9807363982803354  0.08739643273993859  1.0000
  S   S6        1.0  0.4197329212975638  0.9958491398135437  0.058176723613585266  1.0000
  S   S7        1.0  0.5486671505526908  0.9664158186149009  0.13812194491282173  1.0000
  S   S8        1.0  0.5494027294122279  0.9732908545490067  0.08372447540999202  1.0000
  Fe  Fe5       1.0  0.5379393164620488  0.5988919280396118  0.06661521293857242  1.0000
  S   S9        1.0  0.6066102076233659  0.549319776325182  0.058081955609400895  1.0000
  S   S10       1.0  0.5169767631988154  0.6745418952782508  0.054111722311279795  1.0000
  Fe  Fe6       1.0  0.48942594540628076  0.521844642136494  0.0934710059920623  1.0000
  S   S11       1.0  0.552525510098208  0.4650888562873427  0.08677031391263061  1.0000
  S   S12       1.0  0.425030053860348  0.513769096848255  0.11717645314718284  1.0000
  Fe  Fe7       1.0  0.6005808784902661  0.52570016417904  0.09356318004811645  1.0000
  S   S13       1.0  0.6583471227098362  0.5156905684706808  0.11925479845460071  1.0000
  Fe  Fe8       1.0  0.5526233116759263  0.49282976411417884  0.05205540512037393  1.0000
  S   S14       1.0  0.5589423793005266  0.43970254725816893  0.023064383008038182  1.0000
  S   S15       1.0  0.5372955771677348  0.5809214678968637  0.10262891897473558  1.0000
  S   S16       1.0  0.4844047141304165  0.5439044359644996  0.05809883777341464  1.0000
  Fe  Fe9       1.0  0.8741139428058173  0.21870181200127192  0.17787886942363026  1.0000
  S   S17       1.0  0.8467827732698174  0.2981676284985704  0.17752926144480918  1.0000
  S   S18       1.0  0.9532431945936868  0.18852393294084252  0.17168086661972454  1.0000
  Fe  Fe10      1.0  0.7701392421169414  0.18575968952933253  0.1855548725647495  1.0000
  S   S19       1.0  0.734478308794281  0.26234760341795427  0.18570867676956976  1.0000
  S   S20       1.0  0.7227363844061259  0.12405169588223854  0.19248414706509392  1.0000
  Fe  Fe11      1.0  0.7865034785480082  0.272736239867023  0.15677251377222823  1.0000
  S   S21       1.0  0.7648036187787998  0.3024622818493905  0.12369455368284184  1.0000
  Fe  Fe12      1.0  0.7980045526745071  0.2796147458622205  0.20655733021634834  1.0000
  S   S22       1.0  0.7827988160937884  0.3281477640140825  0.23692177959118216  1.0000
  S   S23       1.0  0.8174583278193163  0.1942697820037821  0.15497238879895822  1.0000
  S   S24       1.0  0.8299297348982091  0.20178595270881247  0.20840445039524655  1.0000
  Fe  Fe13      1.0  0.24455074982772806  0.19195104360006718  0.15377174808417582  1.0000
  S   S25       1.0  0.31766566998577334  0.2128299614110117  0.16508456298694094  1.0000
  S   S26       1.0  0.23577013517801684  0.11770947833173329  0.1389507159144944  1.0000
  Fe  Fe14      1.0  0.194512019291206  0.29305165344512196  0.16344845250744064  1.0000
  S   S27       1.0  0.2640082605642871  0.32349434213490597  0.1751080856482325  1.0000
  S   S28       1.0  0.11998544539977751  0.3358284774926972  0.1649133744885554  1.0000
  Fe  Fe15      1.0  0.30149679657024303  0.281052240924823  0.14594332616962044  1.0000
  S   S29       1.0  0.3629056337138035  0.29691172752966966  0.12150563807639245  1.0000
  Fe  Fe16      1.0  0.27399624296387326  0.25253449235261116  0.19298227783340594  1.0000
  S   S30       1.0  0.29895392761872247  0.24328028045108424  0.22775337477611943  1.0000
  S   S31       1.0  0.2308106824559712  0.2573959333777782  0.13261063248355817  1.0000
  S   S32       1.0  0.20210605371425508  0.22509267679538383  0.18351154297682287  1.0000
  Fe  Fe17      1.0  0.613752856032173  0.48759413139433955  0.906294051468699  1.0000
  S   S33       1.0  0.6658753740808915  0.419992550647174  0.902677659362204  1.0000
  S   S34       1.0  0.6115376615721466  0.5439376933189085  0.9337735441526364  1.0000
  Fe  Fe18      1.0  0.5573954608686756  0.4633339489284021  0.865802384368865  1.0000
  S   S35       1.0  0.6021553050086526  0.3915865200952661  0.8589486527866532  1.0000
  S   S36       1.0  0.4961796993338292  0.4935913232062935  0.84462505102507  1.0000
  Fe  Fe19      1.0  0.5971768990954638  0.38240701079274025  0.8958770847630504  1.0000
  S   S37       1.0  0.5853741201917091  0.31715128903525613  0.9168066554392882  1.0000
  Fe  Fe20      1.0  0.6666314163543183  0.4348868937164562  0.8662544684575647  1.0000
  S   S38       1.0  0.7310125703799241  0.43575520746801705  0.8420154322440521  1.0000
  S   S39       1.0  0.5450514408303716  0.4494150401195024  0.9018363950060432  1.0000
  S   S40       1.0  0.6223441087496236  0.5070189010552557  0.8707263555926877  1.0000
  Fe  Fe21      1.0  0.5427208230115076  0.06864163948248911  0.9558303699832155  1.0000
  S   S41       1.0  0.5821431410953494  0.09387458880591004  0.9255647876069413  1.0000
  S   S42       1.0  0.5446350375932338  0.10857184909524231  0.9886602171428719  1.0000
  Fe  Fe22      1.0  0.5078430810891056  0.9811724554945979  0.9320979905137721  1.0000
  S   S43       1.0  0.5424808923328704  0.9990115011593629  0.8991510164381955  1.0000
  S   S44       1.0  0.47436918246086274  0.9102574981347561  0.9388355487299237  1.0000
  Fe  Fe23      1.0  0.6076932790213612  0.015391022639356766  0.9188405531478785  1.0000
  S   S45       1.0  0.6843932991935118  0.99587978268648  0.9043163834008079  1.0000
  Fe  Fe24      1.0  0.5142869675810379  0.07649147086358886  0.9079095363925798  1.0000
  S   S46       1.0  0.48949469054029415  0.13080357963058908  0.8823255034769447  1.0000
  S   S47       1.0  0.5758261758465165  0.9913581280778886  0.9511622634236203  1.0000
  S   S48       1.0  0.4722532007923361  0.05721955849483396  0.9388072033105215  1.0000
  Fe  Fe25      1.0  0.8566545288309144  0.6508268704654289  0.8664444873460393  1.0000
  S   S49       1.0  0.7829696715829668  0.6644489319564165  0.8513523125987493  1.0000
  S   S50       1.0  0.8664113634556573  0.5826490304196212  0.8862137840686588  1.0000
  Fe  Fe26      1.0  0.8928425922648627  0.7450279562408992  0.8493455909874272  1.0000
  S   S51       1.0  0.8210184979789426  0.7673953079736076  0.8333180641222641  1.0000
  S   S52       1.0  0.9565475161970185  0.7916264289792732  0.8437102775119784  1.0000
  Fe  Fe27      1.0  0.7851550223650203  0.7409911725605759  0.8645315835454774  1.0000
  S   S53       1.0  0.7135837130024052  0.7686957723686083  0.8823483227795405  1.0000
  Fe  Fe28      1.0  0.8256771680920768  0.688991028682149  0.8219126369078983  1.0000
  S   S54       1.0  0.812096453343042  0.6670451733789832  0.7869338753279906  1.0000
  S   S55       1.0  0.8565787801733462  0.7259950052878367  0.8818331951392998  1.0000
  S   S56       1.0  0.8997629951380232  0.6681374751803448  0.8356498477065121  1.0000
  Fe  Fe29      1.0  0.3431649980889092  0.738791947679359  0.864548609958653  1.0000
  S   S57       1.0  0.2793789841855441  0.7521257006337146  0.8892404696235363  1.0000
  S   S58       1.0  0.41835172862815223  0.7088484130236825  0.8750012785628837  1.0000
  Fe  Fe30      1.0  0.2889558975942437  0.794338014456124  0.8286161730306713  1.0000
  S   S59       1.0  0.22139580013758814  0.8141732931230862  0.8502392647845163  1.0000
  S   S60       1.0  0.29889579141815065  0.8154650623947264  0.793239885557984  1.0000
  Fe  Fe31      1.0  0.27436123455034817  0.8284108005845948  0.8765845700387839  1.0000
  S   S61       1.0  0.26419038473791395  0.8948851447359861  0.898829394503315  1.0000
  Fe  Fe32      1.0  0.23166255158550952  0.7361556574645843  0.8607040054942535  1.0000
  S   S62       1.0  0.16671389527327407  0.6907293584291607  0.8658206188073029  1.0000
  S   S63       1.0  0.3413791832891377  0.816633477734809  0.8539027322218887  1.0000
  S   S64       1.0  0.29629112086511455  0.714860120431643  0.8370943045927092  1.0000
  Fe  Fe33      1.0  0.8583113701379778  0.017078806391786827  0.6404723594486939  1.0000
  S   S65       1.0  0.9023762706869903  0.027460190426219944  0.6090330629425169  1.0000
  S   S66       1.0  0.8232575347951526  0.0824903134887899  0.6599253534858063  1.0000
  Fe  Fe34      1.0  0.8640232218540643  0.9064142399396847  0.634335384432236  1.0000
  S   S67       1.0  0.9079318262954779  0.9074832373616998  0.6021344107363358  1.0000
  S   S68       1.0  0.8445708717940084  0.8332553606154465  0.6466615189307646  1.0000
  Fe  Fe35      1.0  0.9499812600091472  0.9621902785157735  0.6199590863811468  1.0000
  S   S69       1.0  0.03264634901221308  0.9596976735397698  0.6171088013165767  1.0000
  Fe  Fe36      1.0  0.8560172113646638  0.9721428893453715  0.5943907096852483  1.0000
  S   S70       1.0  0.8162622623575023  0.9817041937701678  0.562565653245756  1.0000
  S   S71       1.0  0.9102489739948192  0.9564759179251535  0.652934510032189  1.0000
  S   S72       1.0  0.807965626619537  0.966400749992206  0.625035199285096  1.0000
  Fe  Fe37      1.0  0.8086126341701338  0.42105455874986525  0.6549709070265465  1.0000
  S   S73       1.0  0.8902650076980665  0.40947586734249247  0.6596462169274272  1.0000
  S   S74       1.0  0.7607688518766611  0.4431983137971362  0.6851620330877588  1.0000
  Fe  Fe38      1.0  0.8192601678747308  0.3997519305537808  0.6057258119007417  1.0000
  S   S75       1.0  0.901663270676135  0.3861319905850282  0.6063114461762702  1.0000
  S   S76       1.0  0.7860038564338183  0.3926621781396814  0.5724977775036437  1.0000
  Fe  Fe39      1.0  0.8864525239362901  0.34435391457942904  0.6370297331300285  1.0000
  S   S77       1.0  0.9321454142075086  0.274363165531618  0.6436050678441512  1.0000
  Fe  Fe40      1.0  0.897185815920629  0.45239198539702014  0.6287492329009174  1.0000
  S   S78       1.0  0.9470750891093704  0.5124263900533825  0.6227766623013462  1.0000
  S   S79       1.0  0.8038959202327194  0.3522620906113947  0.6346851243403224  1.0000
  S   S80       1.0  0.8158637515222563  0.4696783570654685  0.6257615674049194  1.0000
  Fe  Fe41      1.0  0.19033408577289326  0.6707474952542929  0.6973294822043594  1.0000
  S   S81       1.0  0.1330039544043328  0.6791322809918957  0.7249949475858749  1.0000
  S   S82       1.0  0.2652164621507821  0.6300067364045681  0.7001275412619498  1.0000
  Fe  Fe42      1.0  0.12403497016468959  0.7231597719047809  0.6647313642282752  1.0000
  S   S83       1.0  0.06023666430495988  0.7380144256155134  0.6893396659824115  1.0000
  S   S84       1.0  0.13192795313742886  0.7463381392457864  0.6295398506643705  1.0000
  Fe  Fe43      1.0  0.11807751935799293  0.755484064164962  0.7131389997452238  1.0000
  S   S85       1.0  0.10330345560522151  0.8139164181955004  0.7395656528064948  1.0000
  Fe  Fe44      1.0  0.07927871536640684  0.6608045529999268  0.6994606501699279  1.0000
  S   S86       1.0  0.016885611654437784  0.6158555505327291  0.7091479895772855  1.0000
  S   S87       1.0  0.18005765735287743  0.7492867581050412  0.6874248450123025  1.0000
  S   S88       1.0  0.1383847510800936  0.6439782853256739  0.6727215697672534  1.0000
  Fe  Fe45      1.0  0.5119466161353708  0.7439112126143554  0.7030025226076928  1.0000
  S   S89       1.0  0.5380041280287313  0.6650211299778975  0.7074848205683035  1.0000
  S   S90       1.0  0.43370559720870233  0.7747810064873051  0.698776819548891  1.0000
  Fe  Fe46      1.0  0.6136732574303112  0.7797185147086283  0.7087928876928409  1.0000
  S   S91       1.0  0.6494396349321426  0.704359910166509  0.7136540263004129  1.0000
  S   S92       1.0  0.6552970966042091  0.8469799607629  0.7111845500968307  1.0000
  Fe  Fe47      1.0  0.6029976356427355  0.6825392616603589  0.685773115900598  1.0000
  S   S93       1.0  0.6333212161396512  0.6331568966489113  0.657650963769512  1.0000
  Fe  Fe48      1.0  0.5817720441281359  0.6935382232490879  0.7349119002163841  1.0000
  S   S94       1.0  0.5861060876600283  0.6611605674518195  0.7686831981980599  1.0000
  S   S95       1.0  0.5731198387949192  0.7592599690218332  0.6788221055182783  1.0000
  S   S96       1.0  0.5499610666944035  0.770991598477705  0.7325824561152428  1.0000
  Fe  Fe49      1.0  0.11973779128540844  0.26360708266844723  0.385152885636295  1.0000
  S   S97       1.0  0.18516128273566523  0.21586311205814873  0.39584956293886403  1.0000
  S   S98       1.0  0.06348071373142732  0.2880124892156239  0.4122592604171437  1.0000
  Fe  Fe50      1.0  0.15204929171984527  0.25229641443320466  0.3363887141615587  1.0000
  S   S99       1.0  0.21988341267623168  0.2028584943555659  0.3432124849742776  1.0000
  S   S100      1.0  0.1303913609837079  0.27759270531880537  0.3024094357455534  1.0000
  Fe  Fe51      1.0  0.1693203030418825  0.16756542720025708  0.3671523366049485  1.0000
  S   S101      1.0  0.17018855822482665  0.08707613123978097  0.3732987442308204  1.0000
  Fe  Fe52      1.0  0.22941341161193976  0.25585568621475524  0.3711618303655814  1.0000
  S   S102      1.0  0.30077301278350194  0.2866721171247219  0.38038289108091267  1.0000
  S   S103      1.0  0.10043006700146222  0.21250282490696693  0.3581729961026792  1.0000
  S   S104      1.0  0.16507396022460888  0.3083515582435773  0.36274069155628497  1.0000
  Fe  Fe53      1.0  0.6323444184792043  0.2248489845801999  0.38401362942927203  1.0000
  S   S105      1.0  0.5701027880037658  0.2794866913554483  0.37585023104556275  1.0000
  S   S106      1.0  0.6376611819490249  0.19410224216566233  0.4180201968618891  1.0000
  Fe  Fe54      1.0  0.6814980612846361  0.2265968204711865  0.3383484050099167  1.0000
  S   S107      1.0  0.6229220180474183  0.2802300186113266  0.3255914913498323  1.0000
  S   S108      1.0  0.748990339111209  0.19584768113349454  0.318682587722837  1.0000
  Fe  Fe55      1.0  0.6291331387512681  0.31852289799793315  0.35841870480765203  1.0000
  S   S109      1.0  0.6352592439476905  0.3992358610759837  0.3607253010995203  1.0000
  Fe  Fe56      1.0  0.5692650877380918  0.2362212374235582  0.34394565172521147  1.0000
  S   S110      1.0  0.5005599572277123  0.21230295905887156  0.3285441684901917  1.0000
  S   S111      1.0  0.6918796306796907  0.2681124253910411  0.369739715191166  1.0000
  S   S112      1.0  0.6274864329483485  0.17814056595655758  0.3535207643234754  1.0000
  Fe  Fe57      1.0  0.908551613320104  0.012416524731455825  0.4497199534685782  1.0000
  S   S113      1.0  0.8600189783226297  0.9501031202475835  0.45268766721088716  1.0000
  S   S114      1.0  0.9324751686353474  0.05537873612664157  0.4788944584980743  1.0000
  Fe  Fe58      1.0  0.9253633449947563  0.9974995427816631  0.3999984541886623  1.0000
  S   S115      1.0  0.8798893965915011  0.9331064831671937  0.39879304901528534  1.0000
  S   S116      1.0  0.9508962149933522  0.03040011656483732  0.3682527500931882  1.0000
  Fe  Fe59      1.0  0.8270520067590628  0.9791151037033565  0.4215200854726071  1.0000
  S   S117      1.0  0.7474410910825612  0.9818958343673603  0.41242191063587547  1.0000
  Fe  Fe60      1.0  0.9173396460898425  0.9101867391772904  0.42985781781837096  1.0000
  S   S118      1.0  0.9482011785017944  0.8343178036876342  0.4380596225319057  1.0000
  S   S119      1.0  0.8701128394886811  0.04543647359065983  0.4207204947612497  1.0000
  S   S120      1.0  0.9683868323568078  0.9705454706040124  0.4290044995445678  1.0000
  Fe  Fe61      1.0  0.8659260893655684  0.5261967969373229  0.4729486325592728  1.0000
  S   S121      1.0  0.8972757855994853  0.5654461284848892  0.4440507939206669  1.0000
  S   S122      1.0  0.8999399013187364  0.5232680489827314  0.5062233711355676  1.0000
  Fe  Fe62      1.0  0.7761250517410982  0.49966046442296486  0.44922320065842203  1.0000
  S   S123      1.0  0.7983818492917125  0.5362140631888028  0.4180365625513104  1.0000
  S   S124      1.0  0.7105111857642076  0.45591319496000215  0.4544639118213271  1.0000
  Fe  Fe63      1.0  0.8746539860810085  0.5023916111216877  0.4237096327481339  1.0000
  S   S125      1.0  0.9185692289878294  0.47384173771215504  0.39314263991449944  1.0000
  Fe  Fe64      1.0  0.8190471561636308  0.5967804172071659  0.44044567719784383  1.0000
  S   S126      1.0  0.7957423691433161  0.6733035170342728  0.4300210130750525  1.0000
  S   S127      1.0  0.8505840203615223  0.4597716204088888  0.4529816441872751  1.0000
  S   S128      1.0  0.7894864894644037  0.5633264890448133  0.4712720390612917  1.0000
  C   C1        1.0  0.9051897062299546  0.7901451275492999  0.43633976850418976  1.0000
  C   C2        1.0  0.9173250413250132  0.7430314240009396  0.4441393463207123  1.0000
  C   C3        1.0  0.8831705865470122  0.7073695894679836  0.4430971026378259  1.0000
  C   C4        1.0  0.8371858580492971  0.718472911416124  0.43381998434985486  1.0000
  C   C5        1.0  0.8248256718449722  0.7658234169713212  0.42633117656763464  1.0000
  C   C6        1.0  0.8586375625592888  0.8017397535191427  0.427721582825307  1.0000
  H   H1        1.0  0.9531492979133955  0.7341742972338186  0.4510570516870558  1.0000
  H   H2        1.0  0.8926534146268792  0.6712841069166671  0.4493171926993787  1.0000
  H   H3        1.0  0.7891437177013265  0.774688149791381  0.4192690223082569  1.0000
  H   H4        1.0  0.8488296484151236  0.8382117819129768  0.4218952786435367  1.0000
  C   C7        1.0  0.6518543942881881  0.4162848791282595  0.38735326600969905  1.0000
  C   C8        1.0  0.6664889533629749  0.4633276934750686  0.3913060620442902  1.0000
  C   C9        1.0  0.6833967864375584  0.4760898397903816  0.412141268743751  1.0000
  C   C10       1.0  0.6854036748138224  0.441865527736955  0.42904696086686267  1.0000
  C   C11       1.0  0.669239806576959  0.3953521900323657  0.42532181878214387  1.0000
  C   C12       1.0  0.6527877080403871  0.3824357291999274  0.4044279612685736  1.0000
  H   H5        1.0  0.6653864244852643  0.48966937404498484  0.3781616688955383  1.0000
  H   H6        1.0  0.6947220025436143  0.5124499380591232  0.4151174752680543  1.0000
  H   H7        1.0  0.6705452486586226  0.36887274998526065  0.43840549087596553  1.0000
  H   H8        1.0  0.6410032680151742  0.34621973181592597  0.40154440227583676  1.0000
  C   C13       1.0  0.6677331840234625  0.13492601084260608  0.41684405068835695  1.0000
  C   C14       1.0  0.6508933971861897  0.09885685816869438  0.40299786571985236  1.0000
  C   C15       1.0  0.6745707912363011  0.051415031934775035  0.4023759910053946  1.0000
  C   C16       1.0  0.7163201386069669  0.04041261587589573  0.41489942290879495  1.0000
  C   C17       1.0  0.733404939831254  0.07650466573401027  0.42865233147586607  1.0000
  C   C18       1.0  0.7086179882595733  0.1235627176131604  0.4298773372790939  1.0000
  H   H9        1.0  0.6192314340655227  0.10713349276529005  0.39299122621946797  1.0000
  H   H10       1.0  0.6611988690493794  0.02341852165099123  0.3918191818853928  1.0000
  H   H11       1.0  0.7651359434554504  0.06793726538389144  0.43864526257975406  1.0000
  H   H12       1.0  0.721515477575106  0.1513010348090159  0.4407171383512603  1.0000
  C   C19       1.0  0.9601872130328313  0.42314063073379005  0.3984305852239975  1.0000
  C   C20       1.0  0.9632661186566182  0.40482791647795363  0.4198257572516729  1.0000
  C   C21       1.0  0.9949265311220269  0.3631902200782091  0.4238354620381985  1.0000
  C   C22       1.0  0.02441598536079681  0.34014096189201304  0.4065496074618284  1.0000
  C   C23       1.0  0.021792008283557436  0.3585644656930833  0.38511644039087556  1.0000
  C   C24       1.0  0.9894552023198957  0.39993878595414134  0.3810450515084565  1.0000
  H   H13       1.0  0.9417248686012752  0.4229201194874413  0.43339341458195185  1.0000
  H   H14       1.0  0.9971210687625096  0.3492266289300002  0.4404490360071024  1.0000
  H   H15       1.0  0.04449353249613618  0.3408280173231581  0.37168833239402327  1.0000
  H   H16       1.0  0.9873201280627846  0.41397788113655637  0.3644441290254576  1.0000
  C   C25       1.0  0.11178140425761157  0.06598780957469641  0.369392201804389  1.0000
  C   C26       1.0  0.08017731251910544  0.08790095119028107  0.35397345240876843  1.0000
  C   C27       1.0  0.03128003258526358  0.07507965278709183  0.3529413922353803  1.0000
  C   C28       1.0  0.013916988492630691  0.04049164958501916  0.3674178510067939  1.0000
  C   C29       1.0  0.04635167492319913  0.01651515133022241  0.3819163441574519  1.0000
  C   C30       1.0  0.09532419158384015  0.029183081463331817  0.38287727282675715  1.0000
  H   H17       1.0  0.0933895909517832  0.11482247990740779  0.3428726947122778  1.0000
  H   H18       1.0  0.006568971163609413  0.0930855213253583  0.3414033870534727  1.0000
  H   H19       1.0  0.03370091155968647  0.9884852655405324  0.3925229949221513  1.0000
  H   H20       1.0  0.12000499447514669  0.011492045078283164  0.3945262796877422  1.0000
  C   C31       1.0  0.35570039624799976  0.2651729729522684  0.3658088731245291  1.0000
  C   C32       1.0  0.39846122740024975  0.2895136442283093  0.36882017927795335  1.0000
  C   C33       1.0  0.44269643982305884  0.274098332708281  0.35703893383841734  1.0000
  C   C34       1.0  0.4446728987749772  0.23372976289151204  0.3424631953197568  1.0000
  C   C35       1.0  0.4018830692096207  0.20941358959013515  0.3393819794790922  1.0000
  C   C36       1.0  0.35744576626395125  0.22505765704807074  0.3510664306185478  1.0000
  H   H21       1.0  0.3971375539053064  0.3209335590041722  0.3800250084814829  1.0000
  H   H22       1.0  0.47495834869622583  0.2940957196970055  0.3589577731531903  1.0000
  H   H23       1.0  0.4032260568821829  0.17805778975835387  0.3281378929777502  1.0000
  H   H24       1.0  0.32484046473084877  0.20567335077651533  0.34883649381208826  1.0000
  C   C37       1.0  0.31284843512161514  0.6691507018735072  0.701694398673449  1.0000
  C   C38       1.0  0.36198252683413296  0.65110765050168  0.6968800178299434  1.0000
  C   C39       1.0  0.3997846536373393  0.6831598684881177  0.6963509369602774  1.0000
  C   C40       1.0  0.38828134978892803  0.7332107213098743  0.7005697013354337  1.0000
  C   C41       1.0  0.3393902506764519  0.7509224233387284  0.7059536719787887  1.0000
  C   C42       1.0  0.3018516622559667  0.7188211265439786  0.7067551941876702  1.0000
  H   H25       1.0  0.3706240943537078  0.6125594857424838  0.6930372597792153  1.0000
  H   H26       1.0  0.43740347297765647  0.6693817656431175  0.6919270490935105  1.0000
  H   H27       1.0  0.33054511524779523  0.7895590693162357  0.7095509614214627  1.0000
  H   H28       1.0  0.2645342075462712  0.7324466752243118  0.7115493284372457  1.0000
  C   C43       1.0  0.8664254107319427  0.4881172787273201  0.5243973839409117  1.0000
  C   C44       1.0  0.8432050494211282  0.44793910893373384  0.5164637001917508  1.0000
  C   C45       1.0  0.818477890666194  0.41857407485714376  0.5312607290101634  1.0000
  C   C46       1.0  0.8170792043113648  0.429267978372836  0.5540299278903372  1.0000
  C   C47       1.0  0.8404174282132844  0.469377280661015  0.5619642328187519  1.0000
  C   C48       1.0  0.8647183827253017  0.49898707396469844  0.547165323116704  1.0000
  H   H29       1.0  0.8451256518377026  0.4387815642489036  0.49898079554392055  1.0000
  H   H30       1.0  0.8012239203601296  0.3870935648568054  0.525072468296245  1.0000
  H   H31       1.0  0.839400511985708  0.47801421643866276  0.5794895091621239  1.0000
  H   H32       1.0  0.8821707198224112  0.53031448739847  0.5533978050145283  1.0000
  C   C49       1.0  0.9643832151022617  0.5421643812894569  0.6469394200952654  1.0000
  C   C50       1.0  0.9968169219838819  0.5791195577912065  0.645135503897625  1.0000
  C   C51       1.0  0.011988684353888125  0.6026227696438023  0.6642279175276475  1.0000
  C   C52       1.0  0.9950018663151583  0.5890580101115417  0.6852033655580207  1.0000
  C   C53       1.0  0.9610425629671127  0.5534135060723991  0.686995511069148  1.0000
  C   C54       1.0  0.9456877773570531  0.5300374474232997  0.667860069264748  1.0000
  H   H33       1.0  0.010727344476182843  0.5892948314139705  0.6289815277590495  1.0000
  H   H34       1.0  0.03706433464257185  0.6310773588843025  0.6626607544074736  1.0000
  H   H35       1.0  0.9474132941218933  0.5432346957478225  0.7031933405613432  1.0000
  H   H36       1.0  0.9197237122652943  0.5025141096842696  0.6693851016768704  1.0000
  C   C55       1.0  0.7198400614343525  0.49306595958158206  0.6783833446109118  1.0000
  C   C56       1.0  0.703147447357356  0.5285728356159867  0.6945349914273317  1.0000
  C   C57       1.0  0.675018143651089  0.5712332977191614  0.6884424372754451  1.0000
  C   C58       1.0  0.663865232522712  0.5783270770019858  0.6662060987555913  1.0000
  C   C59       1.0  0.6792849968355319  0.5421073572809708  0.6502565303996007  1.0000
  C   C60       1.0  0.7067549515798742  0.4993413282838865  0.6563778903344517  1.0000
  H   H37       1.0  0.7131092467120993  0.5237608074308377  0.711594904960692  1.0000
  H   H38       1.0  0.6627780427603394  0.5989122208581694  0.7008514945138974  1.0000
  H   H39       1.0  0.6701200375324516  0.5472209275317828  0.6331117056619716  1.0000
  H   H40       1.0  0.7178387503291106  0.4711880882855197  0.6440200178289726  1.0000
  C   C61       1.0  0.8488103481557339  0.004839931502577999  0.540006661280181  1.0000
  C   C62       1.0  0.825358949147108  0.009937782776732407  0.5198269257226489  1.0000
  C   C63       1.0  0.8508535662463768  0.0262935840990437  0.5011772078683979  1.0000
  C   C64       1.0  0.8996871396447027  0.03840749788035258  0.5027121329052879  1.0000
  C   C65       1.0  0.9227587929770414  0.03488954467282257  0.5230927733739068  1.0000
  C   C66       1.0  0.8974683784671769  0.01763212341355569  0.5417313274307513  1.0000
  H   H41       1.0  0.787516961377623  0.0006398185918359278  0.518512124455716  1.0000
  H   H42       1.0  0.8325055645444455  0.029966289289996784  0.48561034879249426  1.0000
  H   H43       1.0  0.9606550745895963  0.044070273431804585  0.5242878517691764  1.0000
  H   H44       1.0  0.9158650006822868  0.013571884338833051  0.5572735678005207  1.0000
  C   C67       1.0  0.7909826724336226  0.8381616269307562  0.6639568212877929  1.0000
  C   C68       1.0  0.7649151361267028  0.7968088330507219  0.6674029108104128  1.0000
  C   C69       1.0  0.7222189013529268  0.7998027495994288  0.681324732852344  1.0000
  C   C70       1.0  0.7060961959650615  0.8440057904278871  0.6922271239801981  1.0000
  C   C71       1.0  0.7322189439676696  0.8854151934066508  0.6888483352628553  1.0000
  C   C72       1.0  0.7744578937864082  0.8826146291504015  0.6745672269988818  1.0000
  H   H45       1.0  0.7772726419735604  0.7627586558375467  0.6589543499309621  1.0000
  H   H46       1.0  0.7018718976125292  0.7679150138084231  0.6836171164351157  1.0000
  H   H47       1.0  0.7196692038068307  0.9197282315734238  0.6971804706213207  1.0000
  H   H48       1.0  0.7944622815496382  0.9146973330178856  0.671925615513814  1.0000
  C   C73       1.0  0.05902941301979636  0.8997001690174165  0.6198234465689869  1.0000
  C   C74       1.0  0.10937387705088253  0.8887939588613822  0.6144145952821498  1.0000
  C   C75       1.0  0.13134820003166792  0.8413042372261818  0.6170436180905863  1.0000
  C   C76       1.0  0.10332199981901703  0.8049524108369049  0.6256634375430595  1.0000
  C   C77       1.0  0.05304186302739952  0.8158427922483602  0.6312948623896658  1.0000
  C   C78       1.0  0.030739614572591983  0.8631657495872459  0.6281672986203448  1.0000
  H   H49       1.0  0.1312349228663121  0.916990190922864  0.6079351825768572  1.0000
  H   H50       1.0  0.17015193311599863  0.8329134878521248  0.6125717912211393  1.0000
  H   H51       1.0  0.03121112280437632  0.787638092298323  0.6378018008938879  1.0000
  H   H52       1.0  0.9918187141579239  0.8714135059825457  0.6324519763047977  1.0000
  C   C79       1.0  0.8536037355412667  0.13560670404529954  0.6553874920146815  1.0000
  C   C80       1.0  0.8270177883716843  0.18149705234569044  0.6579336589052587  1.0000
  C   C81       1.0  0.8503643579321205  0.22431023318472224  0.6536029150089794  1.0000
  C   C82       1.0  0.9008072990688603  0.22139226621195246  0.6474171988923602  1.0000
  C   C83       1.0  0.9274944463431212  0.1754910407775634  0.6452284185127367  1.0000
  C   C84       1.0  0.9037988434163287  0.13260743474790856  0.6489072994207193  1.0000
  H   H53       1.0  0.7881106570682446  0.18382979522205975  0.6629150044160844  1.0000
  H   H54       1.0  0.8292696166936335  0.2593333331209549  0.6552345163823522  1.0000
  H   H55       1.0  0.9665964197444832  0.17303290192546017  0.640590901233827  1.0000
  H   H56       1.0  0.9246257826492491  0.097264992255924  0.6471206386788596  1.0000
  C   C85       1.0  0.15737690728489345  0.8166447219793925  0.7544916785698154  1.0000
  C   C86       1.0  0.15431156725806658  0.8275774776650133  0.7772583920974748  1.0000
  C   C87       1.0  0.19764170270648485  0.8270585900717786  0.7893298142918445  1.0000
  C   C88       1.0  0.24407788750897186  0.816741765618377  0.7785639488023095  1.0000
  C   C89       1.0  0.24704734430164377  0.8073415494627747  0.7556865521761652  1.0000
  C   C90       1.0  0.20376340998701586  0.8067857756475064  0.7437294628316251  1.0000
  H   H57       1.0  0.11856115560171052  0.8357886977017357  0.7856394778419552  1.0000
  H   H58       1.0  0.19506257817164932  0.8356152979057677  0.8068378213395083  1.0000
  H   H59       1.0  0.2828462451209268  0.7999217294271544  0.7472469094677783  1.0000
  H   H60       1.0  0.2064645597693179  0.799478273085963  0.7261181252762011  1.0000
  C   C91       1.0  0.7494137938947354  0.6596834049955441  0.7833071391225026  1.0000
  C   C92       1.0  0.7134877351344107  0.6771979393951014  0.799412068158576  1.0000
  C   C93       1.0  0.6630672202582337  0.6757950588978335  0.79530481170188  1.0000
  C   C94       1.0  0.6486873774809184  0.6576035944045884  0.7749580560659477  1.0000
  C   C95       1.0  0.6845704765613243  0.6385913745790537  0.7591769691482791  1.0000
  C   C96       1.0  0.7349270366190396  0.6393933353126947  0.7633935642752455  1.0000
  H   H61       1.0  0.7243820880699889  0.6936085850101515  0.8146766117247902  1.0000
  H   H62       1.0  0.6353313570279903  0.6906008146694418  0.8075142511169013  1.0000
  H   H63       1.0  0.6735160727857924  0.6234875612952901  0.7436164969550306  1.0000
  H   H64       1.0  0.7626371227221033  0.6256059453868152  0.7509554960505122  1.0000
  C   C97       1.0  0.01460433034444275  0.7615448119837213  0.8487337056968252  1.0000
  C   C98       1.0  0.05760785136161073  0.7807644135100887  0.8403303749515588  1.0000
  C   C99       1.0  0.10441467342295874  0.758064919285905  0.8447430798937091  1.0000
  C   C100      1.0  0.1085006453810069  0.7167768194313203  0.8580414459812885  1.0000
  C   C101      1.0  0.0653973886359489  0.6968774120552461  0.8659525870108162  1.0000
  C   C102      1.0  0.01849466160390323  0.7190535534224419  0.8612198408121096  1.0000
  H   H65       1.0  0.054727180431199285  0.8131577997990893  0.8303250092250994  1.0000
  H   H66       1.0  0.13719472902910756  0.772323219124157  0.8376746442317264  1.0000
  H   H67       1.0  0.06826437159663001  0.6646281074683504  0.876061922130202  1.0000
  H   H68       1.0  0.9854162750591745  0.7038333637185203  0.8676695501943529  1.0000
  C   C103      1.0  0.6931346672797696  0.9327012291702339  0.8983564580683339  1.0000
  C   C104      1.0  0.736526758927416  0.9128368774855962  0.8870764511201534  1.0000
  C   C105      1.0  0.7432834433620145  0.862378321935916  0.8820839749311891  1.0000
  C   C106      1.0  0.7066721397330861  0.8317938213592042  0.8884636610683729  1.0000
  C   C107      1.0  0.6634780402302786  0.8516359216017937  0.8998559635726653  1.0000
  C   C108      1.0  0.6566193127934404  0.9020031041904182  0.9047289223074751  1.0000
  H   H69       1.0  0.7649077907312992  0.9364467496211227  0.8821946673727001  1.0000
  H   H70       1.0  0.7768178054332243  0.8471792428601927  0.8733784602447885  1.0000
  H   H71       1.0  0.635410959646119  0.827968430128475  0.905046587685045  1.0000
  H   H72       1.0  0.6233082866803178  0.9170070760070093  0.9136348359706392  1.0000
  C   C109      1.0  0.3209561087765552  0.9002348815695477  0.9113595387282276  1.0000
  C   C110      1.0  0.3488769910848021  0.8581721252639533  0.9179589848412352  1.0000
  C   C111      1.0  0.3949440976736014  0.8619622630768015  0.9273472431274365  1.0000
  C   C112      1.0  0.4142530811071095  0.907562293210737  0.9293052004078071  1.0000
  C   C113      1.0  0.3865987604069945  0.949667945604642  0.9225692580762274  1.0000
  C   C114      1.0  0.33955974748653994  0.946080311546354  0.9139365901942025  1.0000
  H   H73       1.0  0.3347296943845217  0.8226800342491709  0.9160259860181093  1.0000
  H   H74       1.0  0.41607620811385904  0.8293180390847844  0.932607786416768  1.0000
  H   H75       1.0  0.40134945667299293  0.9849957970202654  0.9239430121430997  1.0000
  H   H76       1.0  0.3182517056732141  0.9786531540978894  0.9086673149448724  1.0000
  C   C115      1.0  0.7741170432540928  0.4722305050084064  0.8535055469636419  1.0000
  C   C116      1.0  0.7949663658319318  0.507863599952714  0.8407023787973779  1.0000
  C   C117      1.0  0.8251612531157209  0.5406667992688947  0.8505214569461439  1.0000
  C   C118      1.0  0.8356660973600296  0.5370045865624247  0.8729897117081615  1.0000
  C   C119      1.0  0.8174099974061811  0.4993220123065105  0.885402575763786  1.0000
  C   C120      1.0  0.7856289091261155  0.4677423575395768  0.8758199474017195  1.0000
  H   H77       1.0  0.7865428863783928  0.5112500469271247  0.8234011407294747  1.0000
  H   H78       1.0  0.8400519602939238  0.5690130567239006  0.8407041592891707  1.0000
  H   H79       1.0  0.8261447488989431  0.4958054203445046  0.9026707171579472  1.0000
  H   H80       1.0  0.7701599907947188  0.4397958353700125  0.8856852924919019  1.0000
  C   C121      1.0  0.43951756245715107  0.6497667634173498  0.8655135915874346  1.0000
  C   C122      1.0  0.4849337379698661  0.6293458696142382  0.8727097077034182  1.0000
  C   C123      1.0  0.5019523115457409  0.5813028456806653  0.8665354201736328  1.0000
  C   C124      1.0  0.4745889496064898  0.5538654701290959  0.852459235951443  1.0000
  C   C125      1.0  0.4296422930468499  0.5747131898693834  0.8447509424719063  1.0000
  C   C126      1.0  0.41178966600267786  0.6225127106905864  0.8514780807980323  1.0000
  H   H81       1.0  0.5068050887468402  0.6505350705683086  0.8833210250588959  1.0000
  H   H82       1.0  0.5362222320174538  0.565700294580075  0.8727632770085041  1.0000
  H   H83       1.0  0.4081553913536437  0.5535392845099651  0.8339397057481495  1.0000
  H   H84       1.0  0.3765328504145772  0.6379637140184806  0.8459410481375211  1.0000
  C   C127      1.0  0.5514372187217269  0.2704961258384963  0.9065538973414377  1.0000
  C   C128      1.0  0.5433896566722156  0.2643797023029743  0.8839218926064285  1.0000
  C   C129      1.0  0.5212681601391819  0.22271713939936652  0.8763581988810186  1.0000
  C   C130      1.0  0.5072972107413984  0.18761414170008456  0.8914766909196428  1.0000
  C   C131      1.0  0.5128850314499318  0.1955117214601357  0.914106130385464  1.0000
  C   C132      1.0  0.5352747849080775  0.23650423542614432  0.9215607940155344  1.0000
  H   H85       1.0  0.5555534429311736  0.29076951424540937  0.8722495622809243  1.0000
  H   H86       1.0  0.516602004288944  0.21682632210953837  0.8588133407964851  1.0000
  H   H87       1.0  0.5007816623168918  0.16935367906460042  0.9259091536661035  1.0000
  H   H88       1.0  0.5408695559526191  0.24134619241315786  0.9389883733169976  1.0000
  C   C133      1.0  0.24918523657240738  0.24911469796049365  0.2471590428976054  1.0000
  C   C134      1.0  0.20849049814370746  0.2828759827760526  0.2442120034173001  1.0000
  C   C135      1.0  0.17180403904363273  0.2912274629063424  0.2612137497463556  1.0000
  C   C136      1.0  0.17520997012371464  0.2650174181176821  0.28089689539670337  1.0000
  C   C137      1.0  0.21448704291923884  0.22939047936967877  0.28319851361953635  1.0000
  C   C138      1.0  0.2518233292643191  0.2220119291779337  0.2665390113855238  1.0000
  H   H89       1.0  0.2063913409519037  0.3039819980394553  0.2292379920954255  1.0000
  H   H90       1.0  0.14132621901123146  0.3187068614839141  0.2592931556779299  1.0000
  H   H91       1.0  0.21629638874914434  0.2074866532534374  0.29780226489562295  1.0000
  H   H92       1.0  0.2829341313232317  0.19535130788869065  0.2686924629871466  1.0000
  C   C139      1.0  0.7816877258272737  0.29551913828084025  0.2616778938497403  1.0000
  C   C140      1.0  0.8078358642127774  0.24963516784471196  0.26304901458852475  1.0000
  C   C141      1.0  0.800044828038207  0.2201345262329171  0.28133526054994135  1.0000
  C   C142      1.0  0.7663253695498888  0.23675603349373225  0.29841795435156837  1.0000
  C   C143      1.0  0.7439894134070294  0.2845975573598002  0.2981802618571469  1.0000
  C   C144      1.0  0.7515428029847148  0.3139612359901876  0.2797526706164028  1.0000
  H   H93       1.0  0.8341638536844788  0.23683715924395737  0.25006310957381167  1.0000
  H   H94       1.0  0.8187622862868401  0.18377203198961395  0.2817883796059116  1.0000
  H   H95       1.0  0.7197773475126341  0.2986004805715306  0.31182461524907873  1.0000
  H   H96       1.0  0.7322484125626144  0.3500446431599843  0.2790680650752123  1.0000
  C   C145      1.0  0.9980372636998517  0.23093647963315436  0.16893054767245108  1.0000
  C   C146      1.0  0.04498925717911617  0.21504744848070734  0.15985658522511415  1.0000
  C   C147      1.0  0.08232242687194129  0.2473767023523273  0.15840184479224234  1.0000
  C   C148      1.0  0.072676664623283  0.29596456514043334  0.1657660799426808  1.0000
  C   C149      1.0  0.025342573611487174  0.3123051747226989  0.1743591182128542  1.0000
  C   C150      1.0  0.9881075814198014  0.2796959442704375  0.1761007359149779  1.0000
  H   H97       1.0  0.05278198650593424  0.1774200360666843  0.15416468723837354  1.0000
  H   H98       1.0  0.11858462268597036  0.2346856380262037  0.15146283407101954  1.0000
  H   H99       1.0  0.017961212011720518  0.34982817754863155  0.18024124013415305  1.0000
  H   H100      1.0  0.9523325967259587  0.29199949442279793  0.1835558656859036  1.0000
  C   C151      1.0  0.5730459473845031  0.4692704227472683  0.9983625464205036  1.0000
  C   C152      1.0  0.5750966837421185  0.5201346101692974  0.998066555723945  1.0000
  C   C153      1.0  0.5874820967690332  0.5431002373353419  0.9782521260292796  1.0000
  C   C154      1.0  0.5974718035537846  0.5152366928196771  0.9587005156893452  1.0000
  C   C155      1.0  0.5946344750828673  0.46452170506138757  0.9589488849207914  1.0000
  C   C156      1.0  0.5824585819939213  0.44160487529934783  0.978736638277611  1.0000
  H   H101      1.0  0.5672363696537722  0.5418028948940115  0.013110728003497218  1.0000
  H   H102      1.0  0.5892882514858037  0.5823597697856389  0.9781412241270079  1.0000
  H   H103      1.0  0.6022578685167884  0.44265218306460674  0.9439612273320492  1.0000
  H   H104      1.0  0.5808754147694061  0.4023599912423455  0.9788485208929568  1.0000
  C   C157      1.0  0.40675536316475797  0.45385942480551394  0.11800666983988127  1.0000
  C   C158      1.0  0.37207451319778234  0.44152536220627997  0.13430889615904656  1.0000
  C   C159      1.0  0.3579894261138767  0.39344014235797203  0.13543958779802912  1.0000
  C   C160      1.0  0.3786995969342024  0.3576216612826507  0.12028499865060277  1.0000
  C   C161      1.0  0.41343738475460334  0.36998588914437786  0.10400404931783515  1.0000
  C   C162      1.0  0.4272852460386435  0.4180738520085174  0.10279821590561371  1.0000
  H   H105      1.0  0.35601919183000935  0.4691590457068882  0.1460746501470639  1.0000
  H   H106      1.0  0.3311604275711716  0.3841408608162694  0.1480261909905023  1.0000
  H   H107      1.0  0.4292667870113746  0.34241658729306346  0.0921631168030156  1.0000
  H   H108      1.0  0.45329443648037293  0.42755960574574065  0.08990928284605637  1.0000
  C   C163      1.0  0.6869615473303655  0.4560821138008858  0.12066949707057634  1.0000
  C   C164      1.0  0.7122091927803185  0.4418027701827314  0.13967452007123796  1.0000
  C   C165      1.0  0.7353546123812348  0.39422089811678857  0.1410332654383535  1.0000
  C   C166      1.0  0.7339790522180731  0.36121602682422516  0.12317744781775049  1.0000
  C   C167      1.0  0.7086266109436279  0.3754661515108131  0.1042259482343467  1.0000
  C   C168      1.0  0.6847421230568236  0.42266590270594223  0.10304524931714486  1.0000
  H   H109      1.0  0.7139435950034057  0.4676519417902023  0.1533407146988639  1.0000
  H   H110      1.0  0.7549448349726017  0.38345106524157424  0.15569839098035945  1.0000
  H   H111      1.0  0.7077019882935515  0.35003082380108635  0.09035030356548006  1.0000
  H   H112      1.0  0.6657407031389162  0.43362057063925674  0.08825697833172401  1.0000
  C   C169      1.0  0.4513432798770339  0.031425845692541365  0.039447315115733926  1.0000
  C   C170      1.0  0.4391492500252685  0.03139210410105053  0.01716884363970239  1.0000
  C   C171      1.0  0.46746114689613916  0.05555735905989212  0.0016165213687964197  1.0000
  C   C172      1.0  0.5072265986474465  0.08095036665538864  0.008347070783571775  1.0000
  C   C173      1.0  0.5179262319442488  0.08297533156062255  0.0308371878328928  1.0000
  C   C174      1.0  0.49029217208594617  0.05783199233612226  0.046353380838993576  1.0000
  H   H113      1.0  0.40864698778144737  0.011581880029953862  0.011792775810241629  1.0000
  H   H114      1.0  0.4582643809418919  0.05455341534703306  0.9844326279041109  1.0000
  H   H115      1.0  0.5485609355017217  0.10262497054705402  0.03618914535441875  1.0000
  H   H116      1.0  0.4994383886883124  0.05876818193882436  0.06362187227019349  1.0000
  C   C175      1.0  0.36365574708212745  0.014146817814979952  0.1610047349546646  1.0000
  C   C176      1.0  0.341625609258542  0.005728367201520699  0.14083467990071633  1.0000
  C   C177      1.0  0.3001001815269198  0.035709738821402714  0.1348041599935829  1.0000
  C   C178      1.0  0.2821229153187872  0.07562946546560473  0.1483981811828766  1.0000
  C   C179      1.0  0.30389398522911903  0.08382973054661116  0.16864563664686866  1.0000
  C   C180      1.0  0.34418943285129294  0.05260376088010041  0.17511096857551747  1.0000
  H   H117      1.0  0.35655953825528847  0.9759531915842014  0.12992545576893508  1.0000
  H   H118      1.0  0.2829049791337006  0.02880521327129282  0.11930188654645937  1.0000
  H   H119      1.0  0.2898080068256451  0.11430092549500825  0.17933463763324764  1.0000
  H   H120      1.0  0.3613567286646803  0.059314023504386665  0.19065887932044512  1.0000
  C   C181      1.0  0.6246207045167299  0.10161635857612843  0.1341186936658702  1.0000
  C   C182      1.0  0.659866466096084  0.1360509460837606  0.13301946322869587  1.0000
  C   C183      1.0  0.6892756010998087  0.14375379932297602  0.151146978469831  1.0000
  C   C184      1.0  0.6839680301727746  0.11656643624575025  0.1703250317560806  1.0000
  C   C185      1.0  0.6479843048232339  0.08283375868137599  0.1716548605491702  1.0000
  C   C186      1.0  0.6180261006953903  0.0756642321227472  0.15360275041929417  1.0000
  H   H121      1.0  0.6648279144789571  0.15647707730811897  0.1180350226839625  1.0000
  H   H122      1.0  0.7163857364919959  0.1704089340658464  0.15010394909852595  1.0000
  H   H123      1.0  0.6432260150484266  0.06231782908715833  0.18661627472499467  1.0000
  H   H124      1.0  0.5897354990579681  0.05031980445158424  0.1548354192877254  1.0000
  C   C187      1.0  0.5423627568302513  0.7227542549837611  0.06796628883642802  1.0000
  C   C188      1.0  0.52017514717688  0.7704403392301107  0.06617092812027342  1.0000
  C   C189      1.0  0.5376144674761618  0.8091907672893249  0.07828309952799908  1.0000
  C   C190      1.0  0.5776960501879086  0.800373789738552  0.09201829912326977  1.0000
  C   C191      1.0  0.6004772015308936  0.7528454503631192  0.0934820069436683  1.0000
  C   C192      1.0  0.5826635455073305  0.7139578649168243  0.08155208241932844  1.0000
  H   H125      1.0  0.48881391794708323  0.7771786617854469  0.055760570152170064  1.0000
  H   H126      1.0  0.5201171482363213  0.8458620981300496  0.07701347775904098  1.0000
  H   H127      1.0  0.6315303848405108  0.7459430885333357  0.10407758945746566  1.0000
  H   H128      1.0  0.5999216440490134  0.6771600827931945  0.08297313162142762  1.0000
  N   N1        1.0  0.5032994335378148  0.8836307943799891  0.007864454313385005  1.0000
  C   C193      1.0  0.47796898607348814  0.8522457357728332  0.9925071833147711  1.0000
  C   C194      1.0  0.4704994625305223  0.8967925650725396  0.02751426274120794  1.0000
  C   C195      1.0  0.5152438154049317  0.9286247256411667  0.9964197638472729  1.0000
  C   C196      1.0  0.5494765944509283  0.8569895784463567  0.014997750604138993  1.0000
  H   H129      1.0  0.4430701880909506  0.8715415306585652  0.9867613283875971  1.0000
  H   H130      1.0  0.46837413359455554  0.817827723641147  0.0004885709365842761  1.0000
  H   H131      1.0  0.5015807128944203  0.8421963893749058  0.9773506243662522  1.0000
  H   H132      1.0  0.4888119776800098  0.9200540447052286  0.03953053476361279  1.0000
  H   H133      1.0  0.4356633563492562  0.9179212175546883  0.022867411782859337  1.0000
  H   H134      1.0  0.4600634338362723  0.8638407337286172  0.03646273303407055  1.0000
  H   H135      1.0  0.5326429225884152  0.9543997193768806  0.007650001084715585  1.0000
  H   H136      1.0  0.4814205408245922  0.9485953217249868  0.9900138734048269  1.0000
  H   H137      1.0  0.5410223849604319  0.9199724911239189  0.9818631439972747  1.0000
  H   H138      1.0  0.5753109448422856  0.8466662012313013  0.0006008753993975713  1.0000
  H   H139      1.0  0.5418332391306527  0.8227416271465078  0.023678690528076363  1.0000
  H   H140      1.0  0.5692836472780975  0.8797611511577592  0.02667776348607842  1.0000
  N   N2        1.0  0.48333880101745647  0.17666394641098118  0.40905088937316475  1.0000
  C   C197      1.0  0.43115740091206  0.16915248429460758  0.4046578173577414  1.0000
  C   C198      1.0  0.5009353633691417  0.1443230666229945  0.426959579954085  1.0000
  C   C199      1.0  0.4872767121107255  0.22827691629181593  0.41579406923058  1.0000
  C   C200      1.0  0.5143362747048548  0.1649771884292839  0.3887180499320561  1.0000
  H   H141      1.0  0.41710481856079984  0.1929012953982509  0.3910907529469969  1.0000
  H   H142      1.0  0.40643128091376  0.1780518452696211  0.41956304370978387  1.0000
  H   H143      1.0  0.4267764040791932  0.13061776786760407  0.399477988119171  1.0000
  H   H144      1.0  0.540362787895246  0.14927583313512743  0.4305249901798797  1.0000
  H   H145      1.0  0.4785640173227053  0.15209804053312923  0.44263919012232733  1.0000
  H   H146      1.0  0.4988539177691422  0.10504362361015022  0.4223821562844653  1.0000
  H   H147      1.0  0.46424651533243777  0.23850375232915222  0.4310674196596309  1.0000
  H   H148      1.0  0.4746269941306771  0.25370076238064965  0.4025871876235887  1.0000
  H   H149      1.0  0.5262971061659326  0.2351648592875408  0.41921522453365845  1.0000
  H   H150      1.0  0.5023202234448029  0.18862938608095914  0.374856241858928  1.0000
  H   H151      1.0  0.5125454401612084  0.12632131909518451  0.3830721559689666  1.0000
  H   H152      1.0  0.5537525208686127  0.17075108803410227  0.39144195727098624  1.0000
  N   N3        1.0  0.7043440561445  0.9502756883817048  0.12859831124551174  1.0000
  C   C201      1.0  0.7366824245557706  0.9889397975982289  0.13465616351040222  1.0000
  C   C202      1.0  0.6708552607453481  0.968388825691381  0.11125162067075299  1.0000
  C   C203      1.0  0.6747314427228727  0.9374119973497216  0.1483787151890603  1.0000
  C   C204      1.0  0.7348151445966103  0.9062744836248243  0.12006016913436869  1.0000
  H   H153      1.0  0.7618912599137956  0.9770523293272051  0.14802987307845092  1.0000
  H   H154      1.0  0.7145184858298803  0.02288552057694604  0.14077621585592356  1.0000
  H   H155      1.0  0.7598886996490921  0.9993102961439735  0.12017806537888438  1.0000
  H   H156      1.0  0.6466178627128593  0.9398486745642539  0.1059277664233425  1.0000
  H   H157      1.0  0.646318151928917  0.0006534087453533566  0.1173260186272753  1.0000
  H   H158      1.0  0.6917093544752494  0.9798338919523305  0.09627507705020652  1.0000
  H   H159      1.0  0.64926309503683  0.9088636450682309  0.14427246566388968  1.0000
  H   H160      1.0  0.6516328337619479  0.9698828550999392  0.155422097102907  1.0000
  H   H161      1.0  0.6987455822032899  0.9229583335652427  0.16172003317402528  1.0000
  H   H162      1.0  0.760656678562031  0.8915151265833862  0.1326759751447198  1.0000
  H   H163      1.0  0.7572870840272142  0.9144449685566924  0.10498394479540171  1.0000
  H   H164      1.0  0.7110712439443748  0.8765368571446934  0.11545872421354074  1.0000
  N   N4        1.0  0.08699606414918283  0.18846139925646008  0.2279538361283587  1.0000
  C   C205      1.0  0.047441550781086146  0.17737856210141406  0.24415811097844542  1.0000
  C   C206      1.0  0.0813708675847274  0.24114841049334365  0.22286367674644814  1.0000
  C   C207      1.0  0.08311221320487976  0.159084782781542  0.20740302426446874  1.0000
  C   C208      1.0  0.135845626157737  0.176223858529996  0.23746846556591092  1.0000
  H   H165      1.0  0.05052679834189  0.13796004808715098  0.24844187140212468  1.0000
  H   H166      1.0  0.01002817746985785  0.18616769412150475  0.23748738521943744  1.0000
  H   H167      1.0  0.049317694112481554  0.19908576067038278  0.2598709994044879  1.0000
  H   H168      1.0  0.04500171768841566  0.2514637083227714  0.21552503263715989  1.0000
  H   H169      1.0  0.08392382686573611  0.26437922914453293  0.23803040727455563  1.0000
  H   H170      1.0  0.11055828882852431  0.2512012220792172  0.21072911729768135  1.0000
  H   H171      1.0  0.11115078164278072  0.16799025827192648  0.1944624534285522  1.0000
  H   H172      1.0  0.04589487481299903  0.1658733269912089  0.20030930412758088  1.0000
  H   H173      1.0  0.08891878618489586  0.11916233684955573  0.21043495252015895  1.0000
  H   H174      1.0  0.13897950202138884  0.19584749533417048  0.2535556864292727  1.0000
  H   H175      1.0  0.1666693481095627  0.18640433801217288  0.2262397120221383  1.0000
  H   H176      1.0  0.1422897947924508  0.13639724291543318  0.2406211710814865  1.0000
  N   N5        1.0  0.9194152043012619  0.3157273697771529  0.11517114071189483  1.0000
  C   C209      1.0  0.8997197030940965  0.3539602032725402  0.13149796457745785  1.0000
  C   C210      1.0  0.973841453886235  0.31643611042726866  0.11270471254704009  1.0000
  C   C211      1.0  0.8967068394781164  0.325236108124419  0.09361320960543594  1.0000
  C   C212      1.0  0.9071736994323784  0.267200723541334  0.12292428618411606  1.0000
  H   H177      1.0  0.8587577344263946  0.3538369893724195  0.1340402882013963  1.0000
  H   H178      1.0  0.9074972029984312  0.3911626725703574  0.12599323626739706  1.0000
  H   H179      1.0  0.9166194225720455  0.34840829769806203  0.14789896324197052  1.0000
  H   H180      1.0  0.9900049963150858  0.2882287290122257  0.10042394990789019  1.0000
  H   H181      1.0  0.9846487000761284  0.3527106505273674  0.10719157035434351  1.0000
  H   H182      1.0  0.9919513829193621  0.3086904758415865  0.12869328131231653  1.0000
  H   H183      1.0  0.8555311297956517  0.32517211005394325  0.09513545585579006  1.0000
  H   H184      1.0  0.9101829428943226  0.29678367932172145  0.08093377985685679  1.0000
  H   H185      1.0  0.9051970260182891  0.3615107924298213  0.08717613806749765  1.0000
  H   H186      1.0  0.9227887525501118  0.23718958342762458  0.11143245155915141  1.0000
  H   H187      1.0  0.8664382706786303  0.26479402352495995  0.12436550753845178  1.0000
  H   H188      1.0  0.9221055597599569  0.25948232703407964  0.13949357288517417  1.0000
  N   N6        1.0  0.6752165926203572  0.4781813022896514  0.5213831938217709  1.0000
  C   C213      1.0  0.6467601568712961  0.5228410280629053  0.5304879878444064  1.0000
  C   C214      1.0  0.6885426286459455  0.4450874718826058  0.5396691194113883  1.0000
  C   C215      1.0  0.7207572970653116  0.49188242132066673  0.5097313925282134  1.0000
  C   C216      1.0  0.6449190517952689  0.4530597910907945  0.5055683742104582  1.0000
  H   H189      1.0  0.6121268746883471  0.5139550193593675  0.5394529306745743  1.0000
  H   H190      1.0  0.6361686289540224  0.5486054410774477  0.5170772987268472  1.0000
  H   H191      1.0  0.6688518442660025  0.5427229429015535  0.5423736744122071  1.0000
  H   H192      1.0  0.7103051577089862  0.4110796113053126  0.5334242750065362  1.0000
  H   H193      1.0  0.7116455838257334  0.4628300926293333  0.5518615901174025  1.0000
  H   H194      1.0  0.6551720389332513  0.4339239580890074  0.54889116623632  1.0000
  H   H195      1.0  0.7423562196565174  0.4592879178593607  0.5019532826719931  1.0000
  H   H196      1.0  0.745490355284881  0.5097725779695974  0.5211468965877037  1.0000
  H   H197      1.0  0.7118501902796869  0.5175415467978067  0.4961037231978797  1.0000
  H   H198      1.0  0.6345086254587785  0.4770006236874342  0.49146387617590387  1.0000
  H   H199      1.0  0.6102439017539314  0.44189197408615954  0.5136823131517377  1.0000
  H   H200      1.0  0.6657394163976826  0.41958399584880124  0.49813592345885394  1.0000
  N   N7        1.0  0.025273464906694788  0.7022319849066844  0.776948158981077  1.0000
  C   C217      1.0  0.9862214481862986  0.7103041077962146  0.7946819862594378  1.0000
  C   C218      1.0  0.03478497276110892  0.6491533175977845  0.7720863860574356  1.0000
  C   C219      1.0  0.07114359539620775  0.722189239088072  0.7843398595555664  1.0000
  C   C220      1.0  0.008735409892669072  0.7273341994397671  0.7567220164577197  1.0000
  H   H201      1.0  0.951126634750679  0.6952502249933711  0.7898556047089295  1.0000
  H   H202      1.0  0.9777487840095465  0.7499919733609798  0.7986802259426231  1.0000
  H   H203      1.0  0.9977422483325181  0.6924602311170465  0.810319582267145  1.0000
  H   H204      1.0  0.04708058868197831  0.6289480985579883  0.7870071997944624  1.0000
  H   H205      1.0  0.000981065229617594  0.6330919349585159  0.7662476625329819  1.0000
  H   H206      1.0  0.06399919767770545  0.6415855888583812  0.7587428749678828  1.0000
  H   H207      1.0  0.10141968485164406  0.7172973433264735  0.7713240372329786  1.0000
  H   H208      1.0  0.08476067736238597  0.7040472050759083  0.7995789502283647  1.0000
  H   H209      1.0  0.06506248810969291  0.7621442186241031  0.788193749557865  1.0000
  H   H210      1.0  0.037197808780271804  0.7218015831333862  0.742975135644496  1.0000
  H   H211      1.0  0.0017617846240032115  0.7675408468741609  0.7596977806908864  1.0000
  H   H212      1.0  0.9742601839932502  0.7130687343246579  0.7506661757099422  1.0000
  N   N8        1.0  0.812995698046627  0.36678007605956503  0.3788787971896041  1.0000
  C   C221      1.0  0.865918336138432  0.353617285953876  0.37299273748075973  1.0000
  C   C222      1.0  0.7945478568842248  0.3304370893151613  0.39424536367856106  1.0000
  C   C223      1.0  0.7839876601000727  0.367584703565717  0.358584313906751  1.0000
  C   C224      1.0  0.8074379266830343  0.41567535611207096  0.3898038699071871  1.0000
  H   H213      1.0  0.8814076113449775  0.3813003854696813  0.36201402980116876  1.0000
  H   H214      1.0  0.871609155713656  0.3174288304198234  0.3642140094279561  1.0000
  H   H215      1.0  0.8886518008477006  0.35182320017337426  0.3880109693626129  1.0000
  H   H216      1.0  0.7546391880450863  0.33940255246586376  0.39893641743435465  1.0000
  H   H217      1.0  0.7982726845276754  0.29298409454221763  0.38661754929908565  1.0000
  H   H218      1.0  0.8151805890754659  0.3293193710344992  0.4098650320641667  1.0000
  H   H219      1.0  0.7439238898284466  0.37786645290509635  0.36246896475123247  1.0000
  H   H220      1.0  0.7868163185269881  0.3311162341452647  0.349975770230097  1.0000
  H   H221      1.0  0.796889250435801  0.39457406358352753  0.34657924623623193  1.0000
  H   H222      1.0  0.7681602071489342  0.42651113457506934  0.39474268529844253  1.0000
  H   H223      1.0  0.8204279353079819  0.44427324350795355  0.3786585877222709  1.0000
  H   H224      1.0  0.8292919783130572  0.41656163847532146  0.4050447803962595  1.0000
  N   N9        1.0  0.8130213046197784  0.631055216953704  0.6535628822398023  1.0000
  C   C225      1.0  0.8076624151044124  0.5886682089468137  0.6679876276392339  1.0000
  C   C226      1.0  0.839066715589952  0.6142673242786174  0.6325020387748621  1.0000
  C   C227      1.0  0.8420456182006024  0.6668721542051254  0.664828931631322  1.0000
  C   C228      1.0  0.7633922425759904  0.6542387666896426  0.6488825958418005  1.0000
  H   H225      1.0  0.8443281835301544  0.5706845092773868  0.6721865828432632  1.0000
  H   H226      1.0  0.78697915208655  0.5604628959512163  0.6597581488961902  1.0000
  H   H227      1.0  0.7869981496704104  0.5996666175509796  0.6838155959911802  1.0000
  H   H228      1.0  0.8186985926706771  0.5866148058624527  0.6236722632053457  1.0000
  H   H229      1.0  0.843492646871505  0.6452387435653677  0.621128093275934  1.0000
  H   H230      1.0  0.8767858073620196  0.5969862422305543  0.635413975474761  1.0000
  H   H231      1.0  0.8231546762888954  0.6809130514291778  0.6806352046475843  1.0000
  H   H232      1.0  0.8475654783051366  0.6990432355120104  0.6542497243191985  1.0000
  H   H233      1.0  0.8795357771101792  0.6502181629678478  0.6688073026272809  1.0000
  H   H234      1.0  0.7657929478100983  0.686489598620929  0.6380852516850697  1.0000
  H   H235      1.0  0.7422224199733913  0.6669261939332074  0.664389392176063  1.0000
  H   H236      1.0  0.7406482088944336  0.6281806547992458  0.6403087178425234  1.0000
  N   N10       1.0  0.30698438142507073  0.3362044053461717  0.30576815891541137  1.0000
  C   C229      1.0  0.2860004631490815  0.38626370122203335  0.3119809536300454  1.0000
  C   C230      1.0  0.3055324840350745  0.32876796598027647  0.28149345405528026  1.0000
  C   C231      1.0  0.2773963880450667  0.30043526584942515  0.3170334900922107  1.0000
  C   C232      1.0  0.35881311701780194  0.3292938716236584  0.31264982395907287  1.0000
  H   H237      1.0  0.28609595594225756  0.3927088615631442  0.33027041329591394  1.0000
  H   H238      1.0  0.24687022115034507  0.39249435148780143  0.3069489328379625  1.0000
  H   H239      1.0  0.3074886369892531  0.4144070046224797  0.3039288924613077  1.0000
  H   H240      1.0  0.3269332660242714  0.355441616363404  0.27235929938027026  1.0000
  H   H241      1.0  0.32151509312634025  0.2914256851658561  0.2762057683722771  1.0000
  H   H242      1.0  0.2668577729601346  0.3329505634614165  0.27578648371969877  1.0000
  H   H243      1.0  0.2916084639268566  0.2621156791523511  0.3125734079626041  1.0000
  H   H244      1.0  0.2378200003181206  0.3052049704001132  0.3126012954918221  1.0000
  H   H245      1.0  0.2781148470179677  0.304687318913345  0.3353652631338786  1.0000
  H   H246      1.0  0.3826050305374141  0.3548558634834118  0.30409552413593177  1.0000
  H   H247      1.0  0.3752193743286858  0.29131886889156067  0.30882273462775695  1.0000
  H   H248      1.0  0.36126496595487717  0.33576718096279223  0.3308122321898157  1.0000
  N   N11       1.0  0.5617542427906669  0.26910333044487883  0.9948754838859395  1.0000
  C   C233      1.0  0.5455971105376493  0.3119509272102238  0.009392442498172171  1.0000
  C   C234      1.0  0.5918275351046879  0.2851564689845358  0.9758383593466071  1.0000
  C   C235      1.0  0.5178699648388612  0.2466682231437603  0.9867410594061761  1.0000
  C   C236      1.0  0.5917493257830371  0.2325666826809528  0.0075187981532749415  1.0000
  H   H249      1.0  0.5777921212990148  0.3298391632286637  0.0158502328604766  1.0000
  H   H250      1.0  0.5226677469355754  0.3015601444912589  0.023948123601321036  1.0000
  H   H251      1.0  0.5232067481100503  0.340487787657471  0.000330071790626274  1.0000
  H   H252      1.0  0.6056223238388906  0.2537938273813416  0.9646886141984846  1.0000
  H   H253      1.0  0.5699550149971946  0.3118887911278316  0.9656030029029871  1.0000
  H   H254      1.0  0.6246017514235314  0.30337237236380415  0.9813721137090654  1.0000
  H   H255      1.0  0.5288391122473156  0.21352879185281193  0.9761468827258103  1.0000
  H   H256      1.0  0.49472511236774774  0.2726894684694768  0.9767065386738226  1.0000
  H   H257      1.0  0.49413077203669636  0.23452626497971876  0.0006861923805472347  1.0000
  H   H258      1.0  0.5700642047191814  0.21946346516720625  0.021937219610773218  1.0000
  H   H259      1.0  0.6252968002495736  0.24798940016040208  0.013924625907772992  1.0000
  H   H260      1.0  0.6041749724924953  0.19959325022020197  0.9970317754358942  1.0000
  N   N12       1.0  0.5526741503968614  0.37845921256023396  0.14241142956512992  1.0000
  C   C237      1.0  0.5078789641838872  0.35982446753936753  0.15281751032765833  1.0000
  C   C238      1.0  0.5591212890716148  0.35977797463190386  0.11926983987024699  1.0000
  C   C239      1.0  0.5967281454393635  0.3616368466776867  0.15480699824117217  1.0000
  C   C240      1.0  0.5470458018950425  0.4325942080132622  0.14268636154379552  1.0000
  H   H261      1.0  0.5019545769988821  0.37282308450238427  0.1703575636967389  1.0000
  H   H262      1.0  0.510316079218961  0.31907273739253994  0.15260188162020422  1.0000
  H   H263      1.0  0.47397711538939913  0.37243173619943565  0.14392787906480708  1.0000
  H   H264      1.0  0.5924860422765547  0.3733200766490911  0.1108712435195163  1.0000
  H   H265      1.0  0.5637262508902366  0.31904850022382086  0.11848488001299215  1.0000
  H   H266      1.0  0.5265109379404103  0.3715547500044396  0.10941147327376873  1.0000
  H   H267      1.0  0.6310220638948659  0.375134868128703  0.14723078879157908  1.0000
  H   H268      1.0  0.6023611947038455  0.3209451612129264  0.15488028702107698  1.0000
  H   H269      1.0  0.5935102306988213  0.37519193017699526  0.17233143431994027  1.0000
  H   H270      1.0  0.5801016901328074  0.44805435972931096  0.13489259749661395  1.0000
  H   H271      1.0  0.5423301162634505  0.44795400637079635  0.15988890872820305  1.0000
  H   H272      1.0  0.5140314202644658  0.4466827481495398  0.133541424883385  1.0000
  N   N13       1.0  0.799457511264075  0.06977466677481559  0.351844982295853  1.0000
  C   C241      1.0  0.7887748550067681  0.05926064066962278  0.32848734571915206  1.0000
  C   C242      1.0  0.8125405460429714  0.023284805630844563  0.363066618612704  1.0000
  C   C243      1.0  0.7552564261162896  0.09546379364427682  0.36319985529712145  1.0000
  C   C244      1.0  0.841265125959066  0.10105686159922511  0.3526313012553404  1.0000
  H   H273      1.0  0.7792061265429244  0.09359326813105007  0.3194670290513995  1.0000
  H   H274      1.0  0.7570603932074514  0.03615720876949391  0.32729052854278073  1.0000
  H   H275      1.0  0.8213952048550393  0.039577994303621855  0.3195504149600455  1.0000
  H   H276      1.0  0.819476820870112  0.02979936104610781  0.380838288210345  1.0000
  H   H277      1.0  0.7821188388398621  0.9983941588123577  0.36258914418701216  1.0000
  H   H278      1.0  0.8467596478077578  0.003534457579115635  0.3554545742966363  1.0000
  H   H279      1.0  0.7228419209386862  0.07318789835896866  0.36263499704745167  1.0000
  H   H280      1.0  0.744594320376267  0.13103023444720474  0.35540200499536917  1.0000
  H   H281      1.0  0.7618732690441572  0.10328372917847828  0.3809696342676903  1.0000
  H   H282      1.0  0.8515937354353297  0.10812254489356055  0.3700137931515756  1.0000
  H   H283      1.0  0.8320291202506414  0.13701586343057737  0.34482583622034446  1.0000
  H   H284      1.0  0.8749143281268494  0.08335638991676375  0.34367991117420144  1.0000
  N   N14       1.0  0.42826493974597635  0.6980509315313688  0.11763410142756447  1.0000
  C   C245      1.0  0.4146679180929823  0.7293603393668622  0.09875824847635026  1.0000
  C   C246      1.0  0.4818971295827086  0.6986599746516561  0.12108710922799695  1.0000
  C   C247      1.0  0.4164473681134957  0.6473182287916972  0.11274249473903977  1.0000
  C   C248      1.0  0.40023167297569034  0.7168850275091461  0.13790431165564057  1.0000
  H   H285      1.0  0.43460984710581724  0.7154456717966102  0.08314329946848915  1.0000
  H   H286      1.0  0.4243459873837891  0.7676401948776072  0.10158581289714425  1.0000
  H   H287      1.0  0.37430086083906183  0.7304736394399122  0.09586598610334712  1.0000
  H   H288      1.0  0.5039188461273185  0.6838862932769931  0.10623700007726614  1.0000
  H   H289      1.0  0.4926273693993668  0.7364699640492824  0.12424254521143968  1.0000
  H   H290      1.0  0.4936522838049225  0.6757921643419038  0.1353141971390872  1.0000
  H   H291      1.0  0.42769308180233756  0.6221102904058445  0.12627358089539692  1.0000
  H   H292      1.0  0.43596467293410934  0.6324331774398094  0.09718120901772967  1.0000
  H   H293      1.0  0.3761098325921607  0.6450086320548315  0.1106102458662422  1.0000
  H   H294      1.0  0.4096185249177376  0.6938847971342933  0.1524241114695284  1.0000
  H   H295      1.0  0.3595533218522385  0.717121648534914  0.1358938520400334  1.0000
  H   H296      1.0  0.4085421594265256  0.755044424736758  0.1420874629507485  1.0000
  N   N15       1.0  0.7568098169571771  0.8057564539515257  0.7583908651199955  1.0000
  C   C249      1.0  0.7251512860645124  0.773443871165461  0.746523811018508  1.0000
  C   C250      1.0  0.7464945951728509  0.8566181598535493  0.751088220037855  1.0000
  C   C251      1.0  0.8094293307688261  0.7894232202294186  0.7533603807074102  1.0000
  C   C252      1.0  0.7461082714193095  0.8033860346692472  0.7825178065988472  1.0000
  H   H297      1.0  0.6850677185396875  0.7846680726592331  0.749778480549381  1.0000
  H   H298      1.0  0.7318494149422039  0.7348611826165494  0.7515945941972481  1.0000
  H   H299      1.0  0.7322808858510376  0.7742878727701883  0.7282698516283334  1.0000
  H   H300      1.0  0.7687190066755424  0.8824066139362406  0.7600542029771736  1.0000
  H   H301      1.0  0.7552440031677499  0.8597585881337421  0.733035482174635  1.0000
  H   H302      1.0  0.7065795876273057  0.8693869151861127  0.7537885342768678  1.0000
  H   H303      1.0  0.8186861798796601  0.791047518089455  0.7352627959953901  1.0000
  H   H304      1.0  0.8181742156725549  0.7508794326714437  0.7584238601868954  1.0000
  H   H305      1.0  0.8344766551346704  0.8125624122792585  0.7622604574962194  1.0000
  H   H306      1.0  0.7686049247462662  0.8280456217981733  0.7920302329335003  1.0000
  H   H307      1.0  0.7547691612207108  0.7657121959062558  0.7886016864778416  1.0000
  H   H308      1.0  0.7063189576362527  0.8139711992770968  0.7867833067177706  1.0000
  N   N16       1.0  0.8939954775674053  0.6354067206946209  0.37407570457597367  1.0000
  C   C253      1.0  0.9274589170310814  0.6199587170588164  0.35489490932684614  1.0000
  C   C254      1.0  0.8785386579452164  0.6882828427262433  0.3729081251089299  1.0000
  C   C255      1.0  0.9202020868701404  0.6259096078507512  0.3947691833021585  1.0000
  C   C256      1.0  0.8497545818623703  0.6072908571041599  0.3738937559069846  1.0000
  H   H309      1.0  0.9397017079789673  0.5801538463328969  0.3554715643861718  1.0000
  H   H310      1.0  0.9613200347571029  0.6403747571579143  0.35461374655070504  1.0000
  H   H311      1.0  0.9089104054213236  0.6264149386976299  0.3389432922227173  1.0000
  H   H312      1.0  0.8524726550637829  0.7006090608566282  0.38700125244634515  1.0000
  H   H313      1.0  0.9107821468959446  0.7108509761562434  0.3737221397612699  1.0000
  H   H314      1.0  0.8592417271192958  0.6970669147397601  0.3573509786028939  1.0000
  H   H315      1.0  0.8956375741940223  0.6367005856848764  0.40946792866806114  1.0000
  H   H316      1.0  0.9533951216398627  0.647071046371755  0.39578841843198437  1.0000
  H   H317      1.0  0.9326252136931518  0.5863372043138861  0.39621769052281725  1.0000
  H   H318      1.0  0.8233960522583131  0.618742563359517  0.38800396661177444  1.0000
  H   H319      1.0  0.8599780402928207  0.5672835955679348  0.3753566599100404  1.0000
  H   H320      1.0  0.8293116486737356  0.612889406140723  0.35838074980332885  1.0000
  N   N17       1.0  0.8013940134095822  0.14385863447255653  0.5882562130354256  1.0000
  C   C257      1.0  0.7645729598977149  0.18254843964285486  0.5810772749284793  1.0000
  C   C258      1.0  0.8452109338819076  0.16645038136189247  0.5963401798605086  1.0000
  C   C259      1.0  0.8166865588219078  0.11039556532967688  0.5693350549372617  1.0000
  C   C260      1.0  0.7791817941668848  0.11591571056349557  0.6062505898075665  1.0000
  H   H321      1.0  0.780289317957117  0.2045779361232938  0.5676248957748702  1.0000
  H   H322      1.0  0.752026866730002  0.208233061258766  0.5950586132182341  1.0000
  H   H323      1.0  0.7312434037290808  0.16663595645529825  0.5746836793423311  1.0000
  H   H324      1.0  0.8730526755914305  0.13841941804200905  0.6026251836223969  1.0000
  H   H325      1.0  0.8639169369244037  0.18647736239438434  0.5830079507829892  1.0000
  H   H326      1.0  0.8348426463118727  0.19307884633880767  0.6101664888168145  1.0000
  H   H327      1.0  0.8329918425836935  0.12994283214792546  0.5552013390323461  1.0000
  H   H328      1.0  0.784937558102765  0.09145135099080397  0.5631156594630469  1.0000
  H   H329      1.0  0.8450664185427944  0.08138069037377291  0.5742074404877714  1.0000
  H   H330      1.0  0.805737822361126  0.08603591060170329  0.6118979530819113  1.0000
  H   H331      1.0  0.7459688616267374  0.09835053211215936  0.6007817778558479  1.0000
  H   H332      1.0  0.7679829310899078  0.1396114145239589  0.621061956607267  1.0000
  N   N18       1.0  0.3602348780617749  0.14611173181818043  0.0929919832127177  1.0000
  C   C261      1.0  0.4081795286072672  0.14963099406744806  0.08090537450472121  1.0000
  C   C262      1.0  0.3412675644376856  0.09826720988211717  0.08795006184259095  1.0000
  C   C263      1.0  0.32411337996573486  0.18583635322304354  0.08616409276111088  1.0000
  C   C264      1.0  0.3670745697928255  0.15091393766180003  0.11707505213987078  1.0000
  H   H333      1.0  0.4233229521521622  0.18542221796753158  0.08437838734279558  1.0000
  H   H334      1.0  0.4045301015905497  0.1456665509054037  0.06266734282204621  1.0000
  H   H335      1.0  0.4362178544858437  0.12032399073792377  0.08584420156545737  1.0000
  H   H336      1.0  0.3040046014487127  0.09560562309934645  0.09601773771049985  1.0000
  H   H337      1.0  0.33804961124650224  0.09213838671661347  0.06980463097672229  1.0000
  H   H338      1.0  0.36614992230900417  0.06739636060326541  0.09398144458592379  1.0000
  H   H339      1.0  0.337180474413795  0.22253061927324377  0.08977690002431886  1.0000
  H   H340      1.0  0.28775206007585324  0.1844234576165006  0.09529852974565324  1.0000
  H   H341      1.0  0.3175259258728141  0.18332262494957205  0.06812441589070077  1.0000
  H   H342      1.0  0.3315070558842042  0.14866959178751232  0.12655383727705166  1.0000
  H   H343      1.0  0.3813590248224444  0.1866218599839978  0.12151954995396581  1.0000
  H   H344      1.0  0.3933145579625394  0.12132333022014258  0.12315219234430312  1.0000
  N   N19       1.0  0.03131088625991519  0.14369243405579568  0.42789975178556056  1.0000
  C   C265      1.0  0.08572954028765781  0.14533012697762246  0.4269653309757822  1.0000
  C   C266      1.0  0.01191124108071051  0.15570168626489228  0.40592207833351596  1.0000
  C   C267      1.0  0.008940950711064934  0.179738029606722  0.4446375772393786  1.0000
  C   C268      1.0  0.01865183943200766  0.09413477570137378  0.4340268970637806  1.0000
  H   H345      1.0  0.10375953041830392  0.11920185606550315  0.4141580735372331  1.0000
  H   H346      1.0  0.10199493836695259  0.13582085463995167  0.4431247492326602  1.0000
  H   H347      1.0  0.09632752019424669  0.18248650646863798  0.42262358256425053  1.0000
  H   H348      1.0  0.9711106547199475  0.15380241382723184  0.4057272633290568  1.0000
  H   H349      1.0  0.020370654826220358  0.19315365030202614  0.4009340388185121  1.0000
  H   H350      1.0  0.02888934882080951  0.12978749440839923  0.3928976460117001  1.0000
  H   H351      1.0  0.017542420367177014  0.2176321357805047  0.4404667053207873  1.0000
  H   H352      1.0  0.023034516740295656  0.17189545547774968  0.4613957060966331  1.0000
  H   H353      1.0  0.9679137985161343  0.17916962859015842  0.44580561347738357  1.0000
  H   H354      1.0  0.9779027459782206  0.09121810506603653  0.4343120712999806  1.0000
  H   H355      1.0  0.03145215804136782  0.0843181029860305  0.45081257882564935  1.0000
  H   H356      1.0  0.03594843261865011  0.06583137200882329  0.42210951514692824  1.0000
  N   N20       1.0  0.447260006963565  0.5655929380915398  0.9341463466165912  1.0000
  C   C269      1.0  0.4678458467080505  0.5246378548977559  0.9475262712625122  1.0000
  C   C270      1.0  0.48630355763275723  0.5987632915567941  0.9291231595345283  1.0000
  C   C271      1.0  0.40575636768604445  0.5928907752718586  0.9467830452848419  1.0000
  C   C272      1.0  0.42914841061713543  0.5462800331276196  0.9131609444419443  1.0000
  H   H357      1.0  0.4401024462216085  0.49776650305588255  0.9510058356697842  1.0000
  H   H358      1.0  0.48069059795962665  0.5377974872995924  0.9637411919866251  1.0000
  H   H359      1.0  0.5005158651026128  0.5045509105912838  0.9388965052390899  1.0000
  H   H360      1.0  0.4712837527293835  0.6318281174014503  0.9203768071262101  1.0000
  H   H361      1.0  0.5035880187648059  0.6111318995498518  0.9444798624977504  1.0000
  H   H362      1.0  0.5165827337920417  0.5801926239674917  0.9182799577184831  1.0000
  H   H363      1.0  0.38903566253392013  0.6238039317842876  0.9370626746206729  1.0000
  H   H364      1.0  0.41829545588739026  0.6084839697593935  0.9625847389973186  1.0000
  H   H365      1.0  0.3758375559118001  0.5687848526703377  0.9510447457154527  1.0000
  H   H366      1.0  0.4138166429127774  0.5763465136643009  0.9025800262512695  1.0000
  H   H367      1.0  0.39950422987735756  0.521180407734447  0.9162143147834865  1.0000
  H   H368      1.0  0.45942729159915713  0.5253656786453225  0.9031676430056346  1.0000
  N   N21       1.0  0.6672399079463932  0.1440019809639141  0.8730671683795693  1.0000
  C   C273      1.0  0.6304006488269599  0.1079313735605933  0.8697658535009216  1.0000
  C   C274      1.0  0.7176203679414134  0.11919182512582105  0.8700368854572379  1.0000
  C   C275      1.0  0.6607670957035154  0.16551117211450833  0.895734131365383  1.0000
  C   C276      1.0  0.6600495193273567  0.1833101942368322  0.8567711513385775  1.0000
  H   H369      1.0  0.6348026466147714  0.07754467826139552  0.8816799105480378  1.0000
  H   H370      1.0  0.6338704972761502  0.09121098355813732  0.8527985727464115  1.0000
  H   H371      1.0  0.5919419824939588  0.12513906061062677  0.8721434418864189  1.0000
  H   H372      1.0  0.7464991163174156  0.145037067753222  0.8727490017747362  1.0000
  H   H373      1.0  0.7235783267757117  0.08876795431664201  0.881952139531445  1.0000
  H   H374      1.0  0.7239493822297319  0.1028227671347196  0.8530607258948046  1.0000
  H   H375      1.0  0.6859341805842674  0.1949927139341253  0.8983900554199002  1.0000
  H   H376      1.0  0.6686770773253435  0.13736430710264513  0.9084677699266146  1.0000
  H   H377      1.0  0.6222027700972074  0.18200407888730416  0.8990504081450372  1.0000
  H   H378      1.0  0.6642648131209979  0.1685195826844895  0.8394541358734366  1.0000
  H   H379      1.0  0.6871288810986144  0.21133467599199235  0.8587657860989225  1.0000
  H   H380      1.0  0.6223027738392956  0.20261952511295078  0.8588212137731056  1.0000
  N   N22       1.0  0.49797766253963516  0.8419187959722089  0.8725239035459426  1.0000
  C   C277      1.0  0.48927162242082267  0.8131302993409502  0.852299354694992  1.0000
  C   C278      1.0  0.5486070084290531  0.85832645097802  0.8712767432000217  1.0000
  C   C279      1.0  0.49248648276136825  0.8110080848708712  0.8921162011608194  1.0000
  C   C280      1.0  0.46149849939358495  0.8851229389889291  0.8744762384044514  1.0000
  H   H381      1.0  0.4925320298121721  0.8352960428725955  0.8371376126510008  1.0000
  H   H382      1.0  0.4515857415524178  0.7997184946319951  0.8529729487975106  1.0000
  H   H383      1.0  0.5161724539252881  0.7802506617312888  0.8503296068108567  1.0000
  H   H384      1.0  0.5562211171359365  0.8800398151494435  0.8863862190412783  1.0000
  H   H385      1.0  0.5772507127600172  0.8267476584233465  0.8698352905624321  1.0000
  H   H386      1.0  0.5540663318281269  0.881994311713749  0.8567572607228449  1.0000
  H   H387      1.0  0.4998592709593817  0.8311233081749445  0.9076606726814689  1.0000
  H   H388      1.0  0.5184301252260547  0.7773619459271924  0.8909117135671217  1.0000
  H   H389      1.0  0.45426841034225524  0.7990203151784538  0.8938539516801065  1.0000
  H   H390      1.0  0.46841311355384474  0.9087228904796522  0.8890501444688267  1.0000
  H   H391      1.0  0.4229125297763549  0.8742533760688345  0.8766047588225314  1.0000
  H   H392      1.0  0.463039828730539  0.9083030273336038  0.8595716846893232  1.0000
  N   N23       1.0  0.01013555130721522  0.4460912387083779  0.5523449230632842  1.0000
  C   C281      1.0  0.993459371210653  0.4581382442252225  0.575526413041877  1.0000
  C   C282      1.0  0.00630404496756998  0.4911571780742925  0.539217457777329  1.0000
  C   C283      1.0  0.9785984489128244  0.4099665896177991  0.542958841130296  1.0000
  C   C284      1.0  0.06218802355684116  0.42516429674942274  0.5517481425421791  1.0000
  H   H393      1.0  0.9967321919753811  0.42544113273095485  0.5861877257323923  1.0000
  H   H394      1.0  0.9539185376691305  0.47307321074858383  0.5766453379947089  1.0000
  H   H395      1.0  0.015431342746203607  0.48628355947153346  0.5830825115875252  1.0000
  H   H396      1.0  0.01525919435322698  0.48333901609211943  0.5212811149665267  1.0000
  H   H397      1.0  0.9681942276139669  0.5095147888988374  0.5404438474563249  1.0000
  H   H398      1.0  0.031469544127479925  0.5182692508824931  0.5451533657982172  1.0000
  H   H399      1.0  0.9809458236335041  0.3753990435233893  0.5523923733785031  1.0000
  H   H400      1.0  0.9892310308261621  0.4008291763574302  0.525284312704135  1.0000
  H   H401      1.0  0.9389930037899408  0.42418253249938714  0.5435205303095687  1.0000
  H   H402      1.0  0.08688718475825924  0.45128963340125244  0.5589736170837206  1.0000
  H   H403      1.0  0.07601558711420414  0.4161330459347817  0.5344318750996143  1.0000
  H   H404      1.0  0.06634629005951033  0.39096017849437675  0.5614192982180756  1.0000
  N   N24       1.0  0.29683705444769387  0.7116293108039785  0.6329253470759354  1.0000
  C   C285      1.0  0.32804253989069476  0.7368689023928023  0.6482782850185178  1.0000
  C   C286      1.0  0.3281603568310379  0.6888387735766864  0.6143653559993811  1.0000
  C   C287      1.0  0.25908763772358245  0.7475145209269692  0.6242183966133422  1.0000
  C   C288      1.0  0.2720265395330822  0.6732921696392618  0.644876312827269  1.0000
  H   H405      1.0  0.3565287240916775  0.710818811487228  0.6554401851185929  1.0000
  H   H406      1.0  0.3054120747872846  0.7548791512020118  0.6623552825644372  1.0000
  H   H407      1.0  0.34789449063848665  0.7657242289728017  0.6398611221736197  1.0000
  H   H408      1.0  0.34744134751013867  0.7167284876514247  0.6049677896852321  1.0000
  H   H409      1.0  0.35709315356448507  0.661658000276924  0.6204723022700339  1.0000
  H   H410      1.0  0.30567236176275736  0.6693860352249433  0.6025056300886851  1.0000
  H   H411      1.0  0.2345717442007085  0.7297882137929059  0.6126332912226071  1.0000
  H   H412      1.0  0.2762730222667776  0.7771553798822574  0.6151497403111914  1.0000
  H   H413      1.0  0.23462038724652923  0.7650989604335083  0.6378488611202849  1.0000
  H   H414      1.0  0.24705329407966575  0.6542417838647778  0.6340123622289894  1.0000
  H   H415      1.0  0.24890261700518052  0.6889896718173502  0.6592481694457631  1.0000
  H   H416      1.0  0.2992543821974285  0.6452193229296204  0.6515905784346385  1.0000
  N   N25       1.0  0.07276889330364122  0.9166659883009713  0.69102260724072  1.0000
  C   C289      1.0  0.08039145163407868  0.8666760690056181  0.6812862968514836  1.0000
  C   C290      1.0  0.05955178000758998  0.9516738443592263  0.6734422170266974  1.0000
  C   C291      1.0  0.11890455267202293  0.9294301432064214  0.7012112673339579  1.0000
  C   C292      1.0  0.03214974748697652  0.9186424073938457  0.7081260161433278  1.0000
  H   H417      1.0  0.09289490296526659  0.839727085671019  0.6938413811755727  1.0000
  H   H418      1.0  0.10889527300308077  0.8643102685827099  0.667459397515194  1.0000
  H   H419      1.0  0.045561105479491326  0.8546776311372264  0.6745816286216492  1.0000
  H   H420      1.0  0.08916544609247734  0.9510662484506138  0.660115337206707  1.0000
  H   H421      1.0  0.02505522965390905  0.9427324011694705  0.665327325589411  1.0000
  H   H422      1.0  0.053274200605758715  0.9898826289261322  0.6800682028674753  1.0000
  H   H423      1.0  0.11473240492968206  0.9670547419765038  0.7086350217562574  1.0000
  H   H424      1.0  0.15036534717755745  0.9276457919220282  0.6887515821526263  1.0000
  H   H425      1.0  0.12961866898126884  0.9037229097911764  0.7146645934923316  1.0000
  H   H426      1.0  0.025536653248131147  0.9557865928812288  0.715936762937276  1.0000
  H   H427      1.0  0.04073110889241738  0.8923098720562835  0.7215572334170828  1.0000
  H   H428      1.0  0.9968051031584946  0.9092206895132935  0.7009119837002888  1.0000
  N   N26       1.0  0.11458383709649511  0.8503422971952621  0.9017643958299648  1.0000
  C   C293      1.0  0.12217190949250534  0.8769060814278411  0.8809831882476891  1.0000
  C   C294      1.0  0.11835585953303207  0.8840985986521969  0.9208948801005359  1.0000
  C   C295      1.0  0.1530106610612314  0.8091133572552817  0.9029617393938885  1.0000
  C   C296      1.0  0.06510960167527458  0.8312310780741266  0.9021840900329666  1.0000
  H   H429      1.0  0.11903743412980194  0.8527099363384942  0.8661763187834571  1.0000
  H   H430      1.0  0.15956065308809442  0.8911556167705863  0.8799796909967713  1.0000
  H   H431      1.0  0.0942289795791098  0.908676405684068  0.8796551954821937  1.0000
  H   H432      1.0  0.11337752896473718  0.8652241990557337  0.9368894461412297  1.0000
  H   H433      1.0  0.15543581710421206  0.8991138845762924  0.9208332446485565  1.0000
  H   H434      1.0  0.08989791051134777  0.9157151373358717  0.920607776003986  1.0000
  H   H435      1.0  0.1479206399804882  0.7874791212427176  0.9181650302064386  1.0000
  H   H436      1.0  0.19075625450446188  0.8222704607018363  0.9030922435403553  1.0000
  H   H437      1.0  0.1521020599293692  0.78346728243143  0.8885354953188507  1.0000
  H   H438      1.0  0.06166545522061506  0.8049753670750468  0.8881198055890372  1.0000
  H   H439      1.0  0.035079380863907605  0.8611359643648879  0.9008525967752583  1.0000
  H   H440      1.0  0.05787720786714945  0.8113208765929956  0.9177157434131902  1.0000
  N   N27       1.0  0.8837410500207615  0.8601885207680487  0.5106533110457467  1.0000
  C   C297      1.0  0.8872641442939537  0.8303819196877806  0.48992623753932774  1.0000
  C   C298      1.0  0.8973525342629576  0.8288416703956346  0.5295113155807369  1.0000
  C   C299      1.0  0.8323865219345851  0.8821769845972116  0.5143125494306806  1.0000
  C   C300      1.0  0.9179404785711468  0.8993830327816387  0.5088615676639273  1.0000
  H   H441      1.0  0.9257799006383651  0.8141587378083432  0.4862103714034701  1.0000
  H   H442      1.0  0.8763007787733262  0.8528810510466028  0.47547464496652636  1.0000
  H   H443      1.0  0.8627180590594885  0.7998063933909013  0.49067491239654654  1.0000
  H   H444      1.0  0.8949244362307368  0.8503914352915886  0.5454298585398721  1.0000
  H   H445      1.0  0.872314060814888  0.7988545080331203  0.5313766446453954  1.0000
  H   H446      1.0  0.9359605736642767  0.8117396548732817  0.5272836602831998  1.0000
  H   H447      1.0  0.8054279880782368  0.8537156343818102  0.5150354798317811  1.0000
  H   H448      1.0  0.8214966568825023  0.9075114963382613  0.5007867970447801  1.0000
  H   H449      1.0  0.8279134651436156  0.9035767022681201  0.5301995230478344  1.0000
  H   H450      1.0  0.9172455841081265  0.9217073927825461  0.5244610100374184  1.0000
  H   H451      1.0  0.9079807566151082  0.9247751892853274  0.4952555988481127  1.0000
  H   H452      1.0  0.9568393653566578  0.8841701378428344  0.5053358839314812  1.0000
  N   N28       1.0  0.8849412866967846  0.3106072802855763  0.7115093719221441  1.0000
  C   C301      1.0  0.8683861029915869  0.32228805807928107  0.7347493601416444  1.0000
  C   C302      1.0  0.8982940207045135  0.2573845236031868  0.7087729764068642  1.0000
  C   C303      1.0  0.9286503349266186  0.3373888675091072  0.70571336091582  1.0000
  C   C304      1.0  0.8444065469059933  0.32547163367213316  0.6967136270485264  1.0000
  H   H453      1.0  0.8354366733298649  0.30263445063177413  0.7396101042254981  1.0000
  H   H454      1.0  0.8578152105593867  0.3622311750956398  0.7372519209881506  1.0000
  H   H455      1.0  0.8980910901659792  0.31188345349831686  0.746439400494233  1.0000
  H   H456      1.0  0.9277975761543795  0.24455907710594366  0.7201436389498653  1.0000
  H   H457      1.0  0.8657731019238237  0.2358973469825741  0.7120322474893008  1.0000
  H   H458      1.0  0.9126079104940585  0.24780376110039962  0.6915804332878146  1.0000
  H   H459      1.0  0.9422404591044797  0.32902885934745624  0.6882664857560395  1.0000
  H   H460      1.0  0.9599603420050344  0.32736941520167057  0.7166096918619237  1.0000
  H   H461      1.0  0.919819137003403  0.3777483182062869  0.7072730396245757  1.0000
  H   H462      1.0  0.8562042389774661  0.318505036218635  0.6790415994074436  1.0000
  H   H463      1.0  0.8325521565947669  0.3652478412472187  0.6986843886852019  1.0000
  H   H464      1.0  0.8111362594329713  0.3051611882776973  0.700092630429324  1.0000
  N   N29       1.0  0.6547774864362653  0.20015022440014119  0.24775012861723003  1.0000
  C   C305      1.0  0.633601823110922  0.19410957149850727  0.22574003407401322  1.0000
  C   C306      1.0  0.6588776160929982  0.25269993729760487  0.2525253392145945  1.0000
  C   C307      1.0  0.7045029188902863  0.17362338473435512  0.24782236881156036  1.0000
  C   C308      1.0  0.6222793561384898  0.18018454786713067  0.26496109894345216  1.0000
  H   H465      1.0  0.6573228761400035  0.20886298936498693  0.21242406520585128  1.0000
  H   H466      1.0  0.5959046467744327  0.21324774114990697  0.22506041029540033  1.0000
  H   H467      1.0  0.6307503359180203  0.15476396035569984  0.2214329250254124  1.0000
  H   H468      1.0  0.6224124990302333  0.2742934802869601  0.2518521150053255  1.0000
  H   H469      1.0  0.6728734558259294  0.2584802606450256  0.26936798626915914  1.0000
  H   H470      1.0  0.6850353197766881  0.26860751436089814  0.240499595600089  1.0000
  H   H471      1.0  0.7032752490906294  0.13421301992998935  0.243266302181801  1.0000
  H   H472      1.0  0.72077947098628  0.17579154220420246  0.2644203554461581  1.0000
  H   H473      1.0  0.7305762888003866  0.18901506135722013  0.23563269605986126  1.0000
  H   H474      1.0  0.6374199832231827  0.1840181472589879  0.2817789981002144  1.0000
  H   H475      1.0  0.6182321304754905  0.14059633510712466  0.2618298432452087  1.0000
  H   H476      1.0  0.5844958139125799  0.19961224694717705  0.26554464693140856  1.0000
  N   N30       1.0  0.6268899731499094  0.519045513177818  0.8002447127272874  1.0000
  C   C309      1.0  0.6761909241533769  0.5326082862226834  0.80665218424973  1.0000
  C   C310      1.0  0.619486116497172  0.4692260425570896  0.8079419484387113  1.0000
  C   C311      1.0  0.623821655011472  0.5199964594097101  0.7758549575831205  1.0000
  C   C312      1.0  0.5879868292312547  0.5541722082689235  0.8105282297849947  1.0000
  H   H477      1.0  0.6835826732766089  0.5696344890642641  0.8007829049000172  1.0000
  H   H478      1.0  0.7063668178178942  0.5061688975815573  0.7996224646586155  1.0000
  H   H479      1.0  0.6795777931884831  0.5327632661515065  0.8249907249198494  1.0000
  H   H480      1.0  0.5820119857442816  0.45825523514794203  0.8041033040583541  1.0000
  H   H481      1.0  0.6477609745979243  0.4415850280865275  0.8003108426167602  1.0000
  H   H482      1.0  0.6229133337208603  0.466957886957626  0.8261499834028935  1.0000
  H   H483      1.0  0.6531788758416384  0.4945651098535571  0.767516467780363  1.0000
  H   H484      1.0  0.6283186676123531  0.5572179640737296  0.7694843928631449  1.0000
  H   H485      1.0  0.5872780671150012  0.5093868066510466  0.770478192897624  1.0000
  H   H486      1.0  0.5502865586121681  0.5450756279900029  0.8060161763944065  1.0000
  H   H487      1.0  0.592572513785913  0.592223857896162  0.8052095203942623  1.0000
  H   H488      1.0  0.5887344140511399  0.5540081225779397  0.828928627895432  1.0000
  N   N31       1.0  0.7257048667826601  0.6332603417233332  0.9202260423773092  1.0000
  C   C313      1.0  0.7144591545651493  0.6300772123717899  0.9442755046688804  1.0000
  C   C314      1.0  0.7685685512548319  0.6625352278587814  0.9166272458890563  1.0000
  C   C315      1.0  0.6822953894280358  0.6567626686807722  0.9092830289165438  1.0000
  C   C316      1.0  0.7377314583638616  0.5835671869844682  0.9106336275396446  1.0000
  H   H489      1.0  0.7464452158932067  0.6120790902541516  0.9529123633318297  1.0000
  H   H490      1.0  0.6823063833659814  0.6081599283584578  0.9476069491970119  1.0000
  H   H491      1.0  0.7053896551139213  0.6669859421362994  0.9520457486392303  1.0000
  H   H492      1.0  0.778300663000989  0.6648992247355657  0.8986975437680306  1.0000
  H   H493      1.0  0.7607293080821852  0.7007146771089077  0.9231862406123938  1.0000
  H   H494      1.0  0.8022031940703395  0.6457714297306184  0.924526770037289  1.0000
  H   H495      1.0  0.6899140137228487  0.6598564376215104  0.8911128604341644  1.0000
  H   H496      1.0  0.6724376507044197  0.6945898718908525  0.9159371967469491  1.0000
  H   H497      1.0  0.6493482516609684  0.635390142167008  0.9116179284974856  1.0000
  H   H498      1.0  0.7066486339868093  0.5599522745296862  0.9132341116254215  1.0000
  H   H499      1.0  0.7709040096398833  0.5651509779943341  0.9182265537999197  1.0000
  H   H500      1.0  0.7459737298306449  0.5846631665342772  0.8924446094033437  1.0000
  N   N32       1.0  0.4064745176240101  0.7094258039763012  0.7697773345474733  1.0000
  C   C317      1.0  0.3561009703417833  0.6972696229622022  0.7643709468806305  1.0000
  C   C318      1.0  0.4119736729394957  0.7074111051002719  0.7940302541817446  1.0000
  C   C319      1.0  0.41450528744300635  0.7592276012828214  0.7621919320777054  1.0000
  C   C320      1.0  0.44339860585257623  0.6738447629597909  0.758458230314223  1.0000
  H   H501      1.0  0.35083759864195635  0.6980012907033102  0.7462176807633468  1.0000
  H   H502      1.0  0.3271931075921403  0.7237911355174788  0.772295932641803  1.0000
  H   H503      1.0  0.34857125926698773  0.6601322972376242  0.7700385460615224  1.0000
  H   H504      1.0  0.4497662004660964  0.7158298024737226  0.7986635168270342  1.0000
  H   H505      1.0  0.3848236473370154  0.7343795475430368  0.8029256491441529  1.0000
  H   H506      1.0  0.4056175645678823  0.6705112002091195  0.8004186225737386  1.0000
  H   H507      1.0  0.4526673445093986  0.7690271885504726  0.7653447555079435  1.0000
  H   H508      1.0  0.38813154741932016  0.7873711125370347  0.7706385871706827  1.0000
  H   H509      1.0  0.4090625955680536  0.7626027293898323  0.7441359587379415  1.0000
  H   H510      1.0  0.48185249549989867  0.6819544486741617  0.762114089095129  1.0000
  H   H511      1.0  0.44026718560732286  0.6748160961316595  0.7401220292259502  1.0000
  H   H512      1.0  0.4386177481029733  0.6357802515957058  0.7636989306214025  1.0000
