data_image0
_chemical_formula_structural       FeS2FeS2FeSFeS3H2CSCS2FeSCS2HCFeSFeH2SFeSHSH2C7H4C6NH3FeH2SH3C7H4C6H4C6H4C6H4SNH2CNH10Fe2H3SH7CH2CH3CHSH7CHCHCH2C2HFeH2NC3H3CH3NC4H12NC3SH4SCH3CHCH4CHCFeSCH3SH3CHCH2C2HNC2H2FeSFeS2CHSHSHCHC2HSC6HCH2CHC3H2C2H4CHCHCH2CSFeSHC3HSHNC4H12SHC2HCH2CH2CHC3S3CH7SHCFeHCNH3SH2CH2NCHSH4NCHCFeH2NSH2FeC2HCH2CHSHSCH3CS2CH2CH2CH4FeHC2HCSFeH5SFeH2CSCS2H2CH2CFeSFeS2FeHSHSCHFe2SFeSH2CHCHCHCFeH4NH2C5SHCH2CH2CH2CH3CNSC2HC4H2C2SHSHCH2C2H2FeNCSH3SH2C2H2CHNH2C2HSH9SHFeH4SCHCFeHSC3H5CH2FeSFeS2HFeSHSFeS2FeS2FeSFeS3CHC2SCHSFeS2FeS2FeHSFeS2HC3H4C3HC2H4C6H4C6H5C6H4C6H4C7H2FeH7CHCH3CNC4H12CH3CH3CH3CH2CSHCHCHNCSH2FeH5CNH6SH3CH2CH2CNCFeHNHCHCH2SH4NSH3CH4CS2FeSFeSHFeSFeSHSHFeSHFeS2Fe2S3HSHNHC2FeS2FeS2FeSFeS3HC2HCH3C5H2NHC3HCH4CHC4HCHC6H4C7H2CH3C2H3C6H4SNC2H2C2SC3HNHCH3SCH2CHCHCHSH2CH4CH2FeSNC4H14CH2C2H2CHCH2SH11CH4CH3SCHCSCN2H2CHCHCH2CH3CHNC4H5SC2H3S2CH7C2H2CSC2HCH2CHCSHCHCH4CFeH3SFe2S2FeS2FeSFeS3Fe2CSHCS3FeS2FeS2FeSFeS3H2FeSH4CH2C3HC2H3C7H4C6H4C6H4C6H3C6H2SH2CH6NHC3HC2H3CHSH3NC4H12NCNH4SH4NFeHCH2SCNC3H7CH2FeH4FeC2HC2HFeH2CHCH5CHSH2CHFeS2FeCFeHSCFeCSFeH3SH2SCHCHFeS2CH2CHSH2SH2SHCHFeH3CH3SC6H6C6H6C2H3C4H2FeCH8C2NC2H2CNH2CH3FeH4SCH3C2H2NSNH8Fe2HCHC3H2CH4CHSH2CFeNHNSH3SHFeH2NHFeCH2S2C2H2SH2CSHCSHFeH4CH3CHNC6H4CSHCH4CSH2SH2CHSFeHC2SCH5CSC6H3C6H4FeCSH3CSCHCH3CH3CHNH2CSC2HC2NH2CFeHSCH4CH2CFeH5SH2C2H2NH2CHSH7C2HC3SH5SH3CH2SHNCFeS2HCFeSHS2FeHSFeHSH2CS2H3CH4CSH3CH3C2HFeCHC4H5C2H2C2HSHNC6H5C2HFeCSNFeSH3SHNHCHC2H2C2H4CH4CHCSH6FeHCHSCNHCH3CFeS2FeSHFeSHSFeS2FeS2FeSFeS3HFe2SHFeHSCSFeS2HFeS2HFeS2HNHCNHC6H3C6H4C6H4C7H4C6H4C6H3CHSCH8CH2CH3CHCSCHNC4H12NCHC2HCHCH9SNHCH2CFeHSHCSHSHCHNHCH2SH6C2H7CH3CH2FeCSH3CH3CH3CFeHFeS2FeS3FeS2FeSFeS3HS2HCNSH2FeHFeC2S4FeSCNHFeCSCS2HS2H2SHNC3SHC2HC4H2SC5H2C6H4C6H4CHCHC2H2C6H3C6H7FeH2CH2CH2FeHCH2S2CSFeHFeHNCFeCHCNFeH4CH3SC3H8NC4H16SH3CHCHCH4C2H2FeCHNH5C3FeH4C2HSNHCSC2HSCHCHSC2HFeHFeH2NCH2CH4CHCFeCHNCH3SFe2H5CH3SH6S3HFeSC3HCHSFeHS2HSC2SFeHFeC6H5C3H2C6HSH2C6H4CH2SH4FeH2CSH2S2H2NSH2FeH5Fe2CH5CHSHNH7NC4H12NHC4SH2S2H2CH5C2HFeCFeSNFeS3FeH2S2FeS2FeS2FeSFeS3HC6H2CHC6H2CSC4SH3C6H4C6H3NC4H11NH2SCH3SHNH2CH2SHNHCHSFeCH3CH10C2HSCH4CH2CH4C2H5CH2CHCH3FeS2FeS2H2FeS2FeS2FeSFeS3HCHNFeHSNSC6SH3C6H2CNC6H4C6H4C6H3SHC2H3CHNH4CFeH4SHCNH2FeHCH4C2H2SHFeH3C3H4CH6C2H4CH3SCH4NCHCNCH4CHCH5S2H6FeH3CHCH2C3H4SHCFeH4SCFeS2FeS2FeS2FeSFeS3HCFeS2FeS2FeSFeS3FeS2C6H4C6H4C6H4C2HSFeCH6CH2C6H4C7H4CHCH4CHC2HN2H2CHCHCHCHCH3CHSNH4CH3CNC4H14NC4H6CH3CHCH2SFeH3CH4CH2NCH2NHSH2CHFeCHC3H4CHCH4SFeSC2FeSCHSFeS2FeS2FeSFeS4CSFeHS2HSFe2S2FeSFeSHSC7H4C6H4C2HC2SH2C2HCNCSH3CHC2HFeCH2S2CFeC6H3C2H2C2SH3CHCH3C2H7CH3CHCNCHSFeH2CFeH2CHC2H3CH3CH4CSHNH2CH2CHCHCH6FeCSC2HCH2SH4NSCHCSC2SCH2NC4H12NC5H8CH2NHNCHCHSH3FeH7CH3SHFeCH2SFeSCSCFeSFeSHSH3FeSCFeS2FeSFeS3FeSCFeS2FeSFeS2C7H4C2H2C5H2SH2C3SH3C6H3CH2C2HC3H5C4H3C6H3C4HSH3C3SCH4NC4H12CH2CHFeSHCH3CFeHNCH5CHSH2NHCH3NC2H8FeSH3NHSCHCH3C2H2SC4H4SHC2HCH3CSFeH3CNC2H5CHCHSNC3HSHCH2CHCH2CH3SCH2NHFeHC2SC2HFeH2S2FeS2FeS2FeSFeS3HCSHNSHFeSFeSH2FeS2FeS2FeSFeS3CFeSC7H3FeC6H4C6H4C6H4C2H2C2H6CH2CH2C7H5CH2NH9CHNC4H13CH2C2HCHNC4H12CH5CFeH4CHSHCNH3CSCH4NC4FeH2C2H3CSCHCH2CSNH3NH7CFeSNFeSH2S3NHFeS2FeS2FeSFeS3C6H4C4H3C6H2C8H3C6H4S2H3SH2CH2NHCH4CH2CFeHC3HCH2SHCH2CH2C2H3CHCH3C3NH3FeH6CFeH2C2H9CH6SCH3SHN2H3C2H5SHSHNHCH2SHSHCHNFeHSH2FeS2FeS2FeSFeS3HSHC2HC3HC2HC6H2CHC5SH4C6H4C6H5SH5SNC2HFeHCH4CH2CH2SH2SFeNH7C3H3CFeHSCH5CSFeH3C2H6SH4SHSHS2HFe2SCFeH2CNFeS2H2N2FeSFeSCH3CHC6H5C6H4C6H3CHCHCH5NH3FeCHCHSH4CH2CHCHFe2CHSH2CHSH2CHCS2HSH3CHC2H3CHCNHCH2SH2CH5C2SHCSHCH5FeHFeS4HCSFeSFeS4FeS2FeSHCH3C2HCHCH3CFeHSH3CHSHSCH2CHC2FeC2H2NHSH2C6H4CHC5H2CH3C6H4C2SHC6H4C5H2FeCNFeC6H4C3SHCHCH2FeNCH3CNH2SCH3FeHS2HC2FeCNC3FeCSCSFe2HC2SH2CH5SHSFeH3C2HSHSHC2H2C2FeNH2CFe2H3C3SCH2S4HCH3SH4SH2FeH3CHFeSCH4CH4CH2CHCNH2S2H6CHCH2FeS2FeS2FeSFeS3FeS2FeS2FeS2CH2CSCS2FeSFeS3HS2H3SH2FeS3HCFeC3HC7H4C6H4C6H4C6H4C6H4C6H5FeNC4H12NC2H3CH2SHCH4CH5SHNH2CH4CH5CH5NC4H10CNH2C2HFeH3CFeNHFeH5CH3SCS2H2SCH4NH2C3FeS2H2FeSFeSCS2HSFeCSCHSH2CH3FeHSH5CHCHC6H4C6H7NH3FeHCH4CH2NC4H12C2H3NH2CHSCH2SHCH3FeCH2CHCFeC2H3SFeSCFeSFeS2HCHSH4CHFeHCHSHCHNHSCHCHSH3SHCH2CNC6SH3SH6C6H4C2H3C2FeC4SH2SH3CH2NSH2FeCHFeH3FeH2C2H2SH2C2H3NHCH2CH4CHSHSH2S3H2NCHCH7SCHC2HCHC2FeHC2FeCH2CFeH2SH4C2HC4HSNSH3SNH2C2HC6H4CFeCH3NH2SH2C3H2SHC2HC2H2CFeCH6C2H2NCHCHSFeH2SC2HC2NC2HFeH2CH3CH5CH2SHCH3SH3C3H4CHSH8CH2SC2H5FeCH2CFeSCH4CH2NCHFeSCSHFeSHNFeS2FeS2FeSFeS3FeS2FeS2FeSFeS3FeSHC6H4C3H2CH2CHC6H4C6H4C6H6CH4C10H3NC4H9NHC4H5NSCSH2NC4H6CH5SHFeHSHCH4SH2C2H2CH2CH5CH2CH3CNH8SH4CH5CHCH2NCHFeC2HCHCH2NH3CHCHC2H5C2HFeSCSFeSFeS2H2FeSCSFe2SHFeSCFe2S3HCHSH2SH2FeS2FeS2FeSFeS3CHCHC3HCHC2H2SNHSHC2HC6H4C6H4CSC6H4C4HCH3C3HCH5CH2FeCHCH2CH2CSH2CHCHNC4H2CHCH2CH2CHNC4H12NC4H9CSHFeH5SHC2HCH4SHNCH4CH2SNC2H2CH2NHCH4CH3SFeHSHCHCHSCH2FeCFeC2H5CH2NCH2CHCHFeCSHSFeS2FeS2FeSFeS3FeS2HSFeH3FeSHSFeS2FeS2HCFeS2C2H2CFeHSFeS2HNH4CSHCSFeH2C6H4C6H3C6H4C6HNH2C6H4C6H4N2C3H9NC4H12CH7SHC2H2CHC2HSC4SCH3S2FeS2H8C2HFeH8CH3CH4CH2NSCNHS2H4C3HCS2H4SHC2SCHCFeS2NSFeSFeHSH2SH2CFeHC2H3C2H4C2H2NH3FeC2FeSC7H4C6H4SFeS2HCH4NC4H12SHFeH2NH4CH3CHCH3C2H2CNHSCH2C2NH2CSCFeCHFeH2SHSC2HC3FeH5C2H2CH2CH4CH6CNCHCHC5HC4NH2CHC2H3C2H5NCSCH4CH4FeCSHSH8CSC2HNC3H3C2HCHSCH2C2S2C2H2SCNH3SHSFeH8SHNSH3C4Fe2HFeHSFeHS2C3S3FeS2FeHSFeSFeS2HFeS2FeS2FeSFeS3H3SCHCHC6H4C6H4C6H4CNHFeC6H4SCH4C6HCH2C6H4SH2NC3H9NH2SHFeC3H2S2CHFeSFe2H2CH2NH5CH5NC4H14CH2SH2FeH2C2H4C2HNH3SHCH3SFeC2H3SH5CNC2HCH2C2H2S2CH2
_chemical_formula_sum              "Fe400 S800 H3200 C2000 N200"
_cell_length_a       81.8479
_cell_length_b       80.7371
_cell_length_c       59.7511
_cell_angle_alpha    79.7907
_cell_angle_beta     79.8355
_cell_angle_gamma    102.948

_space_group_name_H-M_alt    "P 1"
_space_group_IT_number       1

loop_
  _space_group_symop_operation_xyz
  'x, y, z'

loop_
  _atom_site_type_symbol
  _atom_site_label
  _atom_site_symmetry_multiplicity
  _atom_site_fract_x
  _atom_site_fract_y
  _atom_site_fract_z
  _atom_site_occupancy
  Fe  Fe1       1.0  0.11825  0.10057  0.36423  1.0000
  S   S1        1.0  0.11918  0.11008  0.32609  1.0000
  S   S2        1.0  0.12934  0.07771  0.37358  1.0000
  Fe  Fe2       1.0  0.09889  0.12630  0.37879  1.0000
  S   S3        1.0  0.09824  0.13740  0.34204  1.0000
  S   S4        1.0  0.08632  0.13762  0.40704  1.0000
  Fe  Fe3       1.0  0.09148  0.10962  0.33842  1.0000
  S   S5        1.0  0.06703  0.09885  0.32689  1.0000
  Fe  Fe4       1.0  0.12604  0.13701  0.33349  1.0000
  S   S6        1.0  0.14518  0.16078  0.30812  1.0000
  S   S7        1.0  0.09021  0.09853  0.37610  1.0000
  S   S8        1.0  0.12713  0.12743  0.37071  1.0000
  H   H1        1.0  0.18158  0.23159  0.99964  1.0000
  H   H2        1.0  0.11417  0.21265  0.35584  1.0000
  C   C1        1.0  0.12069  0.18764  0.33402  1.0000
  S   S9        1.0  0.00606  0.12238  0.41334  1.0000
  C   C2        1.0  0.19072  0.21399  0.12774  1.0000
  S   S10       1.0  0.11279  0.14625  0.00535  1.0000
  S   S11       1.0  0.13857  0.11965  0.00652  1.0000
  Fe  Fe5       1.0  0.11000  0.11724  0.01515  1.0000
  S   S12       1.0  0.09089  0.09730  0.04538  1.0000
  C   C3        1.0  0.99414  0.06156  0.98885  1.0000
  S   S13       1.0  0.16469  0.17077  0.99342  1.0000
  S   S14       1.0  0.01322  0.03747  0.23497  1.0000
  H   H3        1.0  0.99376  0.04764  0.99533  1.0000
  C   C4        1.0  0.01601  0.00228  0.15031  1.0000
  Fe  Fe6       1.0  0.02651  0.02941  0.26330  1.0000
  S   S15       1.0  0.05372  0.04411  0.26329  1.0000
  Fe  Fe7       1.0  0.00952  0.01001  0.23013  1.0000
  H   H4        1.0  0.18793  0.22303  0.13908  1.0000
  H   H5        1.0  0.23153  0.17972  0.38078  1.0000
  S   S16       1.0  0.20596  0.21612  0.33019  1.0000
  Fe  Fe8       1.0  0.22177  0.22841  0.06510  1.0000
  S   S17       1.0  0.19668  0.20775  0.06813  1.0000
  H   H6        1.0  0.15817  0.00201  0.43904  1.0000
  S   S18       1.0  0.01755  0.00571  0.05532  1.0000
  H   H7        1.0  0.11723  0.17104  0.39161  1.0000
  H   H8        1.0  0.11699  0.17496  0.32887  1.0000
  C   C5        1.0  0.02549  0.07283  0.10371  1.0000
  C   C6        1.0  0.17352  0.18024  0.01486  1.0000
  C   C7        1.0  0.19003  0.19200  0.00803  1.0000
  C   C8        1.0  0.19751  0.20020  0.02415  1.0000
  C   C9        1.0  0.18841  0.19700  0.04729  1.0000
  C   C10       1.0  0.17190  0.18528  0.05414  1.0000
  C   C11       1.0  0.16452  0.17687  0.03809  1.0000
  H   H9        1.0  0.01608  0.08239  0.06276  1.0000
  H   H10       1.0  0.21034  0.20886  0.01865  1.0000
  H   H11       1.0  0.16471  0.18267  0.07197  1.0000
  H   H12       1.0  0.15181  0.16792  0.04359  1.0000
  C   C12       1.0  0.04984  0.06400  0.01697  1.0000
  C   C13       1.0  0.05624  0.08193  0.00742  1.0000
  C   C14       1.0  0.06840  0.09219  0.01663  1.0000
  C   C15       1.0  0.07465  0.08454  0.03504  1.0000
  C   C16       1.0  0.06797  0.06661  0.04501  1.0000
  C   C17       1.0  0.05555  0.05633  0.03599  1.0000
  N   N1        1.0  0.11447  0.18577  0.35937  1.0000
  H   H13       1.0  0.07295  0.10610  0.00943  1.0000
  H   H14       1.0  0.07279  0.06063  0.05924  1.0000
  H   H15       1.0  0.05074  0.04245  0.04333  1.0000
  Fe  Fe9       1.0  0.01593  0.02721  0.02700  1.0000
  H   H16       1.0  0.03978  0.07714  0.09761  1.0000
  H   H17       1.0  0.20942  0.19028  0.16344  1.0000
  S   S19       1.0  0.00233  0.02118  0.29146  1.0000
  H   H18       1.0  0.07262  0.04438  0.15684  1.0000
  H   H19       1.0  0.05685  0.02384  0.16919  1.0000
  H   H20       1.0  0.11532  0.19701  0.32353  1.0000
  C   C18       1.0  0.02449  0.04592  0.09111  1.0000
  C   C19       1.0  0.11925  0.06202  0.39965  1.0000
  C   C20       1.0  0.12288  0.04572  0.40266  1.0000
  C   C21       1.0  0.11489  0.03282  0.42314  1.0000
  C   C22       1.0  0.10348  0.03628  0.44095  1.0000
  C   C23       1.0  0.09987  0.05262  0.43797  1.0000
  C   C24       1.0  0.10765  0.06544  0.41729  1.0000
  H   H21       1.0  0.13181  0.04301  0.38901  1.0000
  H   H22       1.0  0.11763  0.02026  0.42515  1.0000
  H   H23       1.0  0.17770  0.22746  0.03080  1.0000
  H   H24       1.0  0.10489  0.07805  0.41516  1.0000
  C   C25       1.0  0.06414  0.13431  0.40825  1.0000
  C   C26       1.0  0.05654  0.12507  0.39341  1.0000
  C   C27       1.0  0.03877  0.12180  0.39497  1.0000
  C   C28       1.0  0.02840  0.12758  0.41153  1.0000
  C   C29       1.0  0.03598  0.13712  0.42618  1.0000
  C   C30       1.0  0.05387  0.14053  0.42448  1.0000
  H   H25       1.0  0.06430  0.12033  0.38068  1.0000
  H   H26       1.0  0.03302  0.11460  0.38340  1.0000
  H   H27       1.0  0.02807  0.14197  0.43859  1.0000
  H   H28       1.0  0.05973  0.14788  0.43582  1.0000
  C   C31       1.0  0.18949  0.20066  0.32335  1.0000
  C   C32       1.0  0.18644  0.20212  0.30087  1.0000
  C   C33       1.0  0.17293  0.18972  0.29649  1.0000
  C   C34       1.0  0.16245  0.17563  0.31440  1.0000
  C   C35       1.0  0.16566  0.17406  0.33681  1.0000
  C   C36       1.0  0.17902  0.18657  0.34127  1.0000
  H   H29       1.0  0.19436  0.21287  0.28691  1.0000
  H   H30       1.0  0.17057  0.19105  0.27908  1.0000
  H   H31       1.0  0.15786  0.16319  0.35069  1.0000
  H   H32       1.0  0.18129  0.18529  0.35871  1.0000
  C   C37       1.0  0.06379  0.08413  0.30845  1.0000
  C   C38       1.0  0.04686  0.07547  0.30851  1.0000
  C   C39       1.0  0.04360  0.06317  0.29479  1.0000
  C   C40       1.0  0.05729  0.05952  0.28072  1.0000
  C   C41       1.0  0.07425  0.06825  0.28051  1.0000
  C   C42       1.0  0.07751  0.08057  0.29427  1.0000
  H   H33       1.0  0.03618  0.07826  0.31932  1.0000
  H   H34       1.0  0.03049  0.05659  0.29499  1.0000
  H   H35       1.0  0.08490  0.06560  0.26950  1.0000
  H   H36       1.0  0.09059  0.08746  0.29366  1.0000
  S   S20       1.0  0.03474  0.05169  0.00461  1.0000
  N   N2        1.0  0.01765  0.06145  0.08947  1.0000
  H   H37       1.0  0.14796  0.01714  0.42517  1.0000
  H   H38       1.0  0.08198  0.05130  0.21386  1.0000
  C   C43       1.0  0.99876  0.05583  0.09827  1.0000
  N   N3        1.0  0.15872  0.02474  0.45332  1.0000
  H   H39       1.0  0.21079  0.24218  0.18794  1.0000
  H   H40       1.0  0.17105  0.02211  0.41971  1.0000
  H   H41       1.0  0.01349  0.99997  0.11544  1.0000
  H   H42       1.0  0.09039  0.17746  0.38488  1.0000
  H   H43       1.0  0.05659  0.05827  0.18404  1.0000
  H   H44       1.0  0.03867  0.04959  0.08430  1.0000
  H   H45       1.0  0.07921  0.02536  0.16815  1.0000
  H   H46       1.0  0.08733  0.06042  0.18296  1.0000
  H   H47       1.0  0.99508  0.04789  0.11654  1.0000
  H   H48       1.0  0.08925  0.18829  0.35632  1.0000
  Fe  Fe10      1.0  0.22741  0.23868  0.30582  1.0000
  Fe  Fe11      1.0  0.99122  0.00691  0.07294  1.0000
  H   H49       1.0  0.19715  0.19461  0.99015  1.0000
  H   H50       1.0  0.17145  0.05023  0.43154  1.0000
  H   H51       1.0  0.05177  0.08799  0.99286  1.0000
  S   S21       1.0  0.00353  0.00922  0.00692  1.0000
  H   H52       1.0  0.03603  0.07654  0.05816  1.0000
  H   H53       1.0  0.17373  0.00926  0.46901  1.0000
  H   H54       1.0  0.21941  0.18584  0.34587  1.0000
  H   H55       1.0  0.13398  0.20817  0.36057  1.0000
  H   H56       1.0  0.21265  0.24143  0.99649  1.0000
  H   H57       1.0  0.13499  0.19228  0.32863  1.0000
  H   H58       1.0  0.23114  0.21000  0.36369  1.0000
  C   C44       1.0  0.99261  0.00838  0.13308  1.0000
  H   H59       1.0  0.02176  0.03850  0.10951  1.0000
  H   H60       1.0  0.20259  0.22120  0.11432  1.0000
  C   C45       1.0  0.06223  0.02031  0.21255  1.0000
  H   H61       1.0  0.19863  0.17401  0.13488  1.0000
  H   H62       1.0  0.04999  0.01143  0.21150  1.0000
  H   H63       1.0  0.99243  0.04752  0.08758  1.0000
  C   C46       1.0  0.02189  0.07116  0.06487  1.0000
  H   H64       1.0  0.04089  0.03771  0.19580  1.0000
  S   S22       1.0  0.09385  0.02058  0.46722  1.0000
  H   H65       1.0  0.09395  0.04143  0.19430  1.0000
  H   H66       1.0  0.18639  0.18302  0.11596  1.0000
  H   H67       1.0  0.14836  0.04496  0.43755  1.0000
  H   H68       1.0  0.01721  0.06265  0.05329  1.0000
  H   H69       1.0  0.06036  0.02297  0.23035  1.0000
  H   H70       1.0  0.11869  0.16039  0.36786  1.0000
  H   H71       1.0  0.11535  0.20191  0.38434  1.0000
  C   C47       1.0  0.99355  0.01148  0.17290  1.0000
  H   H72       1.0  0.04776  0.02280  0.98633  1.0000
  C   C48       1.0  0.15955  0.04336  0.44519  1.0000
  H   H73       1.0  0.09110  0.16628  0.36170  1.0000
  C   C49       1.0  0.11972  0.20290  0.36530  1.0000
  H   H74       1.0  0.99311  0.06715  0.09797  1.0000
  H   H75       1.0  0.02778  0.99816  0.14890  1.0000
  C   C50       1.0  0.15899  0.01616  0.43340  1.0000
  C   C51       1.0  0.00793  0.00326  0.13133  1.0000
  H   H76       1.0  0.05607  0.09837  0.47261  1.0000
  Fe  Fe12      1.0  0.14129  0.14851  0.99412  1.0000
  H   H77       1.0  0.04224  0.08328  0.46072  1.0000
  H   H78       1.0  0.18017  0.21124  0.11835  1.0000
  N   N4        1.0  0.19296  0.19779  0.14128  1.0000
  C   C52       1.0  0.20729  0.20216  0.15305  1.0000
  C   C53       1.0  0.19685  0.18639  0.12536  1.0000
  C   C54       1.0  0.17693  0.18864  0.15897  1.0000
  H   H79       1.0  0.06692  0.02094  0.99605  1.0000
  H   H80       1.0  0.21958  0.20920  0.14022  1.0000
  H   H81       1.0  0.20487  0.21092  0.16500  1.0000
  C   C55       1.0  0.00882  0.00629  0.17121  1.0000
  H   H82       1.0  0.17364  0.19693  0.17122  1.0000
  H   H83       1.0  0.09111  0.05540  0.45173  1.0000
  H   H84       1.0  0.02242  0.06592  0.12242  1.0000
  N   N5        1.0  0.08224  0.04875  0.35451  1.0000
  C   C56       1.0  0.09130  0.03494  0.35830  1.0000
  C   C57       1.0  0.07559  0.05259  0.37714  1.0000
  C   C58       1.0  0.06774  0.04291  0.34358  1.0000
  C   C59       1.0  0.09439  0.06469  0.33901  1.0000
  H   H85       1.0  0.09654  0.03180  0.34154  1.0000
  H   H86       1.0  0.08259  0.02270  0.37005  1.0000
  H   H87       1.0  0.10233  0.03909  0.36648  1.0000
  H   H88       1.0  0.06845  0.06280  0.37488  1.0000
  H   H89       1.0  0.06668  0.04077  0.38953  1.0000
  H   H90       1.0  0.08626  0.05749  0.38551  1.0000
  H   H91       1.0  0.07228  0.04048  0.32606  1.0000
  H   H92       1.0  0.06047  0.05296  0.34103  1.0000
  H   H93       1.0  0.05848  0.03069  0.35452  1.0000
  H   H94       1.0  0.08828  0.07568  0.33690  1.0000
  H   H95       1.0  0.09904  0.06263  0.32133  1.0000
  H   H96       1.0  0.10587  0.06903  0.34614  1.0000
  N   N6        1.0  0.06702  0.03663  0.19432  1.0000
  C   C60       1.0  0.05337  0.04583  0.19737  1.0000
  C   C61       1.0  0.08333  0.04795  0.19639  1.0000
  C   C62       1.0  0.06907  0.03240  0.17107  1.0000
  S   S23       1.0  0.01950  0.00491  0.19454  1.0000
  H   H97       1.0  0.07226  0.01305  0.21087  1.0000
  H   H98       1.0  0.18605  0.02993  0.45086  1.0000
  H   H99       1.0  0.01604  0.10526  0.45615  1.0000
  H   H100      1.0  0.23333  0.19748  0.31842  1.0000
  S   S24       1.0  0.10633  0.11269  0.98040  1.0000
  C   C63       1.0  0.06141  0.02271  0.98031  1.0000
  H   H101      1.0  0.02075  0.08477  0.10271  1.0000
  H   H102      1.0  0.17815  0.17634  0.16955  1.0000
  H   H103      1.0  0.20882  0.19293  0.11168  1.0000
  C   C64       1.0  0.09549  0.17925  0.36580  1.0000
  H   H104      1.0  0.16586  0.18519  0.15065  1.0000
  C   C65       1.0  0.12206  0.17328  0.37240  1.0000
  H   H105      1.0  0.13635  0.17791  0.36840  1.0000
  H   H106      1.0  0.23364  0.17554  0.33032  1.0000
  H   H107      1.0  0.05131  0.04904  0.21485  1.0000
  H   H108      1.0  0.08718  0.00715  0.97508  1.0000
  C   C66       1.0  0.04423  0.09615  0.46559  1.0000
  H   H109      1.0  0.04684  0.10622  0.44914  1.0000
  C   C67       1.0  0.17942  0.23775  0.01481  1.0000
  Fe  Fe13      1.0  0.98865  0.02666  0.26267  1.0000
  S   S25       1.0  0.02411  0.00240  0.25723  1.0000
  C   C68       1.0  0.23254  0.18807  0.33490  1.0000
  H   H110      1.0  0.00423  0.06958  0.99567  1.0000
  H   H111      1.0  0.01855  0.03679  0.08106  1.0000
  H   H112      1.0  0.20929  0.23753  0.02766  1.0000
  S   S26       1.0  0.99096  0.02995  0.04578  1.0000
  H   H113      1.0  0.13108  0.01733  0.46420  1.0000
  H   H114      1.0  0.01110  0.08214  0.46654  1.0000
  H   H115      1.0  0.16708  0.24147  0.01552  1.0000
  C   C69       1.0  0.17365  0.02316  0.46355  1.0000
  H   H116      1.0  0.98787  0.01457  0.18889  1.0000
  C   C70       1.0  0.01399  0.09477  0.47196  1.0000
  H   H117      1.0  0.15943  0.05020  0.45982  1.0000
  H   H118      1.0  0.22576  0.24552  0.22030  1.0000
  C   C71       1.0  0.14263  0.01619  0.47116  1.0000
  C   C72       1.0  0.22469  0.24647  0.18415  1.0000
  H   H119      1.0  0.01104  0.18181  0.78993  1.0000
  N   N7        1.0  0.06281  0.00886  0.96743  1.0000
  C   C73       1.0  0.01470  0.06349  0.95360  1.0000
  C   C74       1.0  0.07230  0.08201  0.86565  1.0000
  H   H120      1.0  0.08259  0.99882  0.95032  1.0000
  H   H121      1.0  0.01507  0.04980  0.95997  1.0000
  Fe  Fe14      1.0  0.08943  0.01575  0.84880  1.0000
  S   S27       1.0  0.07594  0.02308  0.82012  1.0000
  Fe  Fe15      1.0  0.09930  0.03182  0.88845  1.0000
  S   S28       1.0  0.09287  0.05218  0.90729  1.0000
  S   S29       1.0  0.11349  0.03462  0.85162  1.0000
  C   C75       1.0  0.19729  0.01773  0.82697  1.0000
  H   H122      1.0  0.99467  0.02860  0.78906  1.0000
  S   S30       1.0  0.00317  0.12140  0.89389  1.0000
  H   H123      1.0  0.02176  0.00417  0.79613  1.0000
  S   S31       1.0  0.02952  0.11673  0.84854  1.0000
  H   H124      1.0  0.99702  0.12104  0.74518  1.0000
  C   C76       1.0  0.01739  0.12110  0.79000  1.0000
  H   H125      1.0  0.07922  0.05168  0.86267  1.0000
  C   C77       1.0  0.99820  0.08475  0.95506  1.0000
  C   C78       1.0  0.23678  0.99737  0.67117  1.0000
  H   H126      1.0  0.08867  0.02197  0.94807  1.0000
  S   S32       1.0  0.07487  0.01481  0.88446  1.0000
  C   C79       1.0  0.10821  0.06361  0.92013  1.0000
  C   C80       1.0  0.10244  0.06958  0.93990  1.0000
  C   C81       1.0  0.11417  0.08006  0.94945  1.0000
  C   C82       1.0  0.13169  0.08534  0.93874  1.0000
  C   C83       1.0  0.13756  0.07887  0.91937  1.0000
  C   C84       1.0  0.12585  0.06791  0.91015  1.0000
  H   H127      1.0  0.00087  0.09099  0.78151  1.0000
  C   C85       1.0  0.05543  0.01183  0.94669  1.0000
  H   H128      1.0  0.15114  0.08264  0.91119  1.0000
  H   H129      1.0  0.13041  0.06327  0.89493  1.0000
  C   C86       1.0  0.00810  0.12311  0.75374  1.0000
  H   H130      1.0  0.01774  0.06651  0.93420  1.0000
  C   C87       1.0  0.19805  0.03013  0.80699  1.0000
  C   C88       1.0  0.18317  0.03549  0.80424  1.0000
  C   C89       1.0  0.16747  0.02800  0.82090  1.0000
  H   H131      1.0  0.18368  0.04522  0.78895  1.0000
  H   H132      1.0  0.15597  0.03183  0.81830  1.0000
  C   C90       1.0  0.06055  0.13342  0.91011  1.0000
  C   C91       1.0  0.07254  0.14490  0.91833  1.0000
  H   H133      1.0  0.05537  0.13834  0.89562  1.0000
  H   H134      1.0  0.07654  0.15867  0.91013  1.0000
  H   H135      1.0  0.05936  0.05261  0.89917  1.0000
  H   H136      1.0  0.08883  0.06623  0.94784  1.0000
  C   C92       1.0  0.05751  0.00733  0.81892  1.0000
  H   H137      1.0  0.00113  0.08870  0.93568  1.0000
  C   C93       1.0  0.04555  0.01246  0.80689  1.0000
  H   H138      1.0  0.02821  0.01110  0.54179  1.0000
  C   C94       1.0  0.18177  0.01067  0.84387  1.0000
  H   H139      1.0  0.04750  0.02610  0.79899  1.0000
  H   H140      1.0  0.05866  0.09553  0.94722  1.0000
  C   C95       1.0  0.05566  0.11555  0.92035  1.0000
  S   S33       1.0  0.00432  0.22919  0.82995  1.0000
  Fe  Fe16      1.0  0.12110  0.01033  0.86597  1.0000
  S   S34       1.0  0.99019  0.12879  0.47894  1.0000
  H   H141      1.0  0.04159  0.00255  0.73813  1.0000
  C   C96       1.0  0.16671  0.01541  0.84070  1.0000
  C   C97       1.0  0.07951  0.13860  0.93696  1.0000
  C   C98       1.0  0.00560  0.20778  0.82826  1.0000
  H   H142      1.0  0.06249  0.02459  0.93461  1.0000
  S   S35       1.0  0.13935  0.14590  0.95758  1.0000
  H   H143      1.0  0.08161  0.07893  0.87626  1.0000
  N   N8        1.0  0.12538  0.13098  0.89439  1.0000
  C   C99       1.0  0.14230  0.12902  0.89807  1.0000
  C   C100      1.0  0.12384  0.12894  0.87070  1.0000
  C   C101      1.0  0.12377  0.14843  0.89706  1.0000
  C   C102      1.0  0.11156  0.11745  0.91178  1.0000
  H   H144      1.0  0.14388  0.13058  0.91577  1.0000
  H   H145      1.0  0.15309  0.13892  0.88522  1.0000
  H   H146      1.0  0.14385  0.11585  0.89675  1.0000
  H   H147      1.0  0.11117  0.13034  0.86747  1.0000
  H   H148      1.0  0.13409  0.13892  0.85709  1.0000
  H   H149      1.0  0.12496  0.11584  0.86827  1.0000
  H   H150      1.0  0.11091  0.15018  0.89528  1.0000
  H   H151      1.0  0.13377  0.15903  0.88398  1.0000
  H   H152      1.0  0.12522  0.15045  0.91463  1.0000
  H   H153      1.0  0.11232  0.10411  0.91022  1.0000
  H   H154      1.0  0.09860  0.11858  0.90967  1.0000
  H   H155      1.0  0.11238  0.11850  0.92988  1.0000
  S   S36       1.0  0.04197  0.10031  0.90958  1.0000
  H   H156      1.0  0.04910  0.01281  0.54819  1.0000
  C   C103      1.0  0.03772  0.00361  0.54536  1.0000
  C   C104      1.0  0.00542  0.17849  0.84841  1.0000
  H   H157      1.0  0.99801  0.21661  0.61780  1.0000
  C   C105      1.0  0.06242  0.10933  0.93912  1.0000
  H   H158      1.0  0.99167  0.04023  0.49103  1.0000
  H   H159      1.0  0.05618  0.00149  0.93672  1.0000
  C   C106      1.0  0.04762  0.07051  0.85067  1.0000
  H   H160      1.0  0.06194  0.01823  0.50561  1.0000
  H   H161      1.0  0.02111  0.11499  0.50181  1.0000
  C   C107      1.0  0.00804  0.20271  0.80699  1.0000
  H   H162      1.0  0.05423  0.07770  0.83249  1.0000
  C   C108      1.0  0.05045  0.05637  0.88835  1.0000
  C   C109      1.0  0.06932  0.05481  0.85325  1.0000
  C   C110      1.0  0.04984  0.24326  0.82304  1.0000
  S   S37       1.0  0.00584  0.08223  0.88705  1.0000
  S   S38       1.0  0.99175  0.99798  0.76914  1.0000
  S   S39       1.0  0.01674  0.07794  0.82194  1.0000
  C   C111      1.0  0.98926  0.03380  0.52825  1.0000
  H   H163      1.0  0.01670  0.11518  0.74742  1.0000
  H   H164      1.0  0.07980  0.08947  0.84796  1.0000
  H   H165      1.0  0.03806  0.05867  0.84942  1.0000
  H   H166      1.0  0.03516  0.12494  0.47372  1.0000
  H   H167      1.0  0.23173  0.03669  0.83384  1.0000
  H   H168      1.0  0.02488  0.13505  0.78508  1.0000
  H   H169      1.0  0.04370  0.11607  0.49740  1.0000
  S   S40       1.0  0.10869  0.00926  0.90327  1.0000
  H   H170      1.0  0.22753  0.04653  0.85818  1.0000
  C   C112      1.0  0.23172  0.04930  0.83883  1.0000
  Fe  Fe17      1.0  0.00714  0.12866  0.85445  1.0000
  H   H171      1.0  0.04351  0.24427  0.80800  1.0000
  C   C113      1.0  0.99187  0.21114  0.60453  1.0000
  N   N9        1.0  0.99781  0.06623  0.96308  1.0000
  H   H172      1.0  0.10958  0.08403  0.96510  1.0000
  H   H173      1.0  0.04092  0.04420  0.88812  1.0000
  H   H174      1.0  0.17350  0.02872  0.47935  1.0000
  S   S41       1.0  0.99693  0.01522  0.52785  1.0000
  H   H175      1.0  0.04040  0.23334  0.83773  1.0000
  H   H176      1.0  0.06560  0.09073  0.87392  1.0000
  C   C114      1.0  0.07405  0.12083  0.94762  1.0000
  H   H177      1.0  0.04030  0.07892  0.85858  1.0000
  H   H178      1.0  0.02614  0.11299  0.78486  1.0000
  N   N10       1.0  0.05993  0.06592  0.86446  1.0000
  C   C115      1.0  0.00436  0.04997  0.80432  1.0000
  H   H179      1.0  0.20865  0.01362  0.82946  1.0000
  S   S42       1.0  0.21758  0.03971  0.78580  1.0000
  H   H180      1.0  0.00166  0.20722  0.59262  1.0000
  H   H181      1.0  0.04089  0.01618  0.49949  1.0000
  H   H182      1.0  0.06047  0.04223  0.85284  1.0000
  H   H183      1.0  0.03682  0.08382  0.51194  1.0000
  N   N11       1.0  0.00227  0.11820  0.77943  1.0000
  C   C116      1.0  0.00022  0.06103  0.81874  1.0000
  H   H184      1.0  0.02529  0.07208  0.95900  1.0000
  C   C117      1.0  0.98829  0.04412  0.50728  1.0000
  Fe  Fe18      1.0  0.02390  0.10748  0.88735  1.0000
  H   H185      1.0  0.07608  0.06126  0.83486  1.0000
  H   H186      1.0  0.04166  0.01173  0.95169  1.0000
  N   N12       1.0  0.02909  0.09693  0.48259  1.0000
  S   S43       1.0  0.98732  0.10458  0.85317  1.0000
  H   H187      1.0  0.01765  0.05147  0.79610  1.0000
  H   H188      1.0  0.04342  0.06454  0.89734  1.0000
  Fe  Fe19      1.0  0.00954  0.09267  0.84899  1.0000
  C   C118      1.0  0.00781  0.17340  0.82714  1.0000
  C   C119      1.0  0.99016  0.18620  0.52452  1.0000
  H   H189      1.0  0.07871  0.11584  0.96245  1.0000
  C   C120      1.0  0.99098  0.12903  0.78718  1.0000
  H   H190      1.0  0.01443  0.08333  0.51707  1.0000
  H   H191      1.0  0.01541  0.13710  0.74763  1.0000
  C   C121      1.0  0.02557  0.08282  0.50370  1.0000
  H   H192      1.0  0.18130  0.00141  0.85959  1.0000
  S   S44       1.0  0.14621  0.10095  0.94805  1.0000
  H   H193      1.0  0.00437  0.16925  0.86444  1.0000
  S   S45       1.0  0.00925  0.15205  0.82530  1.0000
  C   C122      1.0  0.00436  0.19562  0.84892  1.0000
  H   H194      1.0  0.01339  0.11757  0.80932  1.0000
  H   H195      1.0  0.00906  0.21194  0.79097  1.0000
  H   H196      1.0  0.00827  0.09356  0.96099  1.0000
  C   C123      1.0  0.00915  0.18560  0.80647  1.0000
  S   S46       1.0  0.09560  0.15300  0.94569  1.0000
  S   S47       1.0  0.14730  0.00431  0.86144  1.0000
  C   C124      1.0  0.99135  0.03698  0.80034  1.0000
  H   H197      1.0  0.22173  0.05423  0.83128  1.0000
  H   H198      1.0  0.02242  0.06971  0.49959  1.0000
  C   C125      1.0  0.05020  0.00874  0.50415  1.0000
  H   H199      1.0  0.00246  0.19942  0.86546  1.0000
  H   H200      1.0  0.00092  0.18409  0.53180  1.0000
  C   C126      1.0  0.03244  0.11398  0.48919  1.0000
  H   H201      1.0  0.00235  0.09527  0.48436  1.0000
  H   H202      1.0  0.06113  0.23806  0.81820  1.0000
  H   H203      1.0  0.14210  0.02200  0.48674  1.0000
  H   H204      1.0  0.99792  0.14316  0.78229  1.0000
  Fe  Fe20      1.0  0.11087  0.14148  0.96975  1.0000
  H   H205      1.0  0.98763  0.18664  0.64322  1.0000
  C   C127      1.0  0.03099  0.00004  0.80517  1.0000
  C   C128      1.0  0.08112  0.00923  0.95992  1.0000
  H   H206      1.0  0.05419  0.00286  0.48924  1.0000
  C   C129      1.0  0.99267  0.09957  0.78684  1.0000
  S   S48       1.0  0.99402  0.21526  0.54335  1.0000
  Fe  Fe21      1.0  0.13471  0.11709  0.97082  1.0000
  H   H207      1.0  0.98841  0.22193  0.59381  1.0000
  H   H208      1.0  0.14148  0.00207  0.47732  1.0000
  H   H209      1.0  0.99108  0.17746  0.61804  1.0000
  H   H210      1.0  0.98817  0.09543  0.80616  1.0000
  H   H211      1.0  0.06841  0.03589  0.96921  1.0000
  S   S49       1.0  0.23572  0.00231  0.76366  1.0000
  Fe  Fe22      1.0  0.98799  0.24035  0.55091  1.0000
  H   H212      1.0  0.98759  0.16324  0.50995  1.0000
  H   H213      1.0  0.10016  0.43574  0.02314  1.0000
  C   C130      1.0  0.18069  0.39365  0.46288  1.0000
  S   S50       1.0  0.22090  0.41775  0.39371  1.0000
  C   C131      1.0  0.09597  0.48433  0.09792  1.0000
  S   S51       1.0  0.21749  0.40576  0.02320  1.0000
  S   S52       1.0  0.11309  0.43995  0.47104  1.0000
  H   H214      1.0  0.11706  0.47248  0.99352  1.0000
  H   H215      1.0  0.23458  0.30135  0.06582  1.0000
  C   C132      1.0  0.00416  0.42794  0.98825  1.0000
  H   H216      1.0  0.22387  0.41442  0.45992  1.0000
  H   H217      1.0  0.19921  0.47900  0.12136  1.0000
  C   C133      1.0  0.99439  0.41644  0.97738  1.0000
  Fe  Fe23      1.0  0.07377  0.46220  0.98847  1.0000
  S   S53       1.0  0.22908  0.36121  0.04637  1.0000
  Fe  Fe24      1.0  0.05161  0.46087  0.39128  1.0000
  S   S54       1.0  0.02819  0.46995  0.40313  1.0000
  S   S55       1.0  0.05740  0.43634  0.40913  1.0000
  Fe  Fe25      1.0  0.02571  0.47341  0.36591  1.0000
  H   H218      1.0  0.11296  0.46891  0.37607  1.0000
  S   S56       1.0  0.04772  0.46201  0.35467  1.0000
  H   H219      1.0  0.18374  0.27105  0.99243  1.0000
  S   S57       1.0  0.05655  0.44768  0.02340  1.0000
  C   C134      1.0  0.23410  0.25000  0.16095  1.0000
  H   H220      1.0  0.19815  0.26146  0.97590  1.0000
  Fe  Fe26      1.0  0.23389  0.38677  0.01996  1.0000
  Fe  Fe27      1.0  0.06710  0.47204  0.03549  1.0000
  S   S58       1.0  0.07694  0.46971  0.06917  1.0000
  Fe  Fe28      1.0  0.03678  0.46030  0.01130  1.0000
  S   S59       1.0  0.00755  0.45089  0.01773  1.0000
  H   H221      1.0  0.23534  0.43372  0.46701  1.0000
  H   H222      1.0  0.09250  0.45456  0.02508  1.0000
  C   C135      1.0  0.99137  0.43756  0.35079  1.0000
  H   H223      1.0  0.10383  0.42561  0.36121  1.0000
  C   C136      1.0  0.23657  0.32369  0.01108  1.0000
  H   H224      1.0  0.23030  0.46224  0.15154  1.0000
  C   C137      1.0  0.10167  0.46600  0.36804  1.0000
  H   H225      1.0  0.09272  0.47118  0.10842  1.0000
  C   C138      1.0  0.09687  0.43842  0.45502  1.0000
  Fe  Fe29      1.0  0.06276  0.49536  0.99178  1.0000
  H   H226      1.0  0.14369  0.45543  0.03169  1.0000
  H   H227      1.0  0.09063  0.41050  0.45968  1.0000
  H   H228      1.0  0.00477  0.43803  0.35002  1.0000
  H   H229      1.0  0.10130  0.47837  0.35665  1.0000
  N   N13       1.0  0.19393  0.25297  0.01312  1.0000
  H   H230      1.0  0.08995  0.46191  0.38242  1.0000
  H   H231      1.0  0.09155  0.43132  0.38525  1.0000
  C   C139      1.0  0.19563  0.26649  0.99201  1.0000
  C   C140      1.0  0.07562  0.42193  0.43800  1.0000
  C   C141      1.0  0.07205  0.43735  0.42762  1.0000
  C   C142      1.0  0.08078  0.45329  0.43124  1.0000
  C   C143      1.0  0.09326  0.45382  0.44469  1.0000
  S   S60       1.0  0.99854  0.47054  0.36050  1.0000
  H   H232      1.0  0.07798  0.46522  0.42363  1.0000
  C   C144      1.0  0.11947  0.47294  0.03778  1.0000
  H   H233      1.0  0.11883  0.44835  0.32503  1.0000
  H   H234      1.0  0.99067  0.46957  0.41813  1.0000
  C   C145      1.0  0.99602  0.43681  0.00290  1.0000
  H   H235      1.0  0.21153  0.45478  0.11262  1.0000
  H   H236      1.0  0.11457  0.43867  0.37850  1.0000
  C   C146      1.0  0.23166  0.34147  0.03918  1.0000
  H   H237      1.0  0.12998  0.43620  0.02707  1.0000
  H   H238      1.0  0.21511  0.38555  0.42899  1.0000
  C   C147      1.0  0.22456  0.46398  0.10842  1.0000
  H   H239      1.0  0.12982  0.46147  0.34198  1.0000
  H   H240      1.0  0.10009  0.46623  0.44721  1.0000
  H   H241      1.0  0.19342  0.37297  0.46653  1.0000
  C   C148      1.0  0.12523  0.46460  0.00087  1.0000
  N   N14       1.0  0.22515  0.47778  0.12179  1.0000
  S   S61       1.0  0.08503  0.48600  0.00116  1.0000
  C   C149      1.0  0.20557  0.40808  0.42038  1.0000
  C   C150      1.0  0.20567  0.39233  0.43453  1.0000
  H   H242      1.0  0.11109  0.48103  0.03155  1.0000
  C   C151      1.0  0.08986  0.48746  0.07739  1.0000
  C   C152      1.0  0.18060  0.40938  0.44873  1.0000
  C   C153      1.0  0.19300  0.41655  0.42760  1.0000
  C   C154      1.0  0.11784  0.45838  0.33542  1.0000
  H   H243      1.0  0.23182  0.33645  0.30287  1.0000
  H   H244      1.0  0.19281  0.42871  0.41673  1.0000
  C   C155      1.0  0.08683  0.44851  0.34528  1.0000
  C   C156      1.0  0.23190  0.28720  0.21624  1.0000
  S   S62       1.0  0.22755  0.26074  0.27661  1.0000
  H   H245      1.0  0.22128  0.25861  0.00997  1.0000
  S   S63       1.0  0.23681  0.39016  0.98116  1.0000
  H   H246      1.0  0.13272  0.48162  0.03423  1.0000
  C   C157      1.0  0.10113  0.44703  0.03164  1.0000
  H   H247      1.0  0.11747  0.47044  0.32326  1.0000
  H   H248      1.0  0.06887  0.40955  0.43532  1.0000
  C   C158      1.0  0.10317  0.43626  0.37057  1.0000
  C   C159      1.0  0.19079  0.26024  0.03403  1.0000
  H   H249      1.0  0.21931  0.28735  0.22680  1.0000
  H   H250      1.0  0.07497  0.44352  0.35954  1.0000
  Fe  Fe30      1.0  0.06474  0.48933  0.34709  1.0000
  N   N15       1.0  0.10240  0.45227  0.35481  1.0000
  C   C160      1.0  0.08793  0.42243  0.45179  1.0000
  S   S64       1.0  0.04555  0.48305  0.02718  1.0000
  H   H251      1.0  0.09585  0.44198  0.05076  1.0000
  H   H252      1.0  0.13868  0.47295  0.99618  1.0000
  H   H253      1.0  0.20787  0.46059  0.15272  1.0000
  S   S65       1.0  0.05321  0.47312  0.97538  1.0000
  H   H254      1.0  0.00602  0.49277  0.00148  1.0000
  H   H255      1.0  0.12569  0.44234  0.05457  1.0000
  C   C161      1.0  0.22096  0.46974  0.14704  1.0000
  C   C162      1.0  0.23314  0.24841  0.20252  1.0000
  H   H256      1.0  0.08556  0.46044  0.33383  1.0000
  H   H257      1.0  0.20179  0.27141  0.03366  1.0000
  C   C163      1.0  0.19331  0.38519  0.45573  1.0000
  H   H258      1.0  0.17096  0.41602  0.45403  1.0000
  N   N16       1.0  0.11900  0.45804  0.02641  1.0000
  H   H259      1.0  0.12483  0.45367  0.99172  1.0000
  H   H260      1.0  0.23365  0.34991  0.00236  1.0000
  C   C164      1.0  0.23455  0.41965  0.46813  1.0000
  C   C165      1.0  0.13010  0.44754  0.03535  1.0000
  H   H261      1.0  0.20652  0.27811  0.99040  1.0000
  S   S66       1.0  0.22282  0.24779  0.13844  1.0000
  H   H262      1.0  0.18907  0.25022  0.05029  1.0000
  H   H263      1.0  0.22999  0.32908  0.07487  1.0000
  H   H264      1.0  0.08704  0.43844  0.33479  1.0000
  H   H265      1.0  0.13310  0.34248  0.46355  1.0000
  H   H266      1.0  0.22584  0.31868  0.20736  1.0000
  H   H267      1.0  0.08394  0.49504  0.15869  1.0000
  H   H268      1.0  0.11470  0.46844  0.05706  1.0000
  H   H269      1.0  0.23489  0.30969  0.24439  1.0000
  H   H270      1.0  0.02787  0.49333  0.99011  1.0000
  S   S67       1.0  0.21728  0.25248  0.07614  1.0000
  H   H271      1.0  0.17900  0.26504  0.03539  1.0000
  Fe  Fe31      1.0  0.22208  0.41048  0.98385  1.0000
  H   H272      1.0  0.22811  0.46956  0.08924  1.0000
  H   H273      1.0  0.99634  0.47271  0.97684  1.0000
  H   H274      1.0  0.01792  0.42973  0.98555  1.0000
  H   H275      1.0  0.23375  0.45615  0.11232  1.0000
  S   S68       1.0  0.06962  0.48763  0.38327  1.0000
  C   C166      1.0  0.23398  0.33942  0.01618  1.0000
  H   H276      1.0  0.11111  0.49540  0.12060  1.0000
  C   C167      1.0  0.23182  0.32762  0.05702  1.0000
  Fe  Fe32      1.0  0.23485  0.24883  0.10055  1.0000
  H   H277      1.0  0.21544  0.49399  0.09769  1.0000
  S   S69       1.0  0.09270  0.44815  0.97353  1.0000
  C   C168      1.0  0.21000  0.24740  0.01171  1.0000
  C   C169      1.0  0.23444  0.31190  0.05193  1.0000
  C   C170      1.0  0.21255  0.48764  0.11658  1.0000
  H   H278      1.0  0.22963  0.28326  0.19986  1.0000
  H   H279      1.0  0.00577  0.49164  0.43697  1.0000
  H   H280      1.0  0.22140  0.47981  0.15765  1.0000
  H   H281      1.0  0.23638  0.27679  0.22623  1.0000
  H   H282      1.0  0.23650  0.31456  0.18071  1.0000
  C   C171      1.0  0.23683  0.30988  0.02891  1.0000
  H   H283      1.0  0.98966  0.31434  0.53779  1.0000
  H   H284      1.0  0.18212  0.42762  0.93086  1.0000
  Fe  Fe33      1.0  0.14351  0.39578  0.50242  1.0000
  S   S70       1.0  0.14341  0.42347  0.50342  1.0000
  Fe  Fe34      1.0  0.10592  0.38080  0.52798  1.0000
  S   S71       1.0  0.10250  0.40721  0.53130  1.0000
  S   S72       1.0  0.08787  0.35381  0.54589  1.0000
  H   H285      1.0  0.13601  0.44502  0.85838  1.0000
  Fe  Fe35      1.0  0.12844  0.41310  0.54053  1.0000
  S   S73       1.0  0.12979  0.42950  0.56805  1.0000
  H   H286      1.0  0.12532  0.46199  0.85725  1.0000
  S   S74       1.0  0.13062  0.38588  0.54061  1.0000
  Fe  Fe36      1.0  0.13642  0.38305  0.88308  1.0000
  S   S75       1.0  0.14176  0.41062  0.86279  1.0000
  S   S76       1.0  0.15196  0.37428  0.90931  1.0000
  Fe  Fe37      1.0  0.10649  0.36969  0.85869  1.0000
  S   S77       1.0  0.11061  0.39655  0.83664  1.0000
  S   S78       1.0  0.08175  0.34832  0.86107  1.0000
  Fe  Fe38      1.0  0.13885  0.39873  0.83193  1.0000
  S   S79       1.0  0.15945  0.41078  0.79868  1.0000
  Fe  Fe39      1.0  0.11305  0.40596  0.86944  1.0000
  S   S80       1.0  0.09789  0.42548  0.87652  1.0000
  S   S81       1.0  0.13493  0.37107  0.85170  1.0000
  S   S82       1.0  0.10764  0.37919  0.89201  1.0000
  C   C172      1.0  0.12745  0.34522  0.52038  1.0000
  H   H287      1.0  0.23602  0.42683  0.87390  1.0000
  C   C173      1.0  0.16993  0.42779  0.68304  1.0000
  C   C174      1.0  0.14015  0.47077  0.53075  1.0000
  S   S83       1.0  0.02152  0.30542  0.52475  1.0000
  C   C175      1.0  0.13905  0.41631  0.69383  1.0000
  H   H288      1.0  0.16315  0.45179  0.65221  1.0000
  S   S84       1.0  0.00241  0.27567  0.81282  1.0000
  Fe  Fe40      1.0  0.01130  0.26966  0.74845  1.0000
  S   S85       1.0  0.01043  0.29520  0.75807  1.0000
  S   S86       1.0  0.01788  0.27099  0.70895  1.0000
  Fe  Fe41      1.0  0.02605  0.28937  0.78454  1.0000
  S   S87       1.0  0.05088  0.30841  0.78729  1.0000
  S   S88       1.0  0.02903  0.26499  0.77262  1.0000
  Fe  Fe42      1.0  0.19216  0.47991  0.63737  1.0000
  H   H289      1.0  0.00075  0.40943  0.96632  1.0000
  S   S89       1.0  0.19176  0.46100  0.61304  1.0000
  Fe  Fe43      1.0  0.17567  0.48271  0.68600  1.0000
  S   S90       1.0  0.15298  0.46875  0.71629  1.0000
  S   S91       1.0  0.19689  0.47109  0.67305  1.0000
  H   H290      1.0  0.06173  0.27488  0.79369  1.0000
  C   C176      1.0  0.00395  0.26619  0.64744  1.0000
  C   C177      1.0  0.01299  0.27099  0.66440  1.0000
  C   C178      1.0  0.00601  0.26392  0.68841  1.0000
  H   H291      1.0  0.11142  0.45124  0.82770  1.0000
  H   H292      1.0  0.15650  0.45689  0.79463  1.0000
  H   H293      1.0  0.02549  0.28035  0.65884  1.0000
  H   H294      1.0  0.99829  0.30539  0.71475  1.0000
  C   C179      1.0  0.09623  0.43143  0.90371  1.0000
  C   C180      1.0  0.08527  0.44189  0.90952  1.0000
  C   C181      1.0  0.08381  0.44693  0.93104  1.0000
  H   H295      1.0  0.07448  0.25340  0.84587  1.0000
  C   C182      1.0  0.10439  0.43115  0.94087  1.0000
  C   C183      1.0  0.10571  0.42597  0.91951  1.0000
  H   H296      1.0  0.07789  0.44616  0.89737  1.0000
  H   H297      1.0  0.18141  0.43488  0.66872  1.0000
  H   H298      1.0  0.04264  0.27925  0.84077  1.0000
  H   H299      1.0  0.11418  0.41789  0.91523  1.0000
  C   C184      1.0  0.15720  0.42629  0.77543  1.0000
  C   C185      1.0  0.17188  0.43594  0.75818  1.0000
  C   C186      1.0  0.17075  0.44893  0.73988  1.0000
  C   C187      1.0  0.15487  0.45230  0.73867  1.0000
  C   C188      1.0  0.14013  0.44249  0.75572  1.0000
  C   C189      1.0  0.14127  0.42948  0.77404  1.0000
  H   H300      1.0  0.18425  0.43351  0.75917  1.0000
  H   H301      1.0  0.18221  0.45647  0.72693  1.0000
  H   H302      1.0  0.12778  0.44494  0.75473  1.0000
  H   H303      1.0  0.12986  0.42189  0.78702  1.0000
  C   C190      1.0  0.07332  0.33767  0.84004  1.0000
  C   C191      1.0  0.05655  0.32637  0.84661  1.0000
  C   C192      1.0  0.04934  0.31754  0.83074  1.0000
  C   C193      1.0  0.05889  0.31971  0.80803  1.0000
  C   C194      1.0  0.07565  0.33097  0.80150  1.0000
  C   C195      1.0  0.08279  0.33995  0.81728  1.0000
  H   H304      1.0  0.04905  0.32445  0.86413  1.0000
  H   H305      1.0  0.03640  0.30908  0.83608  1.0000
  H   H306      1.0  0.08321  0.33280  0.78403  1.0000
  H   H307      1.0  0.09569  0.34851  0.81187  1.0000
  H   H308      1.0  0.12347  0.31305  0.49044  1.0000
  C   C196      1.0  0.14745  0.43844  0.57970  1.0000
  C   C197      1.0  0.16316  0.43418  0.57509  1.0000
  C   C198      1.0  0.17664  0.44136  0.58522  1.0000
  C   C199      1.0  0.17466  0.45303  0.59980  1.0000
  C   C200      1.0  0.15902  0.45749  0.60409  1.0000
  C   C201      1.0  0.14547  0.45012  0.59425  1.0000
  H   H309      1.0  0.16487  0.42520  0.56397  1.0000
  H   H310      1.0  0.18868  0.43781  0.58178  1.0000
  H   H311      1.0  0.15734  0.46660  0.61501  1.0000
  H   H312      1.0  0.13337  0.45351  0.59793  1.0000
  C   C202      1.0  0.06908  0.34098  0.53995  1.0000
  C   C203      1.0  0.06332  0.34573  0.51966  1.0000
  C   C204      1.0  0.04876  0.33469  0.51534  1.0000
  C   C205      1.0  0.03971  0.31885  0.53127  1.0000
  C   C206      1.0  0.04544  0.31413  0.55158  1.0000
  C   C207      1.0  0.06008  0.32510  0.55581  1.0000
  H   H313      1.0  0.07010  0.35786  0.50727  1.0000
  H   H314      1.0  0.04448  0.33847  0.49954  1.0000
  H   H315      1.0  0.03867  0.30200  0.56400  1.0000
  H   H316      1.0  0.06443  0.32126  0.57154  1.0000
  C   C208      1.0  0.18924  0.40501  0.94696  1.0000
  C   C209      1.0  0.18680  0.38703  0.94907  1.0000
  C   C210      1.0  0.17546  0.37793  0.93733  1.0000
  C   C211      1.0  0.16647  0.38661  0.92319  1.0000
  C   C212      1.0  0.16912  0.40465  0.92081  1.0000
  C   C213      1.0  0.18039  0.41374  0.93265  1.0000
  C   C214      1.0  0.99579  0.33630  0.49635  1.0000
  H   H317      1.0  0.17350  0.36399  0.93938  1.0000
  H   H318      1.0  0.16231  0.41154  0.91010  1.0000
  Fe  Fe44      1.0  0.00235  0.27995  0.54658  1.0000
  H   H319      1.0  0.14014  0.40295  0.70071  1.0000
  H   H320      1.0  0.12408  0.44956  0.80072  1.0000
  H   H321      1.0  0.23078  0.41288  0.48691  1.0000
  H   H322      1.0  0.15365  0.44130  0.82127  1.0000
  H   H323      1.0  0.12847  0.48240  0.81932  1.0000
  H   H324      1.0  0.14301  0.41593  0.64792  1.0000
  H   H325      1.0  0.13997  0.46430  0.48809  1.0000
  C   C215      1.0  0.12621  0.31948  0.50487  1.0000
  H   H326      1.0  0.13967  0.31978  0.50618  1.0000
  C   C216      1.0  0.15476  0.41706  0.65514  1.0000
  H   H327      1.0  0.01816  0.47300  0.96578  1.0000
  H   H328      1.0  0.17173  0.41478  0.69013  1.0000
  H   H329      1.0  0.11751  0.31109  0.52142  1.0000
  C   C217      1.0  0.12355  0.44838  0.81968  1.0000
  N   N17       1.0  0.05554  0.37896  0.89806  1.0000
  C   C218      1.0  0.06520  0.38548  0.87351  1.0000
  C   C219      1.0  0.05659  0.36096  0.90659  1.0000
  C   C220      1.0  0.03734  0.37903  0.89952  1.0000
  C   C221      1.0  0.06304  0.39037  0.91252  1.0000
  H   H330      1.0  0.06500  0.39914  0.86650  1.0000
  H   H331      1.0  0.06001  0.37714  0.86204  1.0000
  H   H332      1.0  0.07889  0.38541  0.87185  1.0000
  H   H333      1.0  0.04939  0.35550  0.92502  1.0000
  H   H334      1.0  0.05135  0.35207  0.89577  1.0000
  H   H335      1.0  0.07017  0.36043  0.90569  1.0000
  H   H336      1.0  0.02965  0.37421  0.91782  1.0000
  H   H337      1.0  0.03132  0.37054  0.88878  1.0000
  H   H338      1.0  0.03614  0.39242  0.89312  1.0000
  H   H339      1.0  0.05617  0.38585  0.93120  1.0000
  H   H340      1.0  0.22460  0.43768  0.90891  1.0000
  H   H341      1.0  0.07683  0.39077  0.91165  1.0000
  C   C222      1.0  0.23234  0.40725  0.91669  1.0000
  H   H342      1.0  0.00956  0.27180  0.62909  1.0000
  H   H343      1.0  0.98978  0.29074  0.68473  1.0000
  H   H344      1.0  0.12360  0.47474  0.48230  1.0000
  C   C223      1.0  0.10569  0.33630  0.49930  1.0000
  H   H345      1.0  0.13818  0.42297  0.70869  1.0000
  H   H346      1.0  0.06683  0.27094  0.85480  1.0000
  H   H347      1.0  0.10328  0.34948  0.49669  1.0000
  C   C224      1.0  0.15182  0.44377  0.66604  1.0000
  H   H348      1.0  0.19343  0.38007  0.96001  1.0000
  H   H349      1.0  0.99479  0.34826  0.50272  1.0000
  H   H350      1.0  0.11190  0.42701  0.95292  1.0000
  C   C225      1.0  0.09347  0.44165  0.94673  1.0000
  H   H351      1.0  0.10289  0.45343  0.51569  1.0000
  H   H352      1.0  0.02937  0.25703  0.84959  1.0000
  C   C226      1.0  0.11788  0.48474  0.52299  1.0000
  S   S92       1.0  0.16529  0.38410  0.48953  1.0000
  H   H353      1.0  0.00509  0.47840  0.94585  1.0000
  C   C227      1.0  0.03946  0.26665  0.83533  1.0000
  H   H354      1.0  0.07925  0.26887  0.80442  1.0000
  C   C228      1.0  0.13373  0.47460  0.49253  1.0000
  H   H355      1.0  0.12671  0.41499  0.68806  1.0000
  N   N18       1.0  0.12632  0.47103  0.51787  1.0000
  C   C229      1.0  0.11347  0.45391  0.52519  1.0000
  S   S93       1.0  0.11897  0.38980  0.48977  1.0000
  H   H356      1.0  0.14024  0.44319  0.65857  1.0000
  H   H357      1.0  0.10734  0.48519  0.51355  1.0000
  Fe  Fe45      1.0  0.11759  0.41669  0.49414  1.0000
  H   H358      1.0  0.14923  0.34919  0.47947  1.0000
  H   H359      1.0  0.06254  0.40408  0.90647  1.0000
  H   H360      1.0  0.13407  0.36157  0.47534  1.0000
  H   H361      1.0  0.99789  0.33960  0.47700  1.0000
  H   H362      1.0  0.14356  0.48737  0.48629  1.0000
  C   C230      1.0  0.98986  0.25178  0.69523  1.0000
  N   N19       1.0  0.15387  0.42620  0.67452  1.0000
  H   H363      1.0  0.10770  0.45055  0.54428  1.0000
  H   H364      1.0  0.14662  0.46039  0.52744  1.0000
  H   H365      1.0  0.11211  0.48234  0.54199  1.0000
  H   H366      1.0  0.16990  0.43511  0.69720  1.0000
  H   H367      1.0  0.22938  0.40487  0.93606  1.0000
  H   H368      1.0  0.14103  0.34655  0.52188  1.0000
  S   S94       1.0  0.20328  0.41729  0.96143  1.0000
  H   H369      1.0  0.14840  0.46724  0.85308  1.0000
  H   H370      1.0  0.16622  0.46329  0.81751  1.0000
  H   H371      1.0  0.07109  0.28617  0.81339  1.0000
  C   C231      1.0  0.15448  0.45522  0.81391  1.0000
  H   H372      1.0  0.16595  0.42424  0.64043  1.0000
  H   H373      1.0  0.15054  0.45087  0.68031  1.0000
  C   C232      1.0  0.14011  0.47831  0.81233  1.0000
  H   H374      1.0  0.15619  0.40368  0.66087  1.0000
  H   H375      1.0  0.13497  0.46794  0.54996  1.0000
  C   C233      1.0  0.13550  0.34802  0.47879  1.0000
  N   N20       1.0  0.13883  0.46013  0.82379  1.0000
  C   C234      1.0  0.06283  0.25827  0.84970  1.0000
  Fe  Fe46      1.0  0.00489  0.25137  0.80011  1.0000
  H   H376      1.0  0.12250  0.43453  0.82751  1.0000
  N   N21       1.0  0.12371  0.33724  0.50081  1.0000
  H   H377      1.0  0.07540  0.45505  0.93536  1.0000
  C   C235      1.0  0.13713  0.45860  0.84919  1.0000
  H   H378      1.0  0.10233  0.33049  0.48465  1.0000
  C   C236      1.0  0.06732  0.27306  0.80938  1.0000
  H   H379      1.0  0.99389  0.30222  0.50225  1.0000
  H   H380      1.0  0.11877  0.33757  0.53735  1.0000
  S   S95       1.0  0.16983  0.49002  0.65068  1.0000
  H   H381      1.0  0.21984  0.40637  0.91136  1.0000
  H   H382      1.0  0.23548  0.43717  0.93232  1.0000
  H   H383      1.0  0.09648  0.32830  0.51570  1.0000
  H   H384      1.0  0.11951  0.44338  0.52150  1.0000
  N   N22       1.0  0.05489  0.26030  0.82935  1.0000
  S   S96       1.0  0.00585  0.25605  0.56910  1.0000
  H   H385      1.0  0.05368  0.24885  0.86512  1.0000
  H   H386      1.0  0.00758  0.33299  0.50062  1.0000
  H   H387      1.0  0.12549  0.35850  0.51783  1.0000
  C   C237      1.0  0.00806  0.47985  0.96298  1.0000
  H   H388      1.0  0.03364  0.26894  0.82004  1.0000
  H   H389      1.0  0.14138  0.47987  0.79313  1.0000
  H   H390      1.0  0.15017  0.48344  0.52570  1.0000
  H   H391      1.0  0.15152  0.48754  0.81505  1.0000
  C   C238      1.0  0.98781  0.25408  0.65426  1.0000
  S   S97       1.0  0.98724  0.25399  0.77521  1.0000
  S   S98       1.0  0.12480  0.73148  0.34055  1.0000
  Fe  Fe47      1.0  0.12790  0.72456  0.37748  1.0000
  S   S99       1.0  0.12768  0.69635  0.39091  1.0000
  Fe  Fe48      1.0  0.10850  0.73163  0.99389  1.0000
  S   S100      1.0  0.10572  0.70302  0.00720  1.0000
  H   H392      1.0  0.09447  0.53818  0.43314  1.0000
  Fe  Fe49      1.0  0.13252  0.71200  0.01278  1.0000
  S   S101      1.0  0.14255  0.69754  0.04151  1.0000
  Fe  Fe50      1.0  0.00135  0.72174  0.29917  1.0000
  S   S102      1.0  0.02161  0.71267  0.31666  1.0000
  H   H393      1.0  0.02184  0.51335  0.98835  1.0000
  S   S103      1.0  0.00746  0.71055  0.03306  1.0000
  H   H394      1.0  0.20211  0.50263  0.19288  1.0000
  Fe  Fe51      1.0  0.19130  0.71904  0.14211  1.0000
  S   S104      1.0  0.21375  0.70706  0.14028  1.0000
  H   H395      1.0  0.22725  0.56656  0.15445  1.0000
  Fe  Fe52      1.0  0.18571  0.71545  0.19465  1.0000
  S   S105      1.0  0.20742  0.70303  0.19738  1.0000
  S   S106      1.0  0.16464  0.71772  0.22335  1.0000
  Fe  Fe53      1.0  0.22252  0.72350  0.16516  1.0000
  Fe  Fe54      1.0  0.19765  0.68724  0.17259  1.0000
  S   S107      1.0  0.19735  0.65852  0.18311  1.0000
  S   S108      1.0  0.17465  0.69799  0.17251  1.0000
  S   S109      1.0  0.05792  0.59386  0.47165  1.0000
  H   H396      1.0  0.08152  0.52563  0.34616  1.0000
  S   S110      1.0  0.06116  0.52302  0.98168  1.0000
  H   H397      1.0  0.02810  0.74473  0.03561  1.0000
  N   N23       1.0  0.20538  0.57361  0.17212  1.0000
  H   H398      1.0  0.08034  0.51969  0.11603  1.0000
  C   C239      1.0  0.18351  0.73878  0.24705  1.0000
  C   C240      1.0  0.09431  0.50449  0.06386  1.0000
  Fe  Fe55      1.0  0.13336  0.53657  0.13243  1.0000
  S   S111      1.0  0.13035  0.51677  0.16546  1.0000
  S   S112      1.0  0.12281  0.53328  0.09994  1.0000
  Fe  Fe56      1.0  0.15141  0.56708  0.15230  1.0000
  S   S113      1.0  0.14927  0.54945  0.18702  1.0000
  S   S114      1.0  0.16318  0.59649  0.13912  1.0000
  Fe  Fe57      1.0  0.15738  0.53116  0.16537  1.0000
  S   S115      1.0  0.17553  0.51572  0.17721  1.0000
  Fe  Fe58      1.0  0.12248  0.53642  0.18445  1.0000
  S   S116      1.0  0.09688  0.52883  0.21097  1.0000
  S   S117      1.0  0.16117  0.54949  0.13076  1.0000
  S   S118      1.0  0.12399  0.55554  0.15137  1.0000
  H   H399      1.0  0.15046  0.67590  0.00705  1.0000
  C   C241      1.0  0.18061  0.73786  0.00320  1.0000
  C   C242      1.0  0.11064  0.51516  0.09151  1.0000
  H   H400      1.0  0.03187  0.70731  0.07561  1.0000
  C   C243      1.0  0.10460  0.51823  0.07092  1.0000
  H   H401      1.0  0.08974  0.50714  0.04801  1.0000
  H   H402      1.0  0.10782  0.53137  0.06038  1.0000
  H   H403      1.0  0.00240  0.51752  0.39521  1.0000
  C   C244      1.0  0.22298  0.53540  0.13357  1.0000
  C   C245      1.0  0.20509  0.53139  0.14239  1.0000
  C   C246      1.0  0.19754  0.51981  0.16403  1.0000
  C   C247      1.0  0.20787  0.51166  0.17617  1.0000
  C   C248      1.0  0.22570  0.51553  0.16725  1.0000
  H   H404      1.0  0.11203  0.66081  0.02748  1.0000
  H   H405      1.0  0.19718  0.53738  0.13257  1.0000
  N   N24       1.0  0.07441  0.51787  0.15303  1.0000
  H   H406      1.0  0.02181  0.71594  0.13532  1.0000
  C   C249      1.0  0.06497  0.72706  0.34119  1.0000
  C   C250      1.0  0.10953  0.51927  0.25005  1.0000
  C   C251      1.0  0.09510  0.52066  0.24111  1.0000
  H   H407      1.0  0.10641  0.65596  0.00098  1.0000
  C   C252      1.0  0.15257  0.73007  0.26088  1.0000
  H   H408      1.0  0.13545  0.62784  0.01399  1.0000
  H   H409      1.0  0.12214  0.52318  0.23842  1.0000
  H   H410      1.0  0.11882  0.70753  0.19370  1.0000
  H   H411      1.0  0.04886  0.51727  0.17035  1.0000
  C   C253      1.0  0.07541  0.55087  0.44594  1.0000
  H   H412      1.0  0.12163  0.67585  0.99998  1.0000
  C   C254      1.0  0.04754  0.54116  0.43683  1.0000
  C   C255      1.0  0.05346  0.52936  0.42501  1.0000
  C   C256      1.0  0.07036  0.52812  0.42395  1.0000
  C   C257      1.0  0.08136  0.53901  0.43417  1.0000
  H   H413      1.0  0.22201  0.59626  0.14722  1.0000
  C   C258      1.0  0.07691  0.50896  0.28054  1.0000
  H   H414      1.0  0.07501  0.51890  0.41518  1.0000
  C   C259      1.0  0.18630  0.64160  0.17152  1.0000
  C   C260      1.0  0.18365  0.64483  0.14885  1.0000
  C   C261      1.0  0.17632  0.63087  0.13941  1.0000
  C   C262      1.0  0.17117  0.61358  0.15266  1.0000
  C   C263      1.0  0.17324  0.61041  0.17565  1.0000
  C   C264      1.0  0.18106  0.62431  0.18486  1.0000
  H   H415      1.0  0.18768  0.65802  0.13831  1.0000
  H   H416      1.0  0.17474  0.63349  0.12164  1.0000
  H   H417      1.0  0.16893  0.59726  0.18621  1.0000
  H   H418      1.0  0.18294  0.62170  0.20249  1.0000
  C   C265      1.0  0.04138  0.72515  0.32061  1.0000
  C   C266      1.0  0.15220  0.70705  0.06223  1.0000
  C   C267      1.0  0.15223  0.72402  0.06443  1.0000
  C   C268      1.0  0.21892  0.56418  0.17221  1.0000
  C   C269      1.0  0.16885  0.72173  0.09465  1.0000
  C   C270      1.0  0.16850  0.70463  0.09283  1.0000
  C   C271      1.0  0.16022  0.69735  0.07667  1.0000
  H   H419      1.0  0.17478  0.69708  0.10364  1.0000
  H   H420      1.0  0.16017  0.68417  0.07523  1.0000
  C   C272      1.0  0.02987  0.72052  0.02632  1.0000
  H   H421      1.0  0.14866  0.64914  0.97618  1.0000
  H   H422      1.0  0.03173  0.63063  0.43205  1.0000
  H   H423      1.0  0.22514  0.67516  0.20657  1.0000
  C   C273      1.0  0.05910  0.71845  0.01197  1.0000
  C   C274      1.0  0.04117  0.71111  0.01782  1.0000
  H   H424      1.0  0.09226  0.54245  0.13503  1.0000
  H   H425      1.0  0.06765  0.71114  0.00521  1.0000
  H   H426      1.0  0.03606  0.69810  0.01556  1.0000
  C   C275      1.0  0.11181  0.68192  0.41440  1.0000
  C   C276      1.0  0.09828  0.68719  0.42632  1.0000
  C   C277      1.0  0.08585  0.67523  0.44490  1.0000
  C   C278      1.0  0.08685  0.65798  0.45159  1.0000
  C   C279      1.0  0.10039  0.65272  0.43971  1.0000
  C   C280      1.0  0.11282  0.66468  0.42117  1.0000
  H   H427      1.0  0.09740  0.70045  0.42123  1.0000
  H   H428      1.0  0.04487  0.62282  0.45037  1.0000
  H   H429      1.0  0.10128  0.63946  0.44476  1.0000
  H   H430      1.0  0.12329  0.66054  0.41205  1.0000
  S   S119      1.0  0.17970  0.73189  0.11386  1.0000
  N   N25       1.0  0.01884  0.62013  0.46819  1.0000
  C   C281      1.0  0.16730  0.72981  0.24499  1.0000
  C   C282      1.0  0.07879  0.51550  0.25646  1.0000
  H   H431      1.0  0.00108  0.69149  0.08486  1.0000
  H   H432      1.0  0.21270  0.49812  0.12649  1.0000
  C   C283      1.0  0.04980  0.71739  0.33650  1.0000
  C   C284      1.0  0.05840  0.55174  0.44744  1.0000
  S   S120      1.0  0.99362  0.73896  0.21457  1.0000
  C   C285      1.0  0.23673  0.67012  0.20318  1.0000
  C   C286      1.0  0.14539  0.66171  0.01530  1.0000
  C   C287      1.0  0.19414  0.56919  0.19578  1.0000
  H   H433      1.0  0.07101  0.54384  0.14695  1.0000
  N   N26       1.0  0.01354  0.70592  0.10694  1.0000
  H   H434      1.0  0.14269  0.73060  0.13300  1.0000
  C   C288      1.0  0.13809  0.72071  0.14988  1.0000
  H   H435      1.0  0.22883  0.54460  0.11702  1.0000
  H   H436      1.0  0.03463  0.69418  0.10157  1.0000
  H   H437      1.0  0.18805  0.55428  0.16097  1.0000
  S   S121      1.0  0.03975  0.51768  0.41012  1.0000
  C   C289      1.0  0.21340  0.59261  0.16496  1.0000
  H   H438      1.0  0.00357  0.67827  0.11097  1.0000
  H   H439      1.0  0.03976  0.64299  0.45195  1.0000
  C   C290      1.0  0.09137  0.50762  0.28945  1.0000
  H   H440      1.0  0.15635  0.65568  0.01307  1.0000
  C   C291      1.0  0.03665  0.73730  0.02923  1.0000
  H   H441      1.0  0.00145  0.70022  0.98787  1.0000
  C   C292      1.0  0.12504  0.63461  0.01636  1.0000
  H   H442      1.0  0.18902  0.72892  0.00574  1.0000
  S   S122      1.0  0.11286  0.74251  0.39074  1.0000
  H   H443      1.0  0.18367  0.57593  0.19630  1.0000
  H   H444      1.0  0.18786  0.55490  0.20153  1.0000
  C   C293      1.0  0.08098  0.53691  0.15013  1.0000
  H   H445      1.0  0.09077  0.56277  0.37455  1.0000
  H   H446      1.0  0.04085  0.71761  0.09654  1.0000
  H   H447      1.0  0.01860  0.73390  0.09912  1.0000
  H   H448      1.0  0.18501  0.57574  0.15439  1.0000
  C   C294      1.0  0.05942  0.51108  0.17304  1.0000
  H   H449      1.0  0.14077  0.66067  0.03432  1.0000
  H   H450      1.0  0.22116  0.59716  0.17729  1.0000
  Fe  Fe59      1.0  0.04592  0.49694  0.39169  1.0000
  S   S123      1.0  0.00619  0.74612  0.27169  1.0000
  N   N27       1.0  0.15555  0.69524  0.32744  1.0000
  C   C295      1.0  0.13768  0.69470  0.32554  1.0000
  C   C296      1.0  0.16602  0.69577  0.30433  1.0000
  C   C297      1.0  0.15559  0.67955  0.34446  1.0000
  C   C298      1.0  0.16290  0.71099  0.33545  1.0000
  H   H451      1.0  0.13167  0.68294  0.31968  1.0000
  H   H452      1.0  0.13715  0.70634  0.31282  1.0000
  H   H453      1.0  0.12945  0.69445  0.34265  1.0000
  H   H454      1.0  0.17955  0.69601  0.30513  1.0000
  H   H455      1.0  0.16067  0.68430  0.29741  1.0000
  H   H456      1.0  0.16647  0.70768  0.29129  1.0000
  H   H457      1.0  0.16884  0.67965  0.34662  1.0000
  H   H458      1.0  0.15019  0.66739  0.33898  1.0000
  H   H459      1.0  0.14766  0.67881  0.36202  1.0000
  H   H460      1.0  0.17659  0.71227  0.33622  1.0000
  H   H461      1.0  0.15573  0.71080  0.35315  1.0000
  H   H462      1.0  0.16233  0.72300  0.32365  1.0000
  H   H463      1.0  0.00969  0.72353  0.07813  1.0000
  H   H464      1.0  0.21325  0.54983  0.17826  1.0000
  C   C299      1.0  0.01743  0.49955  0.98698  1.0000
  H   H465      1.0  0.17650  0.73686  0.98661  1.0000
  H   H466      1.0  0.99627  0.72231  0.10604  1.0000
  C   C300      1.0  0.03100  0.70625  0.09469  1.0000
  C   C301      1.0  0.19493  0.56838  0.15551  1.0000
  H   H467      1.0  0.20151  0.57297  0.20886  1.0000
  H   H468      1.0  0.13239  0.72128  0.20751  1.0000
  C   C302      1.0  0.10766  0.51283  0.27412  1.0000
  H   H469      1.0  0.13998  0.72326  0.25934  1.0000
  C   C303      1.0  0.03442  0.62955  0.44978  1.0000
  H   H470      1.0  0.00981  0.64306  0.46932  1.0000
  H   H471      1.0  0.09988  0.51482  0.14340  1.0000
  S   S124      1.0  0.04254  0.50098  0.35488  1.0000
  H   H472      1.0  0.08954  0.57296  0.32197  1.0000
  H   H473      1.0  0.09184  0.55255  0.31557  1.0000
  H   H474      1.0  0.11448  0.62801  0.00894  1.0000
  H   H475      1.0  0.06756  0.51654  0.24969  1.0000
  H   H476      1.0  0.09170  0.51120  0.17416  1.0000
  H   H477      1.0  0.05066  0.54027  0.36019  1.0000
  H   H478      1.0  0.06429  0.50498  0.29214  1.0000
  H   H479      1.0  0.08520  0.54011  0.16598  1.0000
  H   H480      1.0  0.23589  0.69487  0.16732  1.0000
  H   H481      1.0  0.22738  0.56817  0.18404  1.0000
  H   H482      1.0  0.04437  0.70387  0.34558  1.0000
  C   C304      1.0  0.01276  0.70454  0.13214  1.0000
  H   H483      1.0  0.07102  0.72101  0.35391  1.0000
  H   H484      1.0  0.01596  0.69250  0.14019  1.0000
  H   H485      1.0  0.10466  0.56272  0.33339  1.0000
  H   H486      1.0  0.05813  0.56010  0.33794  1.0000
  C   C305      1.0  0.16054  0.73131  0.08053  1.0000
  H   H487      1.0  0.06301  0.51372  0.18950  1.0000
  H   H488      1.0  0.23296  0.65866  0.19540  1.0000
  H   H489      1.0  0.20297  0.57080  0.13757  1.0000
  S   S125      1.0  0.20140  0.73715  0.16427  1.0000
  C   C306      1.0  0.00090  0.69080  0.10371  1.0000
  H   H490      1.0  0.20351  0.60007  0.16430  1.0000
  C   C307      1.0  0.00936  0.72215  0.09711  1.0000
  S   S126      1.0  0.13464  0.74056  0.00209  1.0000
  C   C308      1.0  0.13804  0.65549  0.97969  1.0000
  N   N28       1.0  0.13143  0.65338  0.00500  1.0000
  N   N29       1.0  0.13821  0.72905  0.17001  1.0000
  H   H491      1.0  0.99914  0.51127  0.43781  1.0000
  H   H492      1.0  0.14585  0.73153  0.05374  1.0000
  C   C309      1.0  0.05461  0.74467  0.02329  1.0000
  H   H493      1.0  0.07541  0.67939  0.45405  1.0000
  C   C310      1.0  0.06592  0.73533  0.01450  1.0000
  H   H494      1.0  0.11326  0.73357  0.17045  1.0000
  C   C311      1.0  0.15396  0.73914  0.27878  1.0000
  H   H495      1.0  0.16478  0.73072  0.16914  1.0000
  H   H496      1.0  0.06042  0.53984  0.33097  1.0000
  C   C312      1.0  0.10636  0.49807  0.10493  1.0000
  H   H497      1.0  0.14679  0.71189  0.14960  1.0000
  H   H498      1.0  0.11992  0.63261  0.03547  1.0000
  H   H499      1.0  0.11892  0.51185  0.28086  1.0000
  C   C313      1.0  0.13217  0.71546  0.19196  1.0000
  H   H500      1.0  0.03450  0.54221  0.43774  1.0000
  N   N30       1.0  0.07816  0.55064  0.35054  1.0000
  C   C314      1.0  0.08140  0.53369  0.35949  1.0000
  C   C315      1.0  0.07845  0.56098  0.36865  1.0000
  C   C316      1.0  0.06111  0.54760  0.34460  1.0000
  C   C317      1.0  0.09165  0.56017  0.32943  1.0000
  H   H501      1.0  0.07127  0.52603  0.37510  1.0000
  H   H502      1.0  0.09397  0.53538  0.36467  1.0000
  H   H503      1.0  0.05362  0.56069  0.45659  1.0000
  H   H504      1.0  0.07668  0.57412  0.36225  1.0000
  H   H505      1.0  0.06792  0.55443  0.38440  1.0000
  S   S127      1.0  0.08838  0.74527  0.00676  1.0000
  C   C318      1.0  0.08805  0.50932  0.15753  1.0000
  C   C319      1.0  0.11719  0.66178  0.00863  1.0000
  H   H506      1.0  0.99184  0.66969  0.98379  1.0000
  H   H507      1.0  0.14058  0.70636  0.19288  1.0000
  H   H508      1.0  0.12499  0.71282  0.15025  1.0000
  S   S128      1.0  0.15363  0.74412  0.37071  1.0000
  S   S129      1.0  0.08956  0.56486  0.45792  1.0000
  C   C320      1.0  0.99754  0.50329  0.39642  1.0000
  H   H509      1.0  0.00176  0.73899  0.36989  1.0000
  H   H510      1.0  0.16061  0.74449  0.08197  1.0000
  H   H511      1.0  0.16884  0.73275  0.01748  1.0000
  H   H512      1.0  0.05878  0.52013  0.12778  1.0000
  H   H513      1.0  0.02213  0.59467  0.46617  1.0000
  H   H514      1.0  0.00512  0.53225  0.46705  1.0000
  H   H515      1.0  0.06494  0.49996  0.13258  1.0000
  C   C321      1.0  0.98860  0.70180  0.98568  1.0000
  C   C322      1.0  0.06933  0.51423  0.13147  1.0000
  H   H516      1.0  0.99960  0.70405  0.14175  1.0000
  H   H517      1.0  0.14249  0.73943  0.29067  1.0000
  C   C323      1.0  0.15590  0.73924  0.16870  1.0000
  S   S130      1.0  0.08979  0.49975  0.31960  1.0000
  C   C324      1.0  0.23336  0.52762  0.14610  1.0000
  C   C325      1.0  0.07190  0.74468  0.33005  1.0000
  H   H518      1.0  0.00179  0.63052  0.44964  1.0000
  C   C326      1.0  0.01241  0.60229  0.46490  1.0000
  H   H519      1.0  0.99131  0.50152  0.38156  1.0000
  H   H520      1.0  0.23358  0.50953  0.17712  1.0000
  C   C327      1.0  0.12673  0.74081  0.16951  1.0000
  H   H521      1.0  0.00910  0.60241  0.44762  1.0000
  C   C328      1.0  0.00538  0.62955  0.46686  1.0000
  S   S131      1.0  0.14464  0.71082  0.97675  1.0000
  H   H522      1.0  0.19495  0.73870  0.23487  1.0000
  C   C329      1.0  0.04868  0.74259  0.30881  1.0000
  H   H523      1.0  0.15659  0.74562  0.18371  1.0000
  C   C330      1.0  0.98883  0.73954  0.16985  1.0000
  H   H524      1.0  0.00894  0.49792  0.39391  1.0000
  H   H525      1.0  0.98777  0.50049  0.97409  1.0000
  H   H526      1.0  0.03361  0.74396  0.35839  1.0000
  H   H527      1.0  0.98755  0.69026  0.11265  1.0000
  C   C331      1.0  0.99440  0.49713  0.43822  1.0000
  Fe  Fe60      1.0  0.98734  0.73057  0.25472  1.0000
  H   H528      1.0  0.05424  0.49671  0.17581  1.0000
  H   H529      1.0  0.21426  0.74019  0.67601  1.0000
  H   H530      1.0  0.07377  0.65112  0.86036  1.0000
  S   S132      1.0  0.11539  0.68106  0.95173  1.0000
  Fe  Fe61      1.0  0.21455  0.49803  0.66728  1.0000
  Fe  Fe62      1.0  0.16578  0.62085  0.67114  1.0000
  S   S133      1.0  0.13973  0.61179  0.66389  1.0000
  S   S134      1.0  0.17947  0.60058  0.68347  1.0000
  Fe  Fe63      1.0  0.16459  0.65906  0.66405  1.0000
  S   S135      1.0  0.13802  0.65250  0.65630  1.0000
  S   S136      1.0  0.17620  0.68804  0.66284  1.0000
  Fe  Fe64      1.0  0.13180  0.62938  0.68660  1.0000
  S   S137      1.0  0.10620  0.61655  0.71244  1.0000
  Fe  Fe65      1.0  0.14787  0.63538  0.63427  1.0000
  S   S138      1.0  0.14476  0.63478  0.59699  1.0000
  S   S139      1.0  0.15740  0.63695  0.69599  1.0000
  S   S140      1.0  0.17491  0.64342  0.63982  1.0000
  Fe  Fe66      1.0  0.04322  0.58173  0.50842  1.0000
  Fe  Fe67      1.0  0.07602  0.59019  0.52851  1.0000
  C   C332      1.0  0.06963  0.67556  0.82627  1.0000
  S   S141      1.0  0.08274  0.58916  0.56428  1.0000
  H   H531      1.0  0.09406  0.66292  0.84127  1.0000
  C   C333      1.0  0.00172  0.55987  0.50360  1.0000
  S   S142      1.0  0.01402  0.57451  0.51697  1.0000
  S   S143      1.0  0.05582  0.60405  0.52249  1.0000
  S   S144      1.0  0.06185  0.56646  0.51780  1.0000
  Fe  Fe68      1.0  0.05495  0.62074  0.88900  1.0000
  S   S145      1.0  0.07853  0.61747  0.86661  1.0000
  S   S146      1.0  0.05448  0.64081  0.91160  1.0000
  Fe  Fe69      1.0  0.03051  0.59545  0.86811  1.0000
  S   S147      1.0  0.05265  0.59131  0.84338  1.0000
  S   S148      1.0  0.00288  0.57833  0.87705  1.0000
  Fe  Fe70      1.0  0.06483  0.58905  0.87423  1.0000
  S   S149      1.0  0.07870  0.56781  0.87818  1.0000
  Fe  Fe71      1.0  0.06448  0.62012  0.83767  1.0000
  S   S150      1.0  0.08119  0.64018  0.80573  1.0000
  S   S151      1.0  0.04231  0.59183  0.89942  1.0000
  S   S152      1.0  0.04130  0.62470  0.85967  1.0000
  H   H532      1.0  0.02705  0.50651  0.92777  1.0000
  H   H533      1.0  0.22262  0.53673  0.69922  1.0000
  Fe  Fe72      1.0  0.18954  0.51534  0.64663  1.0000
  S   S153      1.0  0.18635  0.54120  0.62855  1.0000
  H   H534      1.0  0.09474  0.63845  0.50414  1.0000
  H   H535      1.0  0.12546  0.57370  0.65841  1.0000
  H   H536      1.0  0.14008  0.57033  0.58738  1.0000
  H   H537      1.0  0.11051  0.56053  0.64570  1.0000
  C   C334      1.0  0.21276  0.72664  0.67540  1.0000
  H   H538      1.0  0.09344  0.62406  0.53130  1.0000
  H   H539      1.0  0.99890  0.59596  0.83169  1.0000
  C   C335      1.0  0.07412  0.55528  0.90689  1.0000
  C   C336      1.0  0.06679  0.56148  0.92555  1.0000
  C   C337      1.0  0.06316  0.55149  0.94839  1.0000
  H   H540      1.0  0.09518  0.67772  0.52766  1.0000
  C   C338      1.0  0.07407  0.52890  0.93414  1.0000
  C   C339      1.0  0.07785  0.53901  0.91119  1.0000
  H   H541      1.0  0.06417  0.57411  0.92246  1.0000
  H   H542      1.0  0.07688  0.51634  0.93742  1.0000
  H   H543      1.0  0.08357  0.53420  0.89678  1.0000
  C   C340      1.0  0.12951  0.57059  0.60176  1.0000
  C   C341      1.0  0.18084  0.58405  0.66811  1.0000
  C   C342      1.0  0.17909  0.56702  0.68047  1.0000
  C   C343      1.0  0.18060  0.55370  0.66855  1.0000
  C   C344      1.0  0.18425  0.55746  0.64416  1.0000
  C   C345      1.0  0.18620  0.57452  0.63180  1.0000
  C   C346      1.0  0.18450  0.58778  0.64372  1.0000
  H   H544      1.0  0.17633  0.56409  0.69935  1.0000
  H   H545      1.0  0.17877  0.54053  0.67823  1.0000
  H   H546      1.0  0.18916  0.57753  0.61291  1.0000
  H   H547      1.0  0.18627  0.60098  0.63407  1.0000
  C   C347      1.0  0.09929  0.62378  0.73781  1.0000
  C   C348      1.0  0.10901  0.63861  0.74303  1.0000
  C   C349      1.0  0.10322  0.64365  0.76378  1.0000
  C   C350      1.0  0.08787  0.63374  0.77959  1.0000
  C   C351      1.0  0.07819  0.61890  0.77440  1.0000
  C   C352      1.0  0.08383  0.61401  0.75352  1.0000
  H   H548      1.0  0.12091  0.64623  0.73101  1.0000
  H   H549      1.0  0.11075  0.65520  0.76761  1.0000
  H   H550      1.0  0.06619  0.61137  0.78626  1.0000
  H   H551      1.0  0.07620  0.60259  0.74950  1.0000
  C   C353      1.0  0.12733  0.62208  0.58829  1.0000
  C   C354      1.0  0.11193  0.61278  0.60417  1.0000
  C   C355      1.0  0.09848  0.60271  0.59651  1.0000
  C   C356      1.0  0.10019  0.60194  0.57289  1.0000
  C   C357      1.0  0.11566  0.61113  0.55704  1.0000
  C   C358      1.0  0.12911  0.62119  0.56470  1.0000
  H   H552      1.0  0.11032  0.61348  0.62233  1.0000
  H   H553      1.0  0.08658  0.59563  0.60895  1.0000
  H   H554      1.0  0.11737  0.61030  0.53894  1.0000
  H   H555      1.0  0.14104  0.62822  0.55231  1.0000
  C   C359      1.0  0.22574  0.71863  0.67971  1.0000
  C   C360      1.0  0.22332  0.70087  0.67929  1.0000
  C   C361      1.0  0.20819  0.69122  0.67449  1.0000
  C   C362      1.0  0.19527  0.69925  0.66998  1.0000
  C   C363      1.0  0.19768  0.71701  0.67047  1.0000
  C   C364      1.0  0.02927  0.50735  0.94543  1.0000
  H   H556      1.0  0.21956  0.73350  0.59824  1.0000
  H   H557      1.0  0.20654  0.67759  0.67416  1.0000
  H   H558      1.0  0.23321  0.69449  0.68268  1.0000
  C   C365      1.0  0.07165  0.65197  0.92240  1.0000
  C   C366      1.0  0.08763  0.64814  0.91943  1.0000
  C   C367      1.0  0.10086  0.65728  0.92839  1.0000
  C   C368      1.0  0.09834  0.67041  0.94028  1.0000
  C   C369      1.0  0.08243  0.67438  0.94301  1.0000
  C   C370      1.0  0.06916  0.66517  0.93415  1.0000
  H   H559      1.0  0.08973  0.63801  0.91049  1.0000
  H   H560      1.0  0.11311  0.65411  0.92616  1.0000
  S   S154      1.0  0.19342  0.50903  0.68312  1.0000
  H   H561      1.0  0.05684  0.66821  0.93658  1.0000
  H   H562      1.0  0.06341  0.68586  0.82002  1.0000
  C   C371      1.0  0.14257  0.55727  0.63099  1.0000
  H   H563      1.0  0.15361  0.55669  0.61750  1.0000
  H   H564      1.0  0.14735  0.55820  0.64719  1.0000
  H   H565      1.0  0.13260  0.54464  0.63469  1.0000
  H   H566      1.0  0.14476  0.60012  0.61246  1.0000
  H   H567      1.0  0.16068  0.58879  0.60496  1.0000
  H   H568      1.0  0.12436  0.58179  0.59546  1.0000
  N   N31       1.0  0.09302  0.65016  0.53377  1.0000
  H   H569      1.0  0.09591  0.65908  0.56512  1.0000
  C   C372      1.0  0.09982  0.64965  0.55517  1.0000
  C   C373      1.0  0.09887  0.63772  0.52097  1.0000
  C   C374      1.0  0.07400  0.64523  0.54022  1.0000
  H   H570      1.0  0.06846  0.64534  0.52446  1.0000
  C   C375      1.0  0.22994  0.57542  0.66049  1.0000
  C   C376      1.0  0.99912  0.53934  0.47833  1.0000
  H   H571      1.0  0.21650  0.57425  0.65838  1.0000
  H   H572      1.0  0.99348  0.62276  0.48060  1.0000
  H   H573      1.0  0.09439  0.66866  0.50233  1.0000
  C   C377      1.0  0.09934  0.66793  0.51864  1.0000
  H   H574      1.0  0.21566  0.54537  0.65022  1.0000
  S   S155      1.0  0.21179  0.50594  0.63044  1.0000
  H   H575      1.0  0.03361  0.52145  0.94546  1.0000
  H   H576      1.0  0.06006  0.66268  0.82948  1.0000
  H   H577      1.0  0.02316  0.55270  0.48510  1.0000
  N   N32       1.0  0.10567  0.58865  0.80878  1.0000
  C   C378      1.0  0.11542  0.59668  0.78451  1.0000
  C   C379      1.0  0.08805  0.57901  0.80874  1.0000
  C   C380      1.0  0.10480  0.60245  0.82188  1.0000
  C   C381      1.0  0.11438  0.57646  0.82012  1.0000
  H   H578      1.0  0.12892  0.60371  0.78379  1.0000
  H   H579      1.0  0.10950  0.60639  0.77581  1.0000
  H   H580      1.0  0.11580  0.58680  0.77373  1.0000
  H   H581      1.0  0.08039  0.57273  0.82684  1.0000
  H   H582      1.0  0.08101  0.58782  0.80056  1.0000
  H   H583      1.0  0.08816  0.56857  0.79885  1.0000
  H   H584      1.0  0.11784  0.61034  0.82178  1.0000
  H   H585      1.0  0.09792  0.59680  0.84041  1.0000
  H   H586      1.0  0.09781  0.61157  0.81428  1.0000
  H   H587      1.0  0.11530  0.56589  0.81066  1.0000
  H   H588      1.0  0.10723  0.57015  0.83846  1.0000
  H   H589      1.0  0.12764  0.58332  0.82074  1.0000
  N   N33       1.0  0.01363  0.49840  0.96394  1.0000
  C   C382      1.0  0.06674  0.53520  0.95275  1.0000
  N   N34       1.0  0.13568  0.57222  0.62329  1.0000
  H   H590      1.0  0.12719  0.49787  0.51768  1.0000
  H   H591      1.0  0.14305  0.66955  0.97065  1.0000
  H   H592      1.0  0.99662  0.50633  0.94312  1.0000
  H   H593      1.0  0.18771  0.72331  0.66717  1.0000
  S   S156      1.0  0.11938  0.73213  0.95601  1.0000
  H   H594      1.0  0.20727  0.54812  0.69130  1.0000
  H   H595      1.0  0.23051  0.53368  0.65904  1.0000
  H   H596      1.0  0.08033  0.67574  0.81173  1.0000
  H   H597      1.0  0.06907  0.65434  0.54986  1.0000
  N   N35       1.0  0.23267  0.55816  0.66922  1.0000
  Fe  Fe73      1.0  0.07171  0.61531  0.48618  1.0000
  H   H598      1.0  0.06884  0.63182  0.55158  1.0000
  C   C383      1.0  0.12126  0.57256  0.64187  1.0000
  H   H599      1.0  0.11899  0.55847  0.60465  1.0000
  H   H600      1.0  0.08028  0.68441  0.95214  1.0000
  S   S157      1.0  0.09297  0.60283  0.49278  1.0000
  C   C384      1.0  0.98913  0.58367  0.83781  1.0000
  N   N36       1.0  0.07588  0.67810  0.84750  1.0000
  C   C385      1.0  0.08360  0.66386  0.85531  1.0000
  C   C386      1.0  0.06131  0.67790  0.86621  1.0000
  C   C387      1.0  0.08899  0.69499  0.84229  1.0000
  H   H601      1.0  0.08895  0.66555  0.87089  1.0000
  H   H602      1.0  0.05111  0.66534  0.87038  1.0000
  H   H603      1.0  0.06549  0.67923  0.88273  1.0000
  H   H604      1.0  0.05527  0.68863  0.86121  1.0000
  H   H605      1.0  0.08365  0.70606  0.83618  1.0000
  H   H606      1.0  0.10023  0.69543  0.82840  1.0000
  H   H607      1.0  0.09389  0.69727  0.85805  1.0000
  C   C388      1.0  0.14941  0.58859  0.61858  1.0000
  H   H608      1.0  0.11365  0.67197  0.51332  1.0000
  H   H609      1.0  0.11599  0.58389  0.63679  1.0000
  Fe  Fe74      1.0  0.11810  0.70388  0.96998  1.0000
  H   H610      1.0  0.09501  0.63645  0.56709  1.0000
  H   H611      1.0  0.15401  0.59050  0.63458  1.0000
  H   H612      1.0  0.01174  0.61202  0.50570  1.0000
  H   H613      1.0  0.11414  0.65283  0.55109  1.0000
  Fe  Fe75      1.0  0.07744  0.58003  0.48156  1.0000
  C   C389      1.0  0.99977  0.50690  0.96041  1.0000
  C   C390      1.0  0.00938  0.55093  0.48855  1.0000
  H   H614      1.0  0.11314  0.64038  0.51689  1.0000
  C   C391      1.0  0.98906  0.57228  0.85844  1.0000
  C   C392      1.0  0.22209  0.73918  0.61335  1.0000
  H   H615      1.0  0.00359  0.52092  0.96106  1.0000
  Fe  Fe76      1.0  0.14526  0.73900  0.96530  1.0000
  H   H616      1.0  0.98960  0.70706  0.96684  1.0000
  H   H617      1.0  0.05754  0.55642  0.96276  1.0000
  C   C393      1.0  0.22098  0.54989  0.69230  1.0000
  H   H618      1.0  0.00070  0.59481  0.47860  1.0000
  C   C394      1.0  0.22904  0.54696  0.65267  1.0000
  H   H619      1.0  0.22337  0.55792  0.70530  1.0000
  H   H620      1.0  0.04017  0.50163  0.94791  1.0000
  H   H621      1.0  0.22479  0.72893  0.62621  1.0000
  H   H622      1.0  0.23227  0.58418  0.67269  1.0000
  H   H623      1.0  0.03312  0.61198  0.49288  1.0000
  C   C395      1.0  0.02314  0.61915  0.49130  1.0000
  H   H624      1.0  0.02829  0.63233  0.49435  1.0000
  S   S158      1.0  0.07102  0.64340  0.47494  1.0000
  H   H625      1.0  0.12770  0.64980  0.97123  1.0000
  H   H626      1.0  0.20994  0.74181  0.62174  1.0000
  C   C396      1.0  0.99776  0.92573  0.33843  1.0000
  H   H627      1.0  0.20765  0.82332  0.31231  1.0000
  Fe  Fe77      1.0  0.01794  0.87222  0.39850  1.0000
  S   S159      1.0  0.01924  0.86357  0.36450  1.0000
  S   S160      1.0  0.04088  0.87677  0.41550  1.0000
  Fe  Fe78      1.0  0.00512  0.88380  0.35503  1.0000
  C   C397      1.0  0.01118  0.93461  0.29721  1.0000
  Fe  Fe79      1.0  0.11136  0.75066  0.35301  1.0000
  H   H628      1.0  0.99255  0.75721  0.36668  1.0000
  S   S161      1.0  0.00596  0.89366  0.38756  1.0000
  C   C398      1.0  0.99256  0.80802  0.31410  1.0000
  Fe  Fe80      1.0  0.09239  0.96109  0.44889  1.0000
  C   C399      1.0  0.99740  0.94717  0.02131  1.0000
  S   S162      1.0  0.08126  0.95273  0.41917  1.0000
  Fe  Fe81      1.0  0.00268  0.98763  0.03660  1.0000
  H   H629      1.0  0.99005  0.83323  0.01835  1.0000
  H   H630      1.0  0.18391  0.78105  0.99979  1.0000
  H   H631      1.0  0.20219  0.77009  0.02510  1.0000
  S   S163      1.0  0.98942  0.97243  0.31496  1.0000
  H   H632      1.0  0.06907  0.76588  0.30480  1.0000
  H   H633      1.0  0.17810  0.81276  0.37062  1.0000
  S   S164      1.0  0.17220  0.75891  0.30402  1.0000
  C   C400      1.0  0.17757  0.76719  0.00047  1.0000
  H   H634      1.0  0.19394  0.82967  0.34900  1.0000
  C   C401      1.0  0.99686  0.95358  0.31578  1.0000
  H   H635      1.0  0.99036  0.79890  0.19072  1.0000
  Fe  Fe82      1.0  0.13873  0.76274  0.38140  1.0000
  S   S165      1.0  0.01216  0.96603  0.02371  1.0000
  S   S166      1.0  0.14682  0.78337  0.40255  1.0000
  C   C402      1.0  0.07222  0.93135  0.35261  1.0000
  H   H636      1.0  0.05979  0.75777  0.02522  1.0000
  H   H637      1.0  0.20030  0.81282  0.36671  1.0000
  C   C403      1.0  0.00257  0.93762  0.00515  1.0000
  H   H638      1.0  0.16169  0.80492  0.34243  1.0000
  S   S167      1.0  0.13598  0.77222  0.34474  1.0000
  H   H639      1.0  0.03596  0.75853  0.37782  1.0000
  H   H640      1.0  0.19439  0.78324  0.36024  1.0000
  S   S168      1.0  0.21381  0.81557  0.43945  1.0000
  H   H641      1.0  0.99452  0.91640  0.35492  1.0000
  H   H642      1.0  0.05675  0.88442  0.46987  1.0000
  S   S169      1.0  0.01357  0.90289  0.32002  1.0000
  H   H643      1.0  0.03454  0.79068  0.34299  1.0000
  C   C404      1.0  0.20423  0.80936  0.32157  1.0000
  H   H644      1.0  0.20295  0.80134  0.30825  1.0000
  Fe  Fe83      1.0  0.22480  0.83328  0.46288  1.0000
  H   H645      1.0  0.17148  0.79944  0.31633  1.0000
  H   H646      1.0  0.04056  0.89963  0.34384  1.0000
  H   H647      1.0  0.03733  0.89123  0.47033  1.0000
  C   C405      1.0  0.99223  0.81646  0.33289  1.0000
  H   H648      1.0  0.99814  0.75213  0.16529  1.0000
  H   H649      1.0  0.00446  0.75399  0.38881  1.0000
  H   H650      1.0  0.01825  0.93201  0.28171  1.0000
  S   S170      1.0  0.99265  0.85263  0.41584  1.0000
  C   C406      1.0  0.16510  0.79120  0.41425  1.0000
  C   C407      1.0  0.16539  0.80516  0.42554  1.0000
  C   C408      1.0  0.17990  0.81251  0.43387  1.0000
  C   C409      1.0  0.19454  0.80617  0.43076  1.0000
  C   C410      1.0  0.19424  0.79218  0.41950  1.0000
  C   C411      1.0  0.17961  0.78461  0.41158  1.0000
  H   H651      1.0  0.15431  0.81041  0.42779  1.0000
  H   H652      1.0  0.17984  0.82325  0.44240  1.0000
  H   H653      1.0  0.20538  0.78703  0.41713  1.0000
  H   H654      1.0  0.17958  0.77366  0.40349  1.0000
  H   H655      1.0  0.02296  0.78407  0.37302  1.0000
  H   H656      1.0  0.08335  0.92673  0.34510  1.0000
  C   C412      1.0  0.05130  0.89771  0.41839  1.0000
  C   C413      1.0  0.06801  0.90070  0.42234  1.0000
  C   C414      1.0  0.07693  0.91733  0.42399  1.0000
  C   C415      1.0  0.06921  0.93116  0.42165  1.0000
  C   C416      1.0  0.05239  0.92811  0.41807  1.0000
  C   C417      1.0  0.04338  0.91140  0.41674  1.0000
  H   H657      1.0  0.07425  0.89019  0.42358  1.0000
  H   H658      1.0  0.09005  0.91963  0.42613  1.0000
  H   H659      1.0  0.04640  0.93879  0.41596  1.0000
  H   H660      1.0  0.03038  0.90915  0.41422  1.0000
  H   H661      1.0  0.00917  0.95959  0.27929  1.0000
  H   H662      1.0  0.21392  0.75448  0.98411  1.0000
  C   C418      1.0  0.99400  0.86547  0.02552  1.0000
  C   C419      1.0  0.19028  0.81549  0.35721  1.0000
  H   H663      1.0  0.98844  0.81074  0.21344  1.0000
  H   H664      1.0  0.18429  0.75189  0.04022  1.0000
  H   H665      1.0  0.99788  0.83036  0.32971  1.0000
  C   C420      1.0  0.00690  0.92227  0.31848  1.0000
  C   C421      1.0  0.20455  0.76249  0.98284  1.0000
  C   C422      1.0  0.00612  0.95025  0.29582  1.0000
  C   C423      1.0  0.99099  0.92276  0.00246  1.0000
  H   H666      1.0  0.17279  0.76697  0.98416  1.0000
  H   H667      1.0  0.99504  0.80479  0.98249  1.0000
  Fe  Fe84      1.0  0.14930  0.75234  0.33477  1.0000
  C   C424      1.0  0.17013  0.74803  0.28100  1.0000
  H   H668      1.0  0.04930  0.92515  0.31106  1.0000
  H   H669      1.0  0.01555  0.94185  0.99448  1.0000
  H   H670      1.0  0.98988  0.76708  0.24382  1.0000
  H   H671      1.0  0.21521  0.80710  0.32922  1.0000
  H   H672      1.0  0.04814  0.90051  0.37007  1.0000
  H   H673      1.0  0.03051  0.76983  0.31685  1.0000
  H   H674      1.0  0.00188  0.77814  0.21511  1.0000
  H   H675      1.0  0.19746  0.75479  0.26655  1.0000
  C   C425      1.0  0.05179  0.90524  0.35077  1.0000
  C   C426      1.0  0.06077  0.93005  0.31808  1.0000
  N   N37       1.0  0.01996  0.76377  0.35386  1.0000
  C   C427      1.0  0.04256  0.93129  0.35382  1.0000
  C   C428      1.0  0.99290  0.94139  0.33708  1.0000
  H   H676      1.0  0.07617  0.94587  0.34828  1.0000
  H   H677      1.0  0.17662  0.82169  0.31948  1.0000
  C   C429      1.0  0.05328  0.99163  0.98267  1.0000
  N   N38       1.0  0.05686  0.92450  0.34382  1.0000
  H   H678      1.0  0.99846  0.81559  0.29653  1.0000
  H   H679      1.0  0.06974  0.92698  0.37194  1.0000
  C   C430      1.0  0.17389  0.80786  0.32896  1.0000
  H   H680      1.0  0.04266  0.74861  0.29605  1.0000
  H   H681      1.0  0.16107  0.74948  0.15220  1.0000
  H   H682      1.0  0.99975  0.86480  0.00746  1.0000
  Fe  Fe85      1.0  0.99284  0.84562  0.38069  1.0000
  H   H683      1.0  0.04713  0.76580  0.34781  1.0000
  H   H684      1.0  0.06469  0.94452  0.31215  1.0000
  H   H685      1.0  0.06240  0.89961  0.34412  1.0000
  H   H686      1.0  0.04574  0.94577  0.34852  1.0000
  S   S171      1.0  0.08951  0.75816  0.33767  1.0000
  C   C431      1.0  0.00399  0.75301  0.37058  1.0000
  H   H687      1.0  0.03069  0.92603  0.34793  1.0000
  H   H688      1.0  0.13101  0.75126  0.15319  1.0000
  H   H689      1.0  0.18269  0.77759  0.33868  1.0000
  C   C432      1.0  0.18415  0.78609  0.35136  1.0000
  C   C433      1.0  0.01865  0.76202  0.32998  1.0000
  H   H690      1.0  0.03933  0.92755  0.37319  1.0000
  H   H691      1.0  0.07131  0.92493  0.30986  1.0000
  N   N39       1.0  0.18951  0.75603  0.00284  1.0000
  S   S172      1.0  0.11506  0.98436  0.44347  1.0000
  N   N40       1.0  0.18816  0.80473  0.33977  1.0000
  H   H692      1.0  0.17189  0.78207  0.36479  1.0000
  H   H693      1.0  0.16610  0.76277  0.01533  1.0000
  H   H694      1.0  0.00766  0.76655  0.32491  1.0000
  H   H695      1.0  0.01172  0.78742  0.35015  1.0000
  H   H696      1.0  0.05413  0.98088  0.97344  1.0000
  H   H697      1.0  0.99449  0.83305  0.04671  1.0000
  H   H698      1.0  0.03939  0.99083  0.98849  1.0000
  H   H699      1.0  0.99986  0.78990  0.23814  1.0000
  Fe  Fe86      1.0  0.99885  0.99472  0.28306  1.0000
  Fe  Fe87      1.0  0.09781  0.99361  0.46920  1.0000
  H   H700      1.0  0.21141  0.77628  0.98169  1.0000
  C   C434      1.0  0.19533  0.75659  0.02482  1.0000
  H   H701      1.0  0.12657  0.74729  0.18450  1.0000
  C   C435      1.0  0.06376  0.75230  0.31365  1.0000
  C   C436      1.0  0.02241  0.78228  0.35509  1.0000
  C   C437      1.0  0.03478  0.75774  0.35975  1.0000
  H   H702      1.0  0.01658  0.74818  0.32848  1.0000
  H   H703      1.0  0.20422  0.74816  0.02735  1.0000
  C   C438      1.0  0.99292  0.77950  0.23061  1.0000
  H   H704      1.0  0.00433  0.86609  0.03544  1.0000
  H   H705      1.0  0.99505  0.91568  0.98970  1.0000
  H   H706      1.0  0.99019  0.87798  0.02431  1.0000
  H   H707      1.0  0.05836  0.98887  0.99863  1.0000
  C   C439      1.0  0.18489  0.74790  0.26500  1.0000
  H   H708      1.0  0.07176  0.91440  0.47238  1.0000
  S   S173      1.0  0.07477  0.97169  0.47219  1.0000
  H   H709      1.0  0.19239  0.86962  0.59420  1.0000
  H   H710      1.0  0.02108  0.97263  0.53932  1.0000
  C   C440      1.0  0.19302  0.96638  0.84982  1.0000
  Fe  Fe88      1.0  0.08385  0.95753  0.50108  1.0000
  N   N41       1.0  0.21201  0.86878  0.56562  1.0000
  H   H711      1.0  0.19557  0.94295  0.82357  1.0000
  N   N42       1.0  0.21047  0.80344  0.83614  1.0000
  S   S174      1.0  0.00864  0.91703  0.90261  1.0000
  H   H712      1.0  0.20274  0.97816  0.50306  1.0000
  H   H713      1.0  0.18374  0.96802  0.47723  1.0000
  H   H714      1.0  0.18300  0.79257  0.84576  1.0000
  S   S175      1.0  0.06524  0.94281  0.53481  1.0000
  H   H715      1.0  0.01457  0.93894  0.50062  1.0000
  Fe  Fe89      1.0  0.99039  0.97427  0.79601  1.0000
  H   H716      1.0  0.20212  0.79081  0.80974  1.0000
  H   H717      1.0  0.21803  0.80826  0.60075  1.0000
  N   N43       1.0  0.18254  0.96194  0.83287  1.0000
  H   H718      1.0  0.22204  0.92602  0.83158  1.0000
  Fe  Fe90      1.0  0.12137  0.96959  0.47521  1.0000
  C   C441      1.0  0.04519  0.88575  0.48165  1.0000
  H   H719      1.0  0.22039  0.89680  0.55437  1.0000
  H   H720      1.0  0.16446  0.97628  0.84376  1.0000
  S   S176      1.0  0.06782  0.97146  0.92701  1.0000
  S   S177      1.0  0.22574  0.97014  0.57412  1.0000
  C   C442      1.0  0.03023  0.99099  0.74361  1.0000
  C   C443      1.0  0.23576  0.92915  0.82459  1.0000
  H   H721      1.0  0.04581  0.94364  0.49848  1.0000
  H   H722      1.0  0.05905  0.97886  0.51740  1.0000
  S   S178      1.0  0.22935  0.89430  0.48157  1.0000
  H   H723      1.0  0.19469  0.78236  0.86442  1.0000
  H   H724      1.0  0.22089  0.77218  0.59599  1.0000
  C   C444      1.0  0.19401  0.86817  0.57582  1.0000
  S   S179      1.0  0.21255  0.84252  0.49372  1.0000
  H   H725      1.0  0.05408  0.87617  0.52241  1.0000
  C   C445      1.0  0.16682  0.98900  0.52682  1.0000
  S   S180      1.0  0.20871  0.83281  0.89073  1.0000
  H   H726      1.0  0.20816  0.82941  0.83647  1.0000
  Fe  Fe91      1.0  0.22329  0.99247  0.54748  1.0000
  H   H727      1.0  0.17446  0.94013  0.81762  1.0000
  H   H728      1.0  0.23047  0.85421  0.57168  1.0000
  H   H729      1.0  0.03760  0.90582  0.52643  1.0000
  H   H730      1.0  0.03168  0.99372  0.56204  1.0000
  C   C446      1.0  0.19011  0.97433  0.81002  1.0000
  H   H731      1.0  0.21335  0.77929  0.82771  1.0000
  H   H732      1.0  0.98852  0.92662  0.82966  1.0000
  H   H733      1.0  0.22502  0.79842  0.80557  1.0000
  C   C447      1.0  0.22511  0.80552  0.84766  1.0000
  H   H734      1.0  0.18506  0.85556  0.57573  1.0000
  N   N44       1.0  0.05004  0.89694  0.49780  1.0000
  C   C448      1.0  0.19898  0.81105  0.90699  1.0000
  C   C449      1.0  0.20829  0.79849  0.90889  1.0000
  C   C450      1.0  0.19981  0.78099  0.91995  1.0000
  C   C451      1.0  0.18202  0.77586  0.92979  1.0000
  C   C452      1.0  0.17275  0.78846  0.92845  1.0000
  C   C453      1.0  0.18119  0.80594  0.91692  1.0000
  H   H735      1.0  0.22200  0.80221  0.90161  1.0000
  H   H736      1.0  0.20712  0.77135  0.92083  1.0000
  H   H737      1.0  0.15905  0.78471  0.93589  1.0000
  H   H738      1.0  0.17385  0.81553  0.91551  1.0000
  C   C454      1.0  0.21281  0.79249  0.81905  1.0000
  S   S181      1.0  0.10018  0.94533  0.47820  1.0000
  H   H739      1.0  0.00011  0.98637  0.66478  1.0000
  C   C455      1.0  0.19428  0.79504  0.85388  1.0000
  H   H740      1.0  0.19178  0.80344  0.86630  1.0000
  H   H741      1.0  0.19427  0.98004  0.85148  1.0000
  H   H742      1.0  0.21688  0.85614  0.59774  1.0000
  H   H743      1.0  0.03756  0.87236  0.49122  1.0000
  C   C456      1.0  0.20974  0.82080  0.82399  1.0000
  S   S182      1.0  0.17220  0.75351  0.94320  1.0000
  H   H744      1.0  0.06492  0.89779  0.52406  1.0000
  H   H745      1.0  0.00922  0.96232  0.73779  1.0000
  S   S183      1.0  0.23521  0.99020  0.62809  1.0000
  H   H746      1.0  0.04273  0.96994  0.77205  1.0000
  H   H747      1.0  0.06353  0.92339  0.49595  1.0000
  C   C457      1.0  0.16477  0.96295  0.84146  1.0000
  H   H748      1.0  0.05968  0.98274  0.74778  1.0000
  S   S184      1.0  0.99045  0.88378  0.96722  1.0000
  Fe  Fe92      1.0  0.98887  0.89728  0.93182  1.0000
  H   H749      1.0  0.05203  0.92071  0.47324  1.0000
  C   C458      1.0  0.22340  0.88582  0.56561  1.0000
  C   C459      1.0  0.18378  0.98730  0.52364  1.0000
  S   S185      1.0  0.10546  0.98042  0.50056  1.0000
  C   C460      1.0  0.04054  0.97724  0.82701  1.0000
  H   H750      1.0  0.17685  0.93435  0.84712  1.0000
  H   H751      1.0  0.03878  0.96359  0.83459  1.0000
  H   H752      1.0  0.20855  0.84158  0.58045  1.0000
  H   H753      1.0  0.23711  0.90244  0.83466  1.0000
  H   H754      1.0  0.15650  0.95976  0.82907  1.0000
  C   C461      1.0  0.05534  0.98562  0.53140  1.0000
  S   S186      1.0  0.19710  0.99586  0.54171  1.0000
  C   C462      1.0  0.04332  0.94070  0.53557  1.0000
  C   C463      1.0  0.03184  0.93785  0.55709  1.0000
  C   C464      1.0  0.01422  0.93586  0.55822  1.0000
  C   C465      1.0  0.00797  0.93607  0.53789  1.0000
  C   C466      1.0  0.01940  0.93874  0.51638  1.0000
  C   C467      1.0  0.03710  0.94145  0.51515  1.0000
  H   H755      1.0  0.03657  0.93722  0.57295  1.0000
  H   H756      1.0  0.00540  0.93369  0.57490  1.0000
  H   H757      1.0  0.02042  0.99387  0.73379  1.0000
  C   C468      1.0  0.02465  0.93234  0.90987  1.0000
  C   C469      1.0  0.02578  0.93178  0.93307  1.0000
  C   C470      1.0  0.03902  0.94392  0.93821  1.0000
  C   C471      1.0  0.05107  0.95670  0.92021  1.0000
  C   C472      1.0  0.04969  0.95749  0.89708  1.0000
  C   C473      1.0  0.03654  0.94529  0.89194  1.0000
  H   H758      1.0  0.01666  0.92184  0.94698  1.0000
  H   H759      1.0  0.04004  0.94328  0.95613  1.0000
  H   H760      1.0  0.05889  0.96732  0.88312  1.0000
  H   H761      1.0  0.03570  0.94576  0.87400  1.0000
  Fe  Fe93      1.0  0.23393  0.86746  0.48085  1.0000
  C   C474      1.0  0.02712  0.98302  0.52318  1.0000
  S   S187      1.0  0.01138  0.96619  0.81147  1.0000
  H   H762      1.0  0.02238  0.94778  0.74403  1.0000
  H   H763      1.0  0.22400  0.81409  0.86016  1.0000
  H   H764      1.0  0.20630  0.96506  0.84439  1.0000
  C   C475      1.0  0.17890  0.97377  0.49117  1.0000
  S   S188      1.0  0.23367  0.96274  0.81063  1.0000
  C   C476      1.0  0.23157  0.81120  0.59268  1.0000
  H   H765      1.0  0.05170  0.95964  0.75039  1.0000
  C   C477      1.0  0.02860  0.98236  0.81497  1.0000
  H   H766      1.0  0.15860  0.95380  0.85868  1.0000
  H   H767      1.0  0.98771  0.90667  0.86713  1.0000
  H   H768      1.0  0.20371  0.97436  0.80339  1.0000
  C   C478      1.0  0.01943  0.96006  0.74720  1.0000
  H   H769      1.0  0.03027  0.97650  0.50868  1.0000
  H   H770      1.0  0.19002  0.98790  0.81117  1.0000
  H   H771      1.0  0.18284  0.97102  0.79664  1.0000
  C   C479      1.0  0.15591  0.98300  0.51247  1.0000
  H   H772      1.0  0.22175  0.82752  0.81047  1.0000
  N   N45       1.0  0.04260  0.99525  0.52602  1.0000
  H   H773      1.0  0.05016  0.97546  0.54796  1.0000
  H   H774      1.0  0.22220  0.88833  0.58347  1.0000
  C   C480      1.0  0.04786  0.97167  0.75295  1.0000
  S   S189      1.0  0.22197  0.82014  0.55132  1.0000
  C   C481      1.0  0.21342  0.86652  0.54141  1.0000
  C   C482      1.0  0.18231  0.94404  0.83018  1.0000
  H   H775      1.0  0.18729  0.95773  0.86747  1.0000
  C   C483      1.0  0.06096  0.88952  0.51182  1.0000
  C   C484      1.0  0.18973  0.97953  0.50579  1.0000
  N   N46       1.0  0.23650  0.75520  0.60609  1.0000
  H   H776      1.0  0.07295  0.88862  0.50050  1.0000
  H   H777      1.0  0.06399  0.98562  0.83854  1.0000
  C   C485      1.0  0.23106  0.92355  0.49983  1.0000
  Fe  Fe94      1.0  0.23133  0.83286  0.51261  1.0000
  H   H778      1.0  0.22594  0.79279  0.85752  1.0000
  S   S190      1.0  0.98851  0.98217  0.71421  1.0000
  C   C486      1.0  0.16194  0.97548  0.49438  1.0000
  H   H779      1.0  0.23685  0.95970  0.74110  1.0000
  H   H780      1.0  0.18982  0.87883  0.56576  1.0000
  H   H781      1.0  0.19878  0.81980  0.81520  1.0000
  H   H782      1.0  0.02479  0.98966  0.76245  1.0000
  C   C487      1.0  0.21719  0.85460  0.57955  1.0000
  H   H783      1.0  0.02645  0.88476  0.52360  1.0000
  H   H784      1.0  0.20912  0.87664  0.53043  1.0000
  C   C488      1.0  0.03434  0.89793  0.51353  1.0000
  Fe  Fe95      1.0  0.08514  0.99237  0.89663  1.0000
  H   H785      1.0  0.22143  0.92588  0.49025  1.0000
  H   H786      1.0  0.23238  0.94689  0.51343  1.0000
  H   H787      1.0  0.14288  0.98429  0.51538  1.0000
  H   H788      1.0  0.06736  0.99449  0.53314  1.0000
  H   H789      1.0  0.01385  0.95785  0.76620  1.0000
  S   S191      1.0  0.14935  0.96938  0.47421  1.0000
  H   H790      1.0  0.20557  0.85348  0.54082  1.0000
  H   H791      1.0  0.20056  0.76201  0.96604  1.0000
  C   C489      1.0  0.05483  0.98970  0.82925  1.0000
  C   C490      1.0  0.04206  0.97724  0.71432  1.0000
  H   H792      1.0  0.23715  0.88643  0.55888  1.0000
  H   H793      1.0  0.22287  0.99388  0.67441  1.0000
  N   N47       1.0  0.03492  0.97498  0.73951  1.0000
  H   H794      1.0  0.99942  0.93850  0.86106  1.0000
  H   H795      1.0  0.02610  0.90409  0.50362  1.0000
  C   C491      1.0  0.05973  0.91464  0.48424  1.0000
  H   H796      1.0  0.98782  0.97662  0.95485  1.0000
  S   S192      1.0  0.09791  0.99153  0.86042  1.0000
  H   H797      1.0  0.04575  0.96539  0.71053  1.0000
  H   H798      1.0  0.05370  0.98848  0.70784  1.0000
  H   H799      1.0  0.01717  0.98983  0.51928  1.0000
  H   H800      1.0  0.22692  0.86757  0.53292  1.0000
  H   H801      1.0  0.22739  0.76597  0.63483  1.0000
  H   H802      1.0  0.03244  0.97970  0.70390  1.0000
  H   H803      1.0  0.16207  0.99493  0.54063  1.0000
  C   C492      1.0  0.23718  0.90867  0.49903  1.0000
  C   C493      1.0  0.23718  0.81747  0.56837  1.0000
  H   H804      1.0  0.23014  0.76314  0.57304  1.0000
  C   C494      1.0  0.23253  0.76824  0.58862  1.0000
  C   C495      1.0  0.42614  0.23025  0.32490  1.0000
  C   C496      1.0  0.38386  0.03446  0.00106  1.0000
  S   S193      1.0  0.40026  0.22123  0.37899  1.0000
  H   H805      1.0  0.47610  0.09474  0.24587  1.0000
  H   H806      1.0  0.48037  0.09817  0.31676  1.0000
  H   H807      1.0  0.45328  0.09867  0.45332  1.0000
  H   H808      1.0  0.31284  0.23071  0.33794  1.0000
  H   H809      1.0  0.42583  0.24164  0.33298  1.0000
  S   S194      1.0  0.38345  0.23132  0.00785  1.0000
  H   H810      1.0  0.25434  0.18690  0.37835  1.0000
  H   H811      1.0  0.39536  0.07889  0.43925  1.0000
  H   H812      1.0  0.27368  0.20313  0.34010  1.0000
  C   C497      1.0  0.48515  0.12722  0.33298  1.0000
  H   H813      1.0  0.38486  0.02911  0.98507  1.0000
  H   H814      1.0  0.24576  0.16935  0.36539  1.0000
  S   S195      1.0  0.28450  0.23047  0.05970  1.0000
  H   H815      1.0  0.37856  0.05945  0.44227  1.0000
  N   N48       1.0  0.39289  0.05323  0.99565  1.0000
  C   C498      1.0  0.34509  0.19949  0.00371  1.0000
  Fe  Fe96      1.0  0.45976  0.07540  0.37239  1.0000
  S   S196      1.0  0.45904  0.05157  0.39855  1.0000
  S   S197      1.0  0.44154  0.09260  0.37696  1.0000
  H   H816      1.0  0.42988  0.23572  0.43806  1.0000
  C   C499      1.0  0.41112  0.05568  0.98467  1.0000
  Fe  Fe97      1.0  0.46261  0.03883  0.36812  1.0000
  S   S198      1.0  0.44821  0.01009  0.37763  1.0000
  H   H817      1.0  0.40954  0.23759  0.29069  1.0000
  S   S199      1.0  0.46094  0.06202  0.34222  1.0000
  S   S200      1.0  0.24469  0.24337  0.03614  1.0000
  Fe  Fe98      1.0  0.46891  0.07784  0.02341  1.0000
  H   H818      1.0  0.42825  0.02548  0.97502  1.0000
  S   S201      1.0  0.47135  0.09022  0.05482  1.0000
  Fe  Fe99      1.0  0.44531  0.04709  0.01003  1.0000
  H   H819      1.0  0.36352  0.20129  0.45848  1.0000
  S   S202      1.0  0.42412  0.02184  0.02545  1.0000
  H   H820      1.0  0.25410  0.21720  0.36135  1.0000
  H   H821      1.0  0.42085  0.21162  0.29259  1.0000
  C   C500      1.0  0.26319  0.19774  0.33168  1.0000
  S   S203      1.0  0.47118  0.05108  0.01931  1.0000
  S   S204      1.0  0.44203  0.07279  0.01700  1.0000
  H   H822      1.0  0.38952  0.02667  0.01345  1.0000
  H   H823      1.0  0.47129  0.14865  0.30702  1.0000
  H   H824      1.0  0.46075  0.13265  0.29312  1.0000
  C   C501      1.0  0.46582  0.13443  0.30890  1.0000
  H   H825      1.0  0.33620  0.18698  0.01444  1.0000
  H   H826      1.0  0.47400  0.10650  0.09332  1.0000
  H   H827      1.0  0.41679  0.23941  0.41744  1.0000
  H   H828      1.0  0.24530  0.22139  0.33635  1.0000
  C   C502      1.0  0.41666  0.23621  0.43641  1.0000
  S   S205      1.0  0.25103  0.23327  0.28637  1.0000
  H   H829      1.0  0.37126  0.06198  0.98716  1.0000
  H   H830      1.0  0.44198  0.21265  0.29773  1.0000
  H   H831      1.0  0.45982  0.10074  0.32952  1.0000
  C   C503      1.0  0.33496  0.24162  0.02684  1.0000
  H   H832      1.0  0.48177  0.09377  0.17882  1.0000
  H   H833      1.0  0.45030  0.01621  0.32715  1.0000
  H   H834      1.0  0.47428  0.00623  0.40380  1.0000
  C   C504      1.0  0.47094  0.10593  0.31423  1.0000
  C   C505      1.0  0.43401  0.22040  0.28962  1.0000
  H   H835      1.0  0.34579  0.23639  0.02894  1.0000
  Fe  Fe100     1.0  0.45469  0.08392  0.97916  1.0000
  C   C506      1.0  0.38499  0.06322  0.97939  1.0000
  H   H836      1.0  0.47461  0.12180  0.34904  1.0000
  C   C507      1.0  0.44792  0.09548  0.42009  1.0000
  C   C508      1.0  0.43796  0.09879  0.40393  1.0000
  C   C509      1.0  0.42516  0.10748  0.40911  1.0000
  C   C510      1.0  0.42241  0.11290  0.43030  1.0000
  H   H837      1.0  0.45782  0.08881  0.41626  1.0000
  H   H838      1.0  0.41745  0.11013  0.39662  1.0000
  H   H839      1.0  0.44325  0.23713  0.07386  1.0000
  H   H840      1.0  0.45467  0.12985  0.32427  1.0000
  H   H841      1.0  0.39647  0.05849  0.45564  1.0000
  C   C511      1.0  0.44532  0.10109  0.44108  1.0000
  C   C512      1.0  0.43262  0.10984  0.44625  1.0000
  H   H842      1.0  0.26524  0.18547  0.32715  1.0000
  H   H843      1.0  0.37824  0.05790  0.02640  1.0000
  C   C513      1.0  0.24434  0.18211  0.36885  1.0000
  C   C514      1.0  0.24403  0.21153  0.35247  1.0000
  H   H844      1.0  0.47748  0.02352  0.41896  1.0000
  S   S206      1.0  0.42145  0.24229  0.04204  1.0000
  H   H845      1.0  0.31718  0.22261  0.05602  1.0000
  N   N49       1.0  0.43360  0.23587  0.29951  1.0000
  C   C515      1.0  0.39248  0.20752  0.40723  1.0000
  C   C516      1.0  0.39936  0.19332  0.41327  1.0000
  C   C517      1.0  0.39346  0.18210  0.43561  1.0000
  C   C518      1.0  0.41994  0.01273  0.98374  1.0000
  C   C519      1.0  0.37367  0.19916  0.44593  1.0000
  C   C520      1.0  0.37964  0.21045  0.42366  1.0000
  H   H846      1.0  0.40925  0.19094  0.40062  1.0000
  H   H847      1.0  0.39878  0.17116  0.44008  1.0000
  H   H848      1.0  0.41742  0.04829  0.99633  1.0000
  H   H849      1.0  0.37407  0.22117  0.41905  1.0000
  H   H850      1.0  0.35643  0.07369  0.45854  1.0000
  C   C521      1.0  0.48679  0.10572  0.08592  1.0000
  C   C522      1.0  0.38051  0.18492  0.45198  1.0000
  H   H851      1.0  0.43364  0.22255  0.33414  1.0000
  Fe  Fe101     1.0  0.26080  0.24102  0.06288  1.0000
  C   C523      1.0  0.31877  0.23390  0.04222  1.0000
  S   S207      1.0  0.48135  0.09087  0.98569  1.0000
  N   N50       1.0  0.47885  0.12466  0.31179  1.0000
  Fe  Fe102     1.0  0.48153  0.06386  0.98112  1.0000
  S   S208      1.0  0.42273  0.24129  0.97752  1.0000
  H   H852      1.0  0.26491  0.20736  0.31503  1.0000
  H   H853      1.0  0.34561  0.20924  0.01477  1.0000
  H   H854      1.0  0.41268  0.11977  0.43404  1.0000
  S   S209      1.0  0.28539  0.24160  0.32092  1.0000
  H   H855      1.0  0.32955  0.17947  0.97789  1.0000
  N   N51       1.0  0.24602  0.19485  0.34697  1.0000
  H   H856      1.0  0.39864  0.07370  0.01396  1.0000
  C   C524      1.0  0.39182  0.05959  0.01745  1.0000
  H   H857      1.0  0.43953  0.22424  0.27044  1.0000
  C   C525      1.0  0.47503  0.00914  0.42116  1.0000
  C   C526      1.0  0.44150  0.00360  0.33555  1.0000
  H   H858      1.0  0.41264  0.22201  0.32882  1.0000
  H   H859      1.0  0.39791  0.05240  0.02990  1.0000
  C   C527      1.0  0.30465  0.24084  0.04012  1.0000
  C   C528      1.0  0.31629  0.24481  0.33412  1.0000
  H   H860      1.0  0.48003  0.08065  0.28437  1.0000
  H   H861      1.0  0.46616  0.10341  0.29853  1.0000
  H   H862      1.0  0.41844  0.06963  0.98083  1.0000
  H   H863      1.0  0.46213  0.00306  0.43300  1.0000
  C   C529      1.0  0.41634  0.00751  0.00810  1.0000
  H   H864      1.0  0.35819  0.19737  0.99957  1.0000
  H   H865      1.0  0.36997  0.03206  0.00914  1.0000
  H   H866      1.0  0.37340  0.09321  0.45445  1.0000
  H   H867      1.0  0.31257  0.19636  0.99928  1.0000
  C   C530      1.0  0.38747  0.06652  0.45162  1.0000
  H   H868      1.0  0.47644  0.06141  0.18651  1.0000
  C   C531      1.0  0.36623  0.08061  0.46683  1.0000
  S   S210      1.0  0.43024  0.11694  0.47265  1.0000
  H   H869      1.0  0.40808  0.22279  0.44380  1.0000
  H   H870      1.0  0.32235  0.21871  0.99872  1.0000
  H   H871      1.0  0.47707  0.00150  0.46607  1.0000
  H   H872      1.0  0.45979  0.24003  0.30325  1.0000
  H   H873      1.0  0.48468  0.16464  0.09022  1.0000
  H   H874      1.0  0.48206  0.06243  0.15572  1.0000
  Fe  Fe103     1.0  0.39667  0.22779  0.97313  1.0000
  H   H875      1.0  0.39186  0.07738  0.97452  1.0000
  C   C532      1.0  0.32219  0.20841  0.98848  1.0000
  H   H876      1.0  0.35294  0.23221  0.97870  1.0000
  S   S211      1.0  0.23813  0.22401  0.09092  1.0000
  C   C533      1.0  0.42291  0.24574  0.28824  1.0000
  N   N52       1.0  0.33945  0.20546  0.98221  1.0000
  H   H877      1.0  0.38388  0.23687  0.45239  1.0000
  C   C534      1.0  0.43773  0.99803  0.35987  1.0000
  H   H878      1.0  0.43735  0.99680  0.30321  1.0000
  H   H879      1.0  0.48669  0.09438  0.14800  1.0000
  H   H880      1.0  0.26300  0.04236  0.83406  1.0000
  C   C535      1.0  0.24494  0.00268  0.68863  1.0000
  Fe  Fe104     1.0  0.37030  0.10935  0.51847  1.0000
  S   S212      1.0  0.39658  0.11044  0.52527  1.0000
  S   S213      1.0  0.35283  0.08150  0.53305  1.0000
  Fe  Fe105     1.0  0.38234  0.14799  0.49388  1.0000
  S   S214      1.0  0.40953  0.15151  0.49853  1.0000
  H   H881      1.0  0.43049  0.17900  0.83153  1.0000
  Fe  Fe106     1.0  0.39740  0.13605  0.53515  1.0000
  S   S215      1.0  0.40708  0.13891  0.56844  1.0000
  H   H882      1.0  0.47342  0.09530  0.87954  1.0000
  S   S216      1.0  0.37010  0.13390  0.53146  1.0000
  Fe  Fe107     1.0  0.35894  0.11592  0.84334  1.0000
  S   S217      1.0  0.38154  0.10439  0.84072  1.0000
  S   S218      1.0  0.33750  0.10869  0.82353  1.0000
  Fe  Fe108     1.0  0.37679  0.14462  0.86705  1.0000
  S   S219      1.0  0.40049  0.13475  0.86517  1.0000
  S   S220      1.0  0.37648  0.17122  0.87574  1.0000
  Fe  Fe109     1.0  0.39797  0.13193  0.82913  1.0000
  S   S221      1.0  0.42143  0.13877  0.79943  1.0000
  Fe  Fe110     1.0  0.38198  0.10815  0.87705  1.0000
  S   S222      1.0  0.38722  0.08630  0.90199  1.0000
  S   S223      1.0  0.37565  0.14359  0.82979  1.0000
  S   S224      1.0  0.35797  0.11791  0.88097  1.0000
  H   H883      1.0  0.41543  0.00564  0.95176  1.0000
  Fe  Fe111     1.0  0.40716  0.12560  0.48845  1.0000
  Fe  Fe112     1.0  0.26188  0.01191  0.54008  1.0000
  S   S225      1.0  0.28002  0.03883  0.52123  1.0000
  H   H884      1.0  0.24408  0.03913  0.59314  1.0000
  Fe  Fe113     1.0  0.26300  0.01492  0.74388  1.0000
  H   H885      1.0  0.36481  0.22004  0.96296  1.0000
  S   S226      1.0  0.27393  0.01392  0.70615  1.0000
  C   C536      1.0  0.41728  0.20691  0.83132  1.0000
  S   S227      1.0  0.24777  0.01287  0.81031  1.0000
  Fe  Fe114     1.0  0.27436  0.02554  0.78755  1.0000
  S   S228      1.0  0.29573  0.03644  0.80564  1.0000
  S   S229      1.0  0.26490  0.03927  0.75821  1.0000
  H   H886      1.0  0.46764  0.11197  0.90935  1.0000
  Fe  Fe115     1.0  0.46857  0.20431  0.62548  1.0000
  S   S230      1.0  0.46643  0.18518  0.65870  1.0000
  S   S231      1.0  0.46574  0.19645  0.59098  1.0000
  H   H887      1.0  0.33502  0.19627  0.95156  1.0000
  Fe  Fe116     1.0  0.45465  0.20283  0.67745  1.0000
  S   S232      1.0  0.42968  0.19361  0.70522  1.0000
  S   S233      1.0  0.45482  0.22090  0.64401  1.0000
  H   H888      1.0  0.24493  0.07620  0.85684  1.0000
  N   N53       1.0  0.45125  0.12803  0.52956  1.0000
  H   H889      1.0  0.23877  0.08422  0.83040  1.0000
  C   C537      1.0  0.26179  0.05447  0.83995  1.0000
  N   N54       1.0  0.37797  0.06993  0.47303  1.0000
  H   H890      1.0  0.25363  0.06221  0.58779  1.0000
  C   C538      1.0  0.40468  0.09197  0.91524  1.0000
  C   C539      1.0  0.40940  0.10842  0.92025  1.0000
  C   C540      1.0  0.42242  0.11218  0.93252  1.0000
  C   C541      1.0  0.43089  0.09959  0.93975  1.0000
  C   C542      1.0  0.42678  0.08343  0.93376  1.0000
  C   C543      1.0  0.41348  0.07951  0.92193  1.0000
  H   H891      1.0  0.40264  0.11808  0.91530  1.0000
  H   H892      1.0  0.42568  0.12481  0.93684  1.0000
  H   H893      1.0  0.41004  0.06684  0.91780  1.0000
  C   C544      1.0  0.42358  0.15413  0.77343  1.0000
  C   C545      1.0  0.43913  0.15919  0.75660  1.0000
  C   C546      1.0  0.44124  0.17138  0.73564  1.0000
  C   C547      1.0  0.42774  0.17853  0.73139  1.0000
  C   C548      1.0  0.41217  0.17349  0.74825  1.0000
  C   C549      1.0  0.41007  0.16130  0.76920  1.0000
  H   H894      1.0  0.44964  0.15368  0.75978  1.0000
  H   H895      1.0  0.45329  0.17522  0.72275  1.0000
  H   H896      1.0  0.40169  0.17899  0.74497  1.0000
  H   H897      1.0  0.39799  0.15732  0.78191  1.0000
  C   C550      1.0  0.32612  0.08842  0.81873  1.0000
  C   C551      1.0  0.31442  0.08853  0.80400  1.0000
  C   C552      1.0  0.30525  0.07288  0.79943  1.0000
  C   C553      1.0  0.30744  0.05680  0.80984  1.0000
  C   C554      1.0  0.31921  0.05673  0.82443  1.0000
  C   C555      1.0  0.32854  0.07238  0.82878  1.0000
  H   H898      1.0  0.31250  0.10084  0.79597  1.0000
  H   H899      1.0  0.29652  0.07326  0.78783  1.0000
  H   H900      1.0  0.32109  0.04442  0.83256  1.0000
  H   H901      1.0  0.33747  0.07199  0.84011  1.0000
  C   C556      1.0  0.43721  0.11174  0.53690  1.0000
  C   C557      1.0  0.42251  0.15599  0.57444  1.0000
  C   C558      1.0  0.43359  0.16972  0.55681  1.0000
  C   C559      1.0  0.44659  0.18208  0.56224  1.0000
  C   C560      1.0  0.44836  0.18124  0.58540  1.0000
  C   C561      1.0  0.43706  0.16772  0.60309  1.0000
  C   C562      1.0  0.42438  0.15508  0.59757  1.0000
  H   H902      1.0  0.43220  0.17085  0.53899  1.0000
  H   H903      1.0  0.45522  0.19252  0.54843  1.0000
  H   H904      1.0  0.43820  0.16689  0.62100  1.0000
  H   H905      1.0  0.41586  0.14456  0.61138  1.0000
  C   C563      1.0  0.33259  0.06997  0.52933  1.0000
  C   C564      1.0  0.32337  0.07766  0.51483  1.0000
  C   C565      1.0  0.30744  0.06784  0.51236  1.0000
  C   C566      1.0  0.30052  0.05025  0.52430  1.0000
  C   C567      1.0  0.30983  0.04253  0.53865  1.0000
  C   C568      1.0  0.32573  0.05235  0.54115  1.0000
  H   H906      1.0  0.32842  0.09119  0.50563  1.0000
  H   H907      1.0  0.30036  0.07397  0.50122  1.0000
  H   H908      1.0  0.30484  0.02897  0.54772  1.0000
  H   H909      1.0  0.33280  0.04623  0.55231  1.0000
  C   C569      1.0  0.38739  0.19287  0.94000  1.0000
  C   C570      1.0  0.38524  0.20367  0.92025  1.0000
  C   C571      1.0  0.38197  0.19683  0.90079  1.0000
  C   C572      1.0  0.38096  0.17918  0.90066  1.0000
  C   C573      1.0  0.38328  0.16845  0.92032  1.0000
  C   C574      1.0  0.38633  0.17523  0.93988  1.0000
  H   H910      1.0  0.38593  0.21723  0.92005  1.0000
  H   H911      1.0  0.38012  0.20526  0.88577  1.0000
  H   H912      1.0  0.38252  0.15486  0.92059  1.0000
  C   C575      1.0  0.39836  0.19198  0.81027  1.0000
  H   H913      1.0  0.37625  0.04485  0.49427  1.0000
  S   S234      1.0  0.38092  0.12319  0.48062  1.0000
  C   C576      1.0  0.45648  0.13298  0.55043  1.0000
  H   H914      1.0  0.27196  0.00018  0.62943  1.0000
  H   H915      1.0  0.28928  0.06237  0.56379  1.0000
  H   H916      1.0  0.26231  0.01850  0.59785  1.0000
  H   H917      1.0  0.44180  0.13924  0.50073  1.0000
  H   H918      1.0  0.44213  0.20387  0.79739  1.0000
  H   H919      1.0  0.38550  0.05865  0.96280  1.0000
  H   H920      1.0  0.27623  0.03014  0.57041  1.0000
  H   H921      1.0  0.41592  0.21983  0.82294  1.0000
  C   C577      1.0  0.41267  0.00142  0.97057  1.0000
  H   H922      1.0  0.40721  0.20187  0.84792  1.0000
  H   H923      1.0  0.34777  0.22713  0.95236  1.0000
  C   C578      1.0  0.39034  0.07941  0.48465  1.0000
  H   H924      1.0  0.40790  0.17231  0.84458  1.0000
  H   H925      1.0  0.46124  0.12271  0.56024  1.0000
  H   H926      1.0  0.44133  0.10077  0.54626  1.0000
  C   C579      1.0  0.24841  0.07834  0.83748  1.0000
  H   H927      1.0  0.47679  0.13740  0.50771  1.0000
  C   C580      1.0  0.26290  0.00745  0.68462  1.0000
  S   S235      1.0  0.45582  0.05800  0.97168  1.0000
  C   C581      1.0  0.25610  0.04969  0.58482  1.0000
  H   H928      1.0  0.39635  0.20447  0.80150  1.0000
  N   N55       1.0  0.37476  0.11628  0.75967  1.0000
  C   C582      1.0  0.37818  0.11605  0.78315  1.0000
  C   C583      1.0  0.38138  0.10278  0.75012  1.0000
  C   C584      1.0  0.38346  0.13363  0.74418  1.0000
  C   C585      1.0  0.35599  0.11261  0.76137  1.0000
  H   H929      1.0  0.37328  0.12604  0.79091  1.0000
  H   H930      1.0  0.39220  0.11873  0.78275  1.0000
  H   H931      1.0  0.37161  0.10320  0.79535  1.0000
  H   H932      1.0  0.37902  0.10255  0.73238  1.0000
  H   H933      1.0  0.39551  0.10515  0.74879  1.0000
  H   H934      1.0  0.37508  0.08954  0.76149  1.0000
  H   H935      1.0  0.38110  0.13436  0.72629  1.0000
  H   H936      1.0  0.39766  0.13676  0.74249  1.0000
  H   H937      1.0  0.37889  0.14414  0.75104  1.0000
  H   H938      1.0  0.34912  0.09947  0.77267  1.0000
  H   H939      1.0  0.35283  0.11301  0.74396  1.0000
  H   H940      1.0  0.35047  0.12221  0.76933  1.0000
  N   N56       1.0  0.27079  0.04619  0.59432  1.0000
  C   C586      1.0  0.27374  0.02967  0.58943  1.0000
  H   H941      1.0  0.28644  0.01002  0.65985  1.0000
  C   C587      1.0  0.28638  0.06060  0.58312  1.0000
  C   C588      1.0  0.26691  0.04469  0.61983  1.0000
  H   H942      1.0  0.45507  0.15486  0.51233  1.0000
  C   C589      1.0  0.33885  0.19206  0.96818  1.0000
  H   H943      1.0  0.47022  0.16483  0.62393  1.0000
  C   C590      1.0  0.25355  0.06531  0.80444  1.0000
  H   H944      1.0  0.42585  0.11335  0.54886  1.0000
  H   H945      1.0  0.42816  0.19243  0.78199  1.0000
  H   H946      1.0  0.46226  0.12152  0.49795  1.0000
  H   H947      1.0  0.47097  0.11473  0.52253  1.0000
  H   H948      1.0  0.44541  0.13493  0.56260  1.0000
  H   H949      1.0  0.27760  0.04170  0.62764  1.0000
  H   H950      1.0  0.25509  0.03400  0.62870  1.0000
  H   H951      1.0  0.26472  0.05695  0.62425  1.0000
  H   H952      1.0  0.39769  0.09239  0.47344  1.0000
  S   S236      1.0  0.47981  0.21861  0.68179  1.0000
  N   N57       1.0  0.24887  0.06185  0.83019  1.0000
  H   H953      1.0  0.43374  0.07392  0.93837  1.0000
  C   C591      1.0  0.41751  0.17772  0.82770  1.0000
  H   H954      1.0  0.48306  0.11799  0.92628  1.0000
  H   H955      1.0  0.39986  0.07211  0.48880  1.0000
  C   C592      1.0  0.27254  0.00659  0.66305  1.0000
  Fe  Fe117     1.0  0.48077  0.23594  0.64725  1.0000
  H   H956      1.0  0.43280  0.10772  0.52159  1.0000
  S   S237      1.0  0.27461  0.00208  0.77160  1.0000
  H   H957      1.0  0.42274  0.24301  0.47707  1.0000
  C   C593      1.0  0.44517  0.14212  0.51711  1.0000
  S   S238      1.0  0.39040  0.20037  0.96575  1.0000
  H   H958      1.0  0.42778  0.21422  0.78417  1.0000
  S   S239      1.0  0.44646  0.10455  0.95629  1.0000
  H   H959      1.0  0.26116  0.08812  0.83117  1.0000
  C   C594      1.0  0.42899  0.20162  0.79390  1.0000
  H   H960      1.0  0.43001  0.20901  0.83611  1.0000
  N   N58       1.0  0.41555  0.19458  0.81577  1.0000
  H   H961      1.0  0.29791  0.05807  0.58913  1.0000
  C   C595      1.0  0.26437  0.00113  0.64567  1.0000
  H   H962      1.0  0.35915  0.08373  0.48256  1.0000
  H   H963      1.0  0.27480  0.06380  0.83433  1.0000
  S   S240      1.0  0.37245  0.17107  0.48011  1.0000
  H   H964      1.0  0.43346  0.14380  0.52803  1.0000
  H   H965      1.0  0.38792  0.18643  0.82637  1.0000
  H   H966      1.0  0.39662  0.18282  0.79849  1.0000
  H   H967      1.0  0.28484  0.07322  0.58696  1.0000
  H   H968      1.0  0.26634  0.07485  0.79718  1.0000
  H   H969      1.0  0.41569  0.16788  0.81688  1.0000
  C   C596      1.0  0.35177  0.22193  0.96845  1.0000
  C   C597      1.0  0.46601  0.12531  0.51380  1.0000
  H   H970      1.0  0.38790  0.16671  0.95505  1.0000
  H   H971      1.0  0.36052  0.05544  0.50541  1.0000
  H   H972      1.0  0.28495  0.02669  0.59583  1.0000
  H   H973      1.0  0.38367  0.08165  0.50131  1.0000
  H   H974      1.0  0.25415  0.05315  0.79844  1.0000
  H   H975      1.0  0.25848  0.05046  0.56564  1.0000
  H   H976      1.0  0.35826  0.04572  0.48099  1.0000
  C   C598      1.0  0.48171  0.11610  0.90859  1.0000
  H   H977      1.0  0.46680  0.14544  0.54564  1.0000
  H   H978      1.0  0.48607  0.08793  0.93654  1.0000
  H   H979      1.0  0.41251  0.05102  0.96817  1.0000
  C   C599      1.0  0.36782  0.05322  0.48909  1.0000
  H   H980      1.0  0.25840  0.05114  0.85936  1.0000
  H   H981      1.0  0.46928  0.08157  0.92168  1.0000
  Fe  Fe118     1.0  0.23830  0.02531  0.78038  1.0000
  C   C600      1.0  0.48348  0.08641  0.91927  1.0000
  S   S241      1.0  0.23761  0.01244  0.56404  1.0000
  H   H982      1.0  0.48605  0.15908  0.65517  1.0000
  H   H983      1.0  0.35169  0.18944  0.96349  1.0000
  H   H984      1.0  0.40084  0.23053  0.48150  1.0000
  C   C601      1.0  0.47846  0.15852  0.61326  1.0000
  H   H985      1.0  0.23731  0.00323  0.70509  1.0000
  H   H986      1.0  0.47157  0.14447  0.61682  1.0000
  H   H987      1.0  0.24387  0.07049  0.79644  1.0000
  C   C602      1.0  0.40992  0.24367  0.47372  1.0000
  H   H988      1.0  0.47924  0.16452  0.59469  1.0000
  H   H989      1.0  0.48698  0.12902  0.89614  1.0000
  H   H990      1.0  0.31747  0.21280  0.97267  1.0000
  C   C603      1.0  0.24639  0.99666  0.64951  1.0000
  Fe  Fe119     1.0  0.25994  0.37932  0.36755  1.0000
  H   H991      1.0  0.46569  0.26908  0.02139  1.0000
  Fe  Fe120     1.0  0.27947  0.40772  0.38932  1.0000
  S   S242      1.0  0.26977  0.42869  0.37012  1.0000
  S   S243      1.0  0.29651  0.40902  0.41573  1.0000
  Fe  Fe121     1.0  0.27457  0.41690  0.33891  1.0000
  S   S244      1.0  0.28980  0.42981  0.30174  1.0000
  S   S245      1.0  0.25365  0.38798  0.40123  1.0000
  S   S246      1.0  0.28646  0.39753  0.35736  1.0000
  Fe  Fe122     1.0  0.40086  0.28351  0.38341  1.0000
  S   S247      1.0  0.41951  0.26926  0.36970  1.0000
  S   S248      1.0  0.40025  0.29659  0.41412  1.0000
  Fe  Fe123     1.0  0.37787  0.27460  0.34976  1.0000
  S   S249      1.0  0.35573  0.28437  0.33894  1.0000
  Fe  Fe124     1.0  0.41695  0.28115  0.33391  1.0000
  S   S250      1.0  0.44195  0.29034  0.30637  1.0000
  S   S251      1.0  0.37755  0.26146  0.38647  1.0000
  S   S252      1.0  0.40032  0.29738  0.34768  1.0000
  H   H992      1.0  0.25273  0.42469  0.07353  1.0000
  S   S253      1.0  0.25856  0.40675  0.01760  1.0000
  S   S254      1.0  0.40605  0.27257  0.99220  1.0000
  H   H993      1.0  0.27329  0.35666  0.28152  1.0000
  C   C604      1.0  0.43815  0.43267  0.45058  1.0000
  N   N59       1.0  0.46690  0.28284  0.98663  1.0000
  S   S255      1.0  0.26932  0.27519  0.27396  1.0000
  H   H994      1.0  0.26733  0.36884  0.03085  1.0000
  H   H995      1.0  0.32250  0.49068  0.21872  1.0000
  Fe  Fe125     1.0  0.24418  0.40832  0.38040  1.0000
  H   H996      1.0  0.41551  0.28949  0.16064  1.0000
  Fe  Fe126     1.0  0.40942  0.24708  0.01036  1.0000
  C   C605      1.0  0.43691  0.46140  0.43212  1.0000
  C   C606      1.0  0.30007  0.38497  0.30341  1.0000
  S   S256      1.0  0.39469  0.25942  0.33309  1.0000
  S   S257      1.0  0.37869  0.46482  0.46960  1.0000
  S   S258      1.0  0.24826  0.39814  0.34749  1.0000
  S   S259      1.0  0.26535  0.48244  0.23085  1.0000
  Fe  Fe127     1.0  0.26603  0.25230  0.30351  1.0000
  S   S260      1.0  0.27600  0.45939  0.12624  1.0000
  C   C607      1.0  0.29123  0.39082  0.26696  1.0000
  N   N60       1.0  0.24467  0.30428  0.21129  1.0000
  H   H997      1.0  0.26691  0.43886  0.46553  1.0000
  Fe  Fe128     1.0  0.46816  0.29020  0.17430  1.0000
  C   C608      1.0  0.44948  0.28538  0.99257  1.0000
  S   S261      1.0  0.44418  0.29068  0.19954  1.0000
  C   C609      1.0  0.25205  0.25549  0.15627  1.0000
  S   S262      1.0  0.46687  0.29480  0.08986  1.0000
  S   S263      1.0  0.46812  0.26916  0.15424  1.0000
  H   H998      1.0  0.23896  0.39220  0.45060  1.0000
  S   S264      1.0  0.46536  0.34588  0.43604  1.0000
  S   S265      1.0  0.47667  0.31155  0.14203  1.0000
  H   H999      1.0  0.29319  0.40492  0.26721  1.0000
  H   H1000     1.0  0.45551  0.33103  0.21422  1.0000
  S   S266      1.0  0.35704  0.26611  0.98873  1.0000
  H   H1001     1.0  0.42434  0.42711  0.45094  1.0000
  N   N61       1.0  0.28655  0.36732  0.00215  1.0000
  C   C610      1.0  0.39870  0.26125  0.14779  1.0000
  C   C611      1.0  0.47385  0.28073  0.00788  1.0000
  C   C612      1.0  0.26493  0.42454  0.46744  1.0000
  S   S267      1.0  0.24015  0.29037  0.02169  1.0000
  H   H1002     1.0  0.25674  0.32165  0.23068  1.0000
  C   C613      1.0  0.45444  0.27989  0.07675  1.0000
  C   C614      1.0  0.45383  0.26214  0.08109  1.0000
  H   H1003     1.0  0.26158  0.39593  0.44954  1.0000
  C   C615      1.0  0.43378  0.25710  0.05539  1.0000
  C   C616      1.0  0.43421  0.27482  0.05132  1.0000
  C   C617      1.0  0.44465  0.28616  0.06169  1.0000
  C   C618      1.0  0.23937  0.33263  0.31504  1.0000
  H   H1004     1.0  0.42641  0.27977  0.04032  1.0000
  H   H1005     1.0  0.44495  0.29985  0.05829  1.0000
  S   S268      1.0  0.24022  0.30528  0.29351  1.0000
  C   C619      1.0  0.25667  0.45207  0.05947  1.0000
  C   C620      1.0  0.26921  0.47149  0.08291  1.0000
  C   C621      1.0  0.26937  0.45713  0.09981  1.0000
  C   C622      1.0  0.26359  0.44028  0.09604  1.0000
  C   C623      1.0  0.25734  0.43774  0.07598  1.0000
  H   H1006     1.0  0.26376  0.42906  0.10887  1.0000
  H   H1007     1.0  0.42294  0.45667  0.43270  1.0000
  C   C624      1.0  0.41848  0.31092  0.41902  1.0000
  C   C625      1.0  0.43520  0.31237  0.40692  1.0000
  C   C626      1.0  0.44941  0.32317  0.41227  1.0000
  C   C627      1.0  0.44707  0.33286  0.42942  1.0000
  C   C628      1.0  0.43032  0.33160  0.44124  1.0000
  C   C629      1.0  0.41613  0.32056  0.43620  1.0000
  H   H1008     1.0  0.43723  0.30505  0.39365  1.0000
  H   H1009     1.0  0.46231  0.32407  0.40304  1.0000
  H   H1010     1.0  0.42833  0.33894  0.45451  1.0000
  H   H1011     1.0  0.40327  0.31948  0.44575  1.0000
  C   C630      1.0  0.44238  0.29072  0.27667  1.0000
  C   C631      1.0  0.45774  0.29071  0.26186  1.0000
  C   C632      1.0  0.45838  0.29027  0.23831  1.0000
  C   C633      1.0  0.44376  0.29034  0.22925  1.0000
  C   C634      1.0  0.42843  0.29046  0.24404  1.0000
  C   C635      1.0  0.42769  0.29052  0.26772  1.0000
  H   H1012     1.0  0.46913  0.29077  0.26873  1.0000
  H   H1013     1.0  0.47017  0.28983  0.22723  1.0000
  H   H1014     1.0  0.41705  0.29050  0.23716  1.0000
  H   H1015     1.0  0.41579  0.29052  0.27900  1.0000
  C   C636      1.0  0.33649  0.27217  0.33346  1.0000
  H   H1016     1.0  0.27741  0.42242  0.45929  1.0000
  C   C637      1.0  0.25847  0.32272  0.34685  1.0000
  H   H1017     1.0  0.42329  0.25240  0.11955  1.0000
  C   C638      1.0  0.30971  0.27203  0.32035  1.0000
  C   C639      1.0  0.32528  0.28114  0.32458  1.0000
  H   H1018     1.0  0.30121  0.27909  0.31354  1.0000
  H   H1019     1.0  0.32866  0.29524  0.32090  1.0000
  C   C640      1.0  0.30779  0.42727  0.42466  1.0000
  C   C641      1.0  0.30592  0.44405  0.41739  1.0000
  C   C642      1.0  0.31441  0.45795  0.42602  1.0000
  C   C643      1.0  0.32496  0.45526  0.44181  1.0000
  C   C644      1.0  0.32699  0.43853  0.44885  1.0000
  C   C645      1.0  0.31836  0.42461  0.44042  1.0000
  H   H1020     1.0  0.29785  0.44631  0.40526  1.0000
  H   H1021     1.0  0.42374  0.27097  0.41988  1.0000
  H   H1022     1.0  0.31982  0.41165  0.44624  1.0000
  C   C646      1.0  0.28209  0.44354  0.28204  1.0000
  C   C647      1.0  0.29023  0.44804  0.25821  1.0000
  C   C648      1.0  0.28478  0.45937  0.24210  1.0000
  C   C649      1.0  0.27140  0.46661  0.24983  1.0000
  C   C650      1.0  0.26323  0.46202  0.27364  1.0000
  C   C651      1.0  0.26844  0.45042  0.28967  1.0000
  H   H1023     1.0  0.30077  0.44274  0.25216  1.0000
  H   H1024     1.0  0.39363  0.25336  0.42604  1.0000
  H   H1025     1.0  0.41000  0.29326  0.12015  1.0000
  H   H1026     1.0  0.26209  0.44705  0.30798  1.0000
  H   H1027     1.0  0.46353  0.47189  0.45205  1.0000
  H   H1028     1.0  0.45716  0.25206  0.27630  1.0000
  H   H1029     1.0  0.46459  0.45027  0.46469  1.0000
  Fe  Fe129     1.0  0.25232  0.25644  0.25848  1.0000
  H   H1030     1.0  0.26593  0.31882  0.35911  1.0000
  H   H1031     1.0  0.25874  0.30068  0.33088  1.0000
  C   C652      1.0  0.33194  0.25394  0.33815  1.0000
  H   H1032     1.0  0.27411  0.48455  0.08511  1.0000
  H   H1033     1.0  0.31272  0.47084  0.42051  1.0000
  C   C653      1.0  0.29740  0.38516  0.99960  1.0000
  H   H1034     1.0  0.23830  0.32218  0.99325  1.0000
  H   H1035     1.0  0.29102  0.46257  0.22378  1.0000
  Fe  Fe130     1.0  0.38117  0.25645  0.98714  1.0000
  H   H1036     1.0  0.43169  0.29252  0.10990  1.0000
  C   C654      1.0  0.46599  0.26702  0.97716  1.0000
  H   H1037     1.0  0.26685  0.29402  0.20810  1.0000
  H   H1038     1.0  0.26601  0.37587  0.99000  1.0000
  S   S269      1.0  0.33509  0.47320  0.45234  1.0000
  S   S270      1.0  0.25945  0.35100  0.36674  1.0000
  C   C655      1.0  0.23839  0.31769  0.19767  1.0000
  S   S271      1.0  0.48640  0.38176  0.46812  1.0000
  Fe  Fe131     1.0  0.24105  0.26728  0.04907  1.0000
  H   H1039     1.0  0.37216  0.48464  0.42884  1.0000
  Fe  Fe132     1.0  0.26033  0.41164  0.97904  1.0000
  H   H1040     1.0  0.28102  0.38742  0.25720  1.0000
  N   N62       1.0  0.48128  0.34442  0.19492  1.0000
  C   C656      1.0  0.24943  0.39826  0.45856  1.0000
  Fe  Fe133     1.0  0.46329  0.36580  0.45839  1.0000
  C   C657      1.0  0.46619  0.34251  0.21384  1.0000
  H   H1041     1.0  0.47883  0.31040  0.97536  1.0000
  C   C658      1.0  0.33711  0.25623  0.00898  1.0000
  N   N63       1.0  0.44177  0.45124  0.45182  1.0000
  Fe  Fe134     1.0  0.39633  0.24828  0.36980  1.0000
  H   H1042     1.0  0.38884  0.25964  0.45319  1.0000
  H   H1043     1.0  0.44121  0.26642  0.12622  1.0000
  H   H1044     1.0  0.45143  0.25874  0.30301  1.0000
  H   H1045     1.0  0.28977  0.34213  0.99858  1.0000
  C   C659      1.0  0.26268  0.46894  0.06306  1.0000
  H   H1046     1.0  0.46943  0.34043  0.23128  1.0000
  H   H1047     1.0  0.46831  0.45740  0.43372  1.0000
  H   H1048     1.0  0.29675  0.37687  0.32157  1.0000
  S   S272      1.0  0.24609  0.43228  0.97892  1.0000
  C   C660      1.0  0.27620  0.36067  0.02636  1.0000
  C   C661      1.0  0.28396  0.36125  0.29007  1.0000
  C   C662      1.0  0.41823  0.28430  0.11693  1.0000
  H   H1049     1.0  0.44602  0.43086  0.43441  1.0000
  H   H1050     1.0  0.25175  0.29894  0.24432  1.0000
  H   H1051     1.0  0.25964  0.29847  0.18165  1.0000
  H   H1052     1.0  0.29609  0.26097  0.02055  1.0000
  H   H1053     1.0  0.47724  0.31698  0.19738  1.0000
  H   H1054     1.0  0.27092  0.31612  0.19248  1.0000
  H   H1055     1.0  0.46137  0.25712  0.09249  1.0000
  H   H1056     1.0  0.28447  0.36050  0.03925  1.0000
  N   N64       1.0  0.36154  0.31751  0.38589  1.0000
  C   C663      1.0  0.34779  0.32302  0.39984  1.0000
  C   C664      1.0  0.37841  0.32609  0.38987  1.0000
  C   C665      1.0  0.36157  0.32247  0.36084  1.0000
  C   C666      1.0  0.35841  0.29839  0.39298  1.0000
  H   H1057     1.0  0.34975  0.33740  0.39499  1.0000
  H   H1058     1.0  0.34739  0.31937  0.41884  1.0000
  H   H1059     1.0  0.33490  0.31675  0.39718  1.0000
  H   H1060     1.0  0.38907  0.32210  0.37972  1.0000
  H   H1061     1.0  0.38129  0.34055  0.38472  1.0000
  H   H1062     1.0  0.37892  0.32249  0.40858  1.0000
  H   H1063     1.0  0.37185  0.31853  0.34981  1.0000
  H   H1064     1.0  0.36371  0.33679  0.35481  1.0000
  H   H1065     1.0  0.34916  0.31587  0.35712  1.0000
  H   H1066     1.0  0.35865  0.29410  0.41166  1.0000
  H   H1067     1.0  0.36843  0.29389  0.38251  1.0000
  H   H1068     1.0  0.34581  0.29141  0.39017  1.0000
  H   H1069     1.0  0.26809  0.34710  0.02897  1.0000
  H   H1070     1.0  0.25632  0.44019  0.42910  1.0000
  H   H1071     1.0  0.44936  0.29640  0.00137  1.0000
  H   H1072     1.0  0.39034  0.26991  0.15211  1.0000
  S   S273      1.0  0.26243  0.25814  0.21984  1.0000
  H   H1073     1.0  0.30524  0.39066  0.98144  1.0000
  H   H1074     1.0  0.39361  0.25431  0.13489  1.0000
  H   H1075     1.0  0.25287  0.46756  0.27977  1.0000
  C   C667      1.0  0.26123  0.30324  0.19774  1.0000
  H   H1076     1.0  0.30204  0.39885  0.30470  1.0000
  C   C668      1.0  0.45128  0.24713  0.29531  1.0000
  H   H1077     1.0  0.25945  0.25822  0.13851  1.0000
  C   C669      1.0  0.37394  0.48530  0.40983  1.0000
  H   H1078     1.0  0.30655  0.35509  0.00873  1.0000
  H   H1079     1.0  0.30634  0.38543  0.01163  1.0000
  H   H1080     1.0  0.36274  0.47546  0.40760  1.0000
  H   H1081     1.0  0.26699  0.35443  0.98663  1.0000
  C   C670      1.0  0.42315  0.28032  0.15596  1.0000
  C   C671      1.0  0.26048  0.25768  0.17459  1.0000
  H   H1082     1.0  0.26759  0.42441  0.42220  1.0000
  H   H1083     1.0  0.47433  0.29223  0.01590  1.0000
  Fe  Fe135     1.0  0.47582  0.40471  0.45733  1.0000
  C   C672      1.0  0.30685  0.25553  0.02237  1.0000
  H   H1084     1.0  0.30341  0.38930  0.25693  1.0000
  N   N65       1.0  0.28636  0.37983  0.29091  1.0000
  H   H1085     1.0  0.33501  0.43625  0.46105  1.0000
  H   H1086     1.0  0.29583  0.35891  0.28039  1.0000
  H   H1087     1.0  0.26688  0.37547  0.32206  1.0000
  H   H1088     1.0  0.41434  0.27792  0.10291  1.0000
  H   H1089     1.0  0.27104  0.39631  0.30283  1.0000
  C   C673      1.0  0.42292  0.26647  0.43887  1.0000
  C   C674      1.0  0.32299  0.26313  0.00684  1.0000
  C   C675      1.0  0.46034  0.45804  0.45055  1.0000
  Fe  Fe136     1.0  0.27613  0.49130  0.19169  1.0000
  H   H1090     1.0  0.46566  0.33595  0.17156  1.0000
  H   H1091     1.0  0.44423  0.46044  0.41504  1.0000
  H   H1092     1.0  0.43684  0.28804  0.14939  1.0000
  H   H1093     1.0  0.31257  0.38345  0.29443  1.0000
  C   C676      1.0  0.25110  0.25424  0.19776  1.0000
  C   C677      1.0  0.47634  0.34707  0.17217  1.0000
  H   H1094     1.0  0.24765  0.33079  0.19374  1.0000
  S   S274      1.0  0.25911  0.48771  0.16631  1.0000
  N   N66       1.0  0.41686  0.27128  0.13844  1.0000
  H   H1095     1.0  0.25915  0.37731  0.29561  1.0000
  C   C678      1.0  0.24492  0.31736  0.31476  1.0000
  S   S275      1.0  0.25861  0.26587  0.07421  1.0000
  C   C679      1.0  0.24259  0.48982  0.11519  1.0000
  C   C680      1.0  0.39349  0.24972  0.44492  1.0000
  H   H1096     1.0  0.43949  0.47549  0.43256  1.0000
  S   S276      1.0  0.45438  0.38908  0.44498  1.0000
  C   C681      1.0  0.30510  0.25379  0.32518  1.0000
  H   H1097     1.0  0.30552  0.36032  0.97856  1.0000
  C   C682      1.0  0.27014  0.38231  0.30336  1.0000
  H   H1098     1.0  0.47203  0.35919  0.16857  1.0000
  S   S277      1.0  0.29765  0.48421  0.16998  1.0000
  C   C683      1.0  0.25519  0.42597  0.43150  1.0000
  C   C684      1.0  0.29760  0.35571  0.99676  1.0000
  H   H1099     1.0  0.27438  0.26208  0.17074  1.0000
  Fe  Fe137     1.0  0.28149  0.48296  0.14291  1.0000
  H   H1100     1.0  0.46115  0.35426  0.21163  1.0000
  Fe  Fe138     1.0  0.24451  0.27824  0.29384  1.0000
  H   H1101     1.0  0.32456  0.27446  0.99310  1.0000
  H   H1102     1.0  0.23852  0.35428  0.33164  1.0000
  N   N67       1.0  0.41076  0.24902  0.44848  1.0000
  C   C685      1.0  0.24327  0.34284  0.33122  1.0000
  H   H1103     1.0  0.28066  0.35275  0.30795  1.0000
  H   H1104     1.0  0.44030  0.27343  0.00428  1.0000
  C   C686      1.0  0.27494  0.36774  0.98583  1.0000
  H   H1105     1.0  0.28942  0.39425  0.00339  1.0000
  H   H1106     1.0  0.26237  0.48013  0.05030  1.0000
  H   H1107     1.0  0.38583  0.48119  0.40417  1.0000
  H   H1108     1.0  0.42251  0.27091  0.17237  1.0000
  C   C687      1.0  0.44353  0.25083  0.07050  1.0000
  H   H1109     1.0  0.42197  0.25717  0.29585  1.0000
  C   C688      1.0  0.25308  0.33808  0.34700  1.0000
  Fe  Fe139     1.0  0.47864  0.29078  0.12191  1.0000
  C   C689      1.0  0.25441  0.31241  0.33085  1.0000
  H   H1110     1.0  0.41879  0.27648  0.44752  1.0000
  N   N68       1.0  0.25102  0.41711  0.45644  1.0000
  C   C690      1.0  0.42742  0.25925  0.13305  1.0000
  H   H1111     1.0  0.43612  0.26655  0.44118  1.0000
  H   H1112     1.0  0.44120  0.42457  0.46558  1.0000
  H   H1113     1.0  0.25233  0.48295  0.11971  1.0000
  S   S278      1.0  0.24753  0.44964  0.03490  1.0000
  Fe  Fe140     1.0  0.39324  0.49244  0.46660  1.0000
  Fe  Fe141     1.0  0.24265  0.42604  0.01809  1.0000
  H   H1114     1.0  0.45757  0.25518  0.99015  1.0000
  H   H1115     1.0  0.42842  0.25079  0.26915  1.0000
  H   H1116     1.0  0.39722  0.25127  0.16400  1.0000
  H   H1117     1.0  0.44433  0.28832  0.97675  1.0000
  H   H1118     1.0  0.31542  0.49128  0.25996  1.0000
  C   C691      1.0  0.24713  0.30889  0.23356  1.0000
  H   H1119     1.0  0.42666  0.24918  0.14882  1.0000
  H   H1120     1.0  0.24508  0.42051  0.42258  1.0000
  H   H1121     1.0  0.36601  0.49401  0.36843  1.0000
  S   S279      1.0  0.24233  0.25664  0.32454  1.0000
  H   H1122     1.0  0.29486  0.49469  0.25756  1.0000
  H   H1123     1.0  0.30214  0.49417  0.21512  1.0000
  H   H1124     1.0  0.24648  0.49576  0.09613  1.0000
  H   H1125     1.0  0.48709  0.27902  0.00406  1.0000
  H   H1126     1.0  0.34039  0.24685  0.34506  1.0000
  H   H1127     1.0  0.42633  0.47247  0.76585  1.0000
  S   S280      1.0  0.44125  0.28414  0.93239  1.0000
  S   S281      1.0  0.39308  0.48952  0.50452  1.0000
  S   S282      1.0  0.35134  0.46991  0.51428  1.0000
  H   H1128     1.0  0.28109  0.44795  0.94939  1.0000
  Fe  Fe142     1.0  0.37656  0.46252  0.50806  1.0000
  S   S283      1.0  0.38497  0.44239  0.53119  1.0000
  C   C692      1.0  0.47815  0.29820  0.96891  1.0000
  C   C693      1.0  0.40521  0.40268  0.49659  1.0000
  C   C694      1.0  0.42292  0.48302  0.80609  1.0000
  H   H1129     1.0  0.48197  0.29943  0.64485  1.0000
  C   C695      1.0  0.38554  0.42112  0.50015  1.0000
  H   H1130     1.0  0.41382  0.45028  0.77782  1.0000
  S   S284      1.0  0.40399  0.45402  0.88591  1.0000
  Fe  Fe143     1.0  0.46866  0.37808  0.50326  1.0000
  H   H1131     1.0  0.47525  0.36110  0.58778  1.0000
  S   S285      1.0  0.47058  0.39434  0.84751  1.0000
  S   S286      1.0  0.44728  0.36529  0.90896  1.0000
  H   H1132     1.0  0.43330  0.45841  0.78690  1.0000
  S   S287      1.0  0.47674  0.44618  0.83884  1.0000
  C   C696      1.0  0.40618  0.45325  0.82234  1.0000
  C   C697      1.0  0.42177  0.46192  0.78206  1.0000
  S   S288      1.0  0.44641  0.36033  0.49417  1.0000
  Fe  Fe144     1.0  0.48252  0.42077  0.85306  1.0000
  H   H1133     1.0  0.43515  0.44557  0.48934  1.0000
  Fe  Fe145     1.0  0.43915  0.38488  0.48133  1.0000
  C   C698      1.0  0.42461  0.45247  0.87345  1.0000
  C   C699      1.0  0.42855  0.43638  0.87856  1.0000
  C   C700      1.0  0.44459  0.43441  0.86821  1.0000
  C   C701      1.0  0.45673  0.44851  0.85248  1.0000
  C   C702      1.0  0.45287  0.46466  0.84740  1.0000
  C   C703      1.0  0.43687  0.46668  0.85801  1.0000
  H   H1134     1.0  0.41912  0.42535  0.89054  1.0000
  H   H1135     1.0  0.44745  0.42191  0.87227  1.0000
  H   H1136     1.0  0.46228  0.47564  0.83535  1.0000
  H   H1137     1.0  0.39900  0.45717  0.83729  1.0000
  H   H1138     1.0  0.45059  0.35567  0.86157  1.0000
  C   C704      1.0  0.41304  0.40947  0.51319  1.0000
  C   C705      1.0  0.40660  0.42151  0.52401  1.0000
  C   C706      1.0  0.39288  0.42740  0.51743  1.0000
  H   H1139     1.0  0.42370  0.40509  0.51813  1.0000
  H   H1140     1.0  0.41231  0.42642  0.53734  1.0000
  C   C707      1.0  0.44301  0.30670  0.92701  1.0000
  C   C708      1.0  0.42913  0.31313  0.93509  1.0000
  C   C709      1.0  0.43072  0.33117  0.92978  1.0000
  C   C710      1.0  0.44621  0.34289  0.91660  1.0000
  C   C711      1.0  0.46025  0.33648  0.90908  1.0000
  C   C712      1.0  0.45860  0.31842  0.91412  1.0000
  H   H1141     1.0  0.26691  0.41465  0.90869  1.0000
  S   S289      1.0  0.38099  0.48796  0.90585  1.0000
  H   H1142     1.0  0.47229  0.34543  0.89922  1.0000
  H   H1143     1.0  0.46942  0.31350  0.90798  1.0000
  C   C713      1.0  0.29921  0.43336  0.93986  1.0000
  C   C714      1.0  0.29377  0.44860  0.93974  1.0000
  C   C715      1.0  0.30470  0.46477  0.92684  1.0000
  C   C716      1.0  0.32127  0.46590  0.91429  1.0000
  C   C717      1.0  0.32687  0.45073  0.91474  1.0000
  C   C718      1.0  0.31579  0.43448  0.92733  1.0000
  H   H1144     1.0  0.30030  0.47646  0.92659  1.0000
  H   H1145     1.0  0.33962  0.45147  0.90512  1.0000
  H   H1146     1.0  0.32011  0.42276  0.92730  1.0000
  H   H1147     1.0  0.38901  0.47647  0.80798  1.0000
  C   C719      1.0  0.39150  0.40854  0.49007  1.0000
  H   H1148     1.0  0.44164  0.32253  0.82595  1.0000
  H   H1149     1.0  0.25883  0.42296  0.93297  1.0000
  S   S290      1.0  0.33441  0.48652  0.89817  1.0000
  H   H1150     1.0  0.24605  0.45155  0.90458  1.0000
  H   H1151     1.0  0.47995  0.35294  0.85305  1.0000
  H   H1152     1.0  0.26209  0.41842  0.48639  1.0000
  H   H1153     1.0  0.46055  0.26805  0.96130  1.0000
  Fe  Fe146     1.0  0.36271  0.49068  0.88250  1.0000
  H   H1154     1.0  0.38803  0.46075  0.79012  1.0000
  H   H1155     1.0  0.34945  0.48510  0.94152  1.0000
  C   C720      1.0  0.34205  0.49162  0.95301  1.0000
  S   S291      1.0  0.45977  0.40228  0.49296  1.0000
  H   H1156     1.0  0.44229  0.33259  0.87246  1.0000
  H   H1157     1.0  0.46333  0.32050  0.81986  1.0000
  S   S292      1.0  0.48050  0.41144  0.89136  1.0000
  S   S293      1.0  0.39309  0.25220  0.95225  1.0000
  H   H1158     1.0  0.47409  0.35242  0.80349  1.0000
  H   H1159     1.0  0.47274  0.32969  0.86359  1.0000
  N   N69       1.0  0.24471  0.42443  0.90592  1.0000
  S   S294      1.0  0.47172  0.36905  0.54047  1.0000
  H   H1160     1.0  0.41598  0.48729  0.82084  1.0000
  H   H1161     1.0  0.41705  0.30420  0.94503  1.0000
  Fe  Fe147     1.0  0.39572  0.47879  0.87727  1.0000
  H   H1162     1.0  0.25743  0.43991  0.87153  1.0000
  H   H1163     1.0  0.27064  0.43780  0.90606  1.0000
  H   H1164     1.0  0.37484  0.42548  0.49519  1.0000
  H   H1165     1.0  0.41730  0.44937  0.82803  1.0000
  H   H1166     1.0  0.45242  0.35457  0.80962  1.0000
  Fe  Fe148     1.0  0.47091  0.38464  0.88506  1.0000
  Fe  Fe149     1.0  0.41811  0.26605  0.95920  1.0000
  C   C721      1.0  0.44612  0.34316  0.85629  1.0000
  H   H1167     1.0  0.41982  0.33606  0.93569  1.0000
  H   H1168     1.0  0.47320  0.29996  0.95264  1.0000
  H   H1169     1.0  0.38538  0.40325  0.47729  1.0000
  H   H1170     1.0  0.40056  0.48301  0.77827  1.0000
  H   H1171     1.0  0.45009  0.31232  0.84892  1.0000
  C   C722      1.0  0.39671  0.47206  0.79404  1.0000
  H   H1172     1.0  0.43475  0.48030  0.81082  1.0000
  S   S295      1.0  0.37598  0.47906  0.85548  1.0000
  H   H1173     1.0  0.32927  0.49015  0.94838  1.0000
  N   N70       1.0  0.41188  0.46755  0.80114  1.0000
  H   H1174     1.0  0.43402  0.47918  0.85425  1.0000
  H   H1175     1.0  0.46882  0.36725  0.82066  1.0000
  H   H1176     1.0  0.43432  0.34366  0.84967  1.0000
  H   H1177     1.0  0.40545  0.25303  0.48338  1.0000
  H   H1178     1.0  0.33990  0.48423  0.97131  1.0000
  H   H1179     1.0  0.33058  0.48629  0.62918  1.0000
  H   H1180     1.0  0.30482  0.48368  0.61127  1.0000
  N   N71       1.0  0.41971  0.36412  0.56344  1.0000
  C   C723      1.0  0.42760  0.34934  0.56324  1.0000
  C   C724      1.0  0.43341  0.38064  0.55745  1.0000
  C   C725      1.0  0.40903  0.36208  0.58695  1.0000
  C   C726      1.0  0.40884  0.36443  0.54612  1.0000
  H   H1181     1.0  0.41771  0.33659  0.56805  1.0000
  H   H1182     1.0  0.43634  0.34903  0.57556  1.0000
  H   H1183     1.0  0.43558  0.35036  0.54568  1.0000
  H   H1184     1.0  0.42800  0.39210  0.55780  1.0000
  H   H1185     1.0  0.44222  0.38068  0.56971  1.0000
  H   H1186     1.0  0.44154  0.38266  0.53971  1.0000
  H   H1187     1.0  0.40291  0.37304  0.58770  1.0000
  H   H1188     1.0  0.41690  0.36182  0.60038  1.0000
  H   H1189     1.0  0.39856  0.34972  0.59206  1.0000
  H   H1190     1.0  0.40259  0.37536  0.54582  1.0000
  H   H1191     1.0  0.39848  0.35209  0.54985  1.0000
  H   H1192     1.0  0.41654  0.36617  0.52813  1.0000
  N   N72       1.0  0.45964  0.34024  0.83861  1.0000
  H   H1193     1.0  0.25348  0.41676  0.87424  1.0000
  C   C727      1.0  0.47524  0.34044  0.84792  1.0000
  C   C728      1.0  0.46385  0.35419  0.81716  1.0000
  C   C729      1.0  0.45339  0.32313  0.83307  1.0000
  C   C730      1.0  0.26098  0.42499  0.91366  1.0000
  S   S296      1.0  0.28538  0.41272  0.95483  1.0000
  H   H1194     1.0  0.39755  0.44143  0.81949  1.0000
  H   H1195     1.0  0.24651  0.39115  0.47713  1.0000
  S   S297      1.0  0.41177  0.38635  0.48438  1.0000
  S   S298      1.0  0.48455  0.26554  0.63927  1.0000
  H   H1196     1.0  0.30373  0.48893  0.65166  1.0000
  H   H1197     1.0  0.42691  0.49433  0.79080  1.0000
  C   C731      1.0  0.24807  0.42711  0.88024  1.0000
  H   H1198     1.0  0.28227  0.37342  0.96746  1.0000
  H   H1199     1.0  0.48599  0.33907  0.83469  1.0000
  H   H1200     1.0  0.47892  0.26473  0.97225  1.0000
  H   H1201     1.0  0.41763  0.44763  0.47567  1.0000
  H   H1202     1.0  0.43384  0.46674  0.47541  1.0000
  C   C732      1.0  0.23742  0.43835  0.91314  1.0000
  C   C733      1.0  0.43169  0.45287  0.47404  1.0000
  H   H1203     1.0  0.23739  0.39638  0.91182  1.0000
  Fe  Fe150     1.0  0.35492  0.47464  0.47501  1.0000
  C   C734      1.0  0.48691  0.37072  0.57784  1.0000
  Fe  Fe151     1.0  0.27138  0.51596  0.14977  1.0000
  S   S299      1.0  0.29319  0.51121  0.12504  1.0000
  N   N73       1.0  0.25153  0.68367  0.18744  1.0000
  Fe  Fe152     1.0  0.30749  0.51317  0.15409  1.0000
  S   S300      1.0  0.33635  0.52529  0.15017  1.0000
  S   S301      1.0  0.28658  0.52026  0.17712  1.0000
  S   S302      1.0  0.44893  0.58505  0.41177  1.0000
  Fe  Fe153     1.0  0.47147  0.58722  0.00935  1.0000
  H   H1204     1.0  0.46879  0.61528  0.04218  1.0000
  H   H1205     1.0  0.43806  0.62327  0.25553  1.0000
  S   S303      1.0  0.47872  0.58060  0.35684  1.0000
  S   S304      1.0  0.45598  0.57781  0.04678  1.0000
  Fe  Fe154     1.0  0.44147  0.61764  0.15800  1.0000
  S   S305      1.0  0.41836  0.62851  0.16089  1.0000
  S   S306      1.0  0.45904  0.62450  0.12182  1.0000
  Fe  Fe155     1.0  0.43418  0.60302  0.21034  1.0000
  S   S307      1.0  0.41034  0.61252  0.21649  1.0000
  S   S308      1.0  0.43993  0.58805  0.24288  1.0000
  Fe  Fe156     1.0  0.40421  0.60255  0.18520  1.0000
  S   S309      1.0  0.37608  0.59071  0.18420  1.0000
  Fe  Fe157     1.0  0.42645  0.63753  0.19173  1.0000
  S   S310      1.0  0.42408  0.66297  0.20211  1.0000
  S   S311      1.0  0.42698  0.59111  0.18058  1.0000
  S   S312      1.0  0.45062  0.62855  0.18734  1.0000
  H   H1206     1.0  0.37108  0.53621  0.15546  1.0000
  C   C735      1.0  0.44113  0.68228  0.19571  1.0000
  C   C736      1.0  0.43863  0.69639  0.20553  1.0000
  C   C737      1.0  0.45214  0.71163  0.20175  1.0000
  C   C738      1.0  0.46824  0.71298  0.18779  1.0000
  C   C739      1.0  0.47068  0.69889  0.17795  1.0000
  C   C740      1.0  0.45723  0.68363  0.18185  1.0000
  H   H1207     1.0  0.42625  0.69541  0.21644  1.0000
  H   H1208     1.0  0.45020  0.72215  0.20994  1.0000
  C   C741      1.0  0.45406  0.64566  0.27872  1.0000
  H   H1209     1.0  0.45936  0.67291  0.17416  1.0000
  C   C742      1.0  0.45693  0.59101  0.06734  1.0000
  C   C743      1.0  0.45049  0.58313  0.09117  1.0000
  C   C744      1.0  0.45113  0.59320  0.10809  1.0000
  C   C745      1.0  0.45804  0.61128  0.10126  1.0000
  C   C746      1.0  0.46456  0.61914  0.07744  1.0000
  C   C747      1.0  0.46394  0.60906  0.06050  1.0000
  H   H1210     1.0  0.44511  0.56914  0.09656  1.0000
  H   H1211     1.0  0.44642  0.58698  0.12644  1.0000
  C   C748      1.0  0.37709  0.50335  0.37175  1.0000
  S   S313      1.0  0.48585  0.73171  0.18218  1.0000
  C   C749      1.0  0.46562  0.59523  0.29434  1.0000
  C   C750      1.0  0.45360  0.58879  0.28165  1.0000
  C   C751      1.0  0.45557  0.59646  0.25796  1.0000
  C   C752      1.0  0.46994  0.61040  0.24690  1.0000
  S   S314      1.0  0.48552  0.56851  0.99649  1.0000
  H   H1212     1.0  0.46373  0.58939  0.31267  1.0000
  H   H1213     1.0  0.44257  0.57793  0.29033  1.0000
  H   H1214     1.0  0.47180  0.61615  0.22854  1.0000
  C   C753      1.0  0.44012  0.56230  0.41885  1.0000
  C   C754      1.0  0.45016  0.55118  0.41276  1.0000
  C   C755      1.0  0.44308  0.53304  0.41880  1.0000
  C   C756      1.0  0.42603  0.52589  0.43135  1.0000
  C   C757      1.0  0.41595  0.53697  0.43758  1.0000
  C   C758      1.0  0.42295  0.55516  0.43110  1.0000
  H   H1215     1.0  0.46346  0.55652  0.40352  1.0000
  H   H1216     1.0  0.45095  0.52456  0.41391  1.0000
  H   H1217     1.0  0.40276  0.53158  0.44719  1.0000
  H   H1218     1.0  0.41511  0.56377  0.43554  1.0000
  C   C759      1.0  0.34693  0.54310  0.16075  1.0000
  C   C760      1.0  0.33852  0.55507  0.16832  1.0000
  C   C761      1.0  0.34759  0.56931  0.17583  1.0000
  C   C762      1.0  0.36515  0.57179  0.17600  1.0000
  C   C763      1.0  0.37348  0.55957  0.16895  1.0000
  C   C764      1.0  0.36444  0.54543  0.16118  1.0000
  H   H1219     1.0  0.32513  0.55361  0.16781  1.0000
  H   H1220     1.0  0.34101  0.57868  0.18118  1.0000
  H   H1221     1.0  0.38688  0.56105  0.16931  1.0000
  N   N74       1.0  0.40183  0.59952  0.10911  1.0000
  C   C765      1.0  0.38583  0.58633  0.10993  1.0000
  C   C766      1.0  0.41387  0.60270  0.08627  1.0000
  C   C767      1.0  0.40995  0.59312  0.12789  1.0000
  C   C768      1.0  0.39773  0.61596  0.11251  1.0000
  H   H1222     1.0  0.37624  0.58414  0.12662  1.0000
  H   H1223     1.0  0.38831  0.57350  0.10852  1.0000
  H   H1224     1.0  0.37964  0.59045  0.09551  1.0000
  H   H1225     1.0  0.42610  0.61257  0.08516  1.0000
  H   H1226     1.0  0.41734  0.59056  0.08326  1.0000
  H   H1227     1.0  0.40824  0.60757  0.07160  1.0000
  H   H1228     1.0  0.41327  0.58072  0.12604  1.0000
  H   H1229     1.0  0.40130  0.59067  0.14534  1.0000
  H   H1230     1.0  0.42196  0.60286  0.12789  1.0000
  H   H1231     1.0  0.38896  0.61401  0.12989  1.0000
  H   H1232     1.0  0.39134  0.62111  0.09889  1.0000
  N   N75       1.0  0.44628  0.64988  0.25862  1.0000
  H   H1233     1.0  0.36665  0.50486  0.97447  1.0000
  H   H1234     1.0  0.34028  0.52984  0.21182  1.0000
  S   S315      1.0  0.46018  0.59138  0.97765  1.0000
  C   C769      1.0  0.47989  0.60929  0.28335  1.0000
  H   H1235     1.0  0.42862  0.66150  0.27733  1.0000
  H   H1236     1.0  0.30639  0.53393  0.23841  1.0000
  H   H1237     1.0  0.38879  0.51564  0.41941  1.0000
  S   S316      1.0  0.41763  0.50309  0.43871  1.0000
  H   H1238     1.0  0.34220  0.51245  0.23364  1.0000
  N   N76       1.0  0.31619  0.51228  0.23163  1.0000
  H   H1239     1.0  0.30922  0.50960  0.26880  1.0000
  H   H1240     1.0  0.33525  0.53055  0.24204  1.0000
  C   C770      1.0  0.45968  0.65476  0.23672  1.0000
  H   H1241     1.0  0.40958  0.62623  0.11179  1.0000
  H   H1242     1.0  0.42259  0.63010  0.27452  1.0000
  S   S317      1.0  0.25180  0.73417  0.15911  1.0000
  H   H1243     1.0  0.31136  0.53313  0.20816  1.0000
  N   N77       1.0  0.37503  0.50304  0.39690  1.0000
  H   H1244     1.0  0.44443  0.64239  0.29559  1.0000
  C   C771      1.0  0.43865  0.66462  0.26089  1.0000
  H   H1245     1.0  0.43480  0.54784  0.47195  1.0000
  S   S318      1.0  0.25583  0.53352  0.13519  1.0000
  Fe  Fe158     1.0  0.47515  0.59304  0.38736  1.0000
  C   C772      1.0  0.33427  0.52168  0.22976  1.0000
  H   H1246     1.0  0.25906  0.69516  0.21523  1.0000
  H   H1247     1.0  0.34748  0.49846  0.40358  1.0000
  H   H1248     1.0  0.27796  0.68645  0.17161  1.0000
  C   C773      1.0  0.43271  0.63450  0.25806  1.0000
  H   H1249     1.0  0.46998  0.63313  0.07204  1.0000
  H   H1250     1.0  0.26393  0.66507  0.17535  1.0000
  H   H1251     1.0  0.44858  0.67661  0.26076  1.0000
  H   H1252     1.0  0.37796  0.51656  0.36145  1.0000
  H   H1253     1.0  0.42628  0.63745  0.24346  1.0000
  H   H1254     1.0  0.26669  0.70938  0.18660  1.0000
  H   H1255     1.0  0.46632  0.64432  0.23497  1.0000
  H   H1256     1.0  0.23958  0.66542  0.22034  1.0000
  H   H1257     1.0  0.35928  0.52115  0.39602  1.0000
  H   H1258     1.0  0.45937  0.63419  0.27801  1.0000
  C   C774      1.0  0.43529  0.73472  0.15852  1.0000
  C   C775      1.0  0.48207  0.61672  0.25951  1.0000
  H   H1259     1.0  0.29242  0.51825  0.22755  1.0000
  S   S319      1.0  0.36996  0.50263  0.46953  1.0000
  C   C776      1.0  0.38999  0.51555  0.40061  1.0000
  H   H1260     1.0  0.32159  0.50847  0.19667  1.0000
  H   H1261     1.0  0.35719  0.50792  0.42443  1.0000
  H   H1262     1.0  0.45403  0.65697  0.22120  1.0000
  H   H1263     1.0  0.48310  0.69978  0.16720  1.0000
  C   C777      1.0  0.30616  0.52499  0.22623  1.0000
  H   H1264     1.0  0.40225  0.51213  0.39473  1.0000
  H   H1265     1.0  0.43240  0.66789  0.24620  1.0000
  C   C778      1.0  0.26662  0.67649  0.18348  1.0000
  H   H1266     1.0  0.38901  0.49970  0.36476  1.0000
  H   H1267     1.0  0.24462  0.70471  0.20114  1.0000
  H   H1268     1.0  0.46480  0.65675  0.27917  1.0000
  H   H1269     1.0  0.27036  0.67216  0.20013  1.0000
  C   C779      1.0  0.30865  0.50152  0.25555  1.0000
  C   C780      1.0  0.35908  0.50792  0.40550  1.0000
  H   H1270     1.0  0.46963  0.66694  0.23578  1.0000
  H   H1271     1.0  0.48533  0.51733  0.99073  1.0000
  H   H1272     1.0  0.42954  0.73272  0.14336  1.0000
  H   H1273     1.0  0.24357  0.67816  0.15641  1.0000
  H   H1274     1.0  0.25788  0.69957  0.15251  1.0000
  C   C781      1.0  0.25567  0.69882  0.19814  1.0000
  H   H1275     1.0  0.39133  0.52912  0.39108  1.0000
  H   H1276     1.0  0.42617  0.72604  0.17455  1.0000
  C   C782      1.0  0.24709  0.68925  0.16489  1.0000
  H   H1277     1.0  0.44724  0.73013  0.15644  1.0000
  C   C783      1.0  0.31561  0.50088  0.21483  1.0000
  H   H1278     1.0  0.24340  0.50065  0.12445  1.0000
  H   H1279     1.0  0.33842  0.51170  0.98390  1.0000
  H   H1280     1.0  0.48702  0.57593  0.07086  1.0000
  Fe  Fe159     1.0  0.45687  0.70621  0.69832  1.0000
  S   S320      1.0  0.45771  0.68162  0.72238  1.0000
  S   S321      1.0  0.43557  0.71999  0.70126  1.0000
  Fe  Fe160     1.0  0.46361  0.67185  0.68956  1.0000
  S   S322      1.0  0.45443  0.64379  0.68543  1.0000
  S   S323      1.0  0.46063  0.69541  0.66614  1.0000
  H   H1281     1.0  0.47439  0.68569  0.58829  1.0000
  H   H1282     1.0  0.26928  0.73218  0.71560  1.0000
  Fe  Fe161     1.0  0.37256  0.57697  0.66155  1.0000
  S   S324      1.0  0.38209  0.55354  0.67346  1.0000
  S   S325      1.0  0.38531  0.60576  0.65925  1.0000
  Fe  Fe162     1.0  0.33733  0.55396  0.65844  1.0000
  S   S326      1.0  0.34430  0.52918  0.67101  1.0000
  S   S327      1.0  0.31328  0.55461  0.64418  1.0000
  Fe  Fe163     1.0  0.35568  0.54258  0.69690  1.0000
  S   S328      1.0  0.34889  0.53118  0.73599  1.0000
  Fe  Fe164     1.0  0.36993  0.54227  0.64634  1.0000
  S   S329      1.0  0.38165  0.52597  0.62401  1.0000
  S   S330      1.0  0.34657  0.56647  0.68628  1.0000
  S   S331      1.0  0.36258  0.56656  0.63242  1.0000
  H   H1283     1.0  0.47381  0.65577  0.58107  1.0000
  C   C784      1.0  0.39045  0.60173  0.73130  1.0000
  H   H1284     1.0  0.47707  0.63946  0.60333  1.0000
  N   N78       1.0  0.47225  0.61023  0.89156  1.0000
  Fe  Fe165     1.0  0.39606  0.51494  0.88607  1.0000
  H   H1285     1.0  0.44126  0.60869  0.68131  1.0000
  S   S332      1.0  0.40176  0.53585  0.90660  1.0000
  N   N79       1.0  0.47678  0.66386  0.61284  1.0000
  S   S333      1.0  0.37701  0.51825  0.86386  1.0000
  C   C785      1.0  0.45127  0.54871  0.93345  1.0000
  C   C786      1.0  0.43822  0.55689  0.93901  1.0000
  C   C787      1.0  0.42315  0.55286  0.93056  1.0000
  C   C788      1.0  0.42093  0.54052  0.91671  1.0000
  C   C789      1.0  0.43393  0.53227  0.91126  1.0000
  C   C790      1.0  0.44906  0.53640  0.91956  1.0000
  S   S334      1.0  0.24526  0.73018  0.68542  1.0000
  H   H1286     1.0  0.41310  0.55923  0.93493  1.0000
  H   H1287     1.0  0.43234  0.52274  0.90062  1.0000
  H   H1288     1.0  0.45908  0.52999  0.91522  1.0000
  C   C791      1.0  0.36351  0.52638  0.75313  1.0000
  C   C792      1.0  0.38074  0.52789  0.74319  1.0000
  C   C793      1.0  0.39207  0.52461  0.75760  1.0000
  C   C794      1.0  0.38626  0.51966  0.78200  1.0000
  C   C795      1.0  0.36902  0.51801  0.79192  1.0000
  C   C796      1.0  0.35771  0.52138  0.77753  1.0000
  H   H1289     1.0  0.38532  0.53151  0.72441  1.0000
  H   H1290     1.0  0.40539  0.52586  0.74980  1.0000
  C   C797      1.0  0.46713  0.62660  0.88546  1.0000
  N   N80       1.0  0.35111  0.51020  0.94989  1.0000
  C   C798      1.0  0.29281  0.53942  0.65467  1.0000
  C   C799      1.0  0.28079  0.53875  0.64046  1.0000
  C   C800      1.0  0.26434  0.52688  0.64816  1.0000
  C   C801      1.0  0.25964  0.51583  0.67043  1.0000
  C   C802      1.0  0.27174  0.51641  0.68451  1.0000
  C   C803      1.0  0.28826  0.52808  0.67667  1.0000
  H   H1291     1.0  0.28426  0.54740  0.62333  1.0000
  H   H1292     1.0  0.25296  0.54756  0.67890  1.0000
  H   H1293     1.0  0.48228  0.64673  0.64084  1.0000
  H   H1294     1.0  0.29738  0.52846  0.68780  1.0000
  C   C804      1.0  0.36791  0.51985  0.55407  1.0000
  C   C805      1.0  0.36490  0.53384  0.56370  1.0000
  C   C806      1.0  0.36907  0.53588  0.58510  1.0000
  C   C807      1.0  0.37652  0.52406  0.59690  1.0000
  C   C808      1.0  0.37978  0.51020  0.58709  1.0000
  C   C809      1.0  0.37533  0.50799  0.56587  1.0000
  H   H1295     1.0  0.34440  0.52014  0.78536  1.0000
  H   H1296     1.0  0.36662  0.54667  0.59238  1.0000
  H   H1297     1.0  0.45982  0.74081  0.66278  1.0000
  H   H1298     1.0  0.43828  0.56352  0.51380  1.0000
  C   C810      1.0  0.43478  0.63330  0.67909  1.0000
  C   C811      1.0  0.42253  0.64220  0.67430  1.0000
  C   C812      1.0  0.40754  0.63356  0.66817  1.0000
  C   C813      1.0  0.40453  0.61592  0.66691  1.0000
  C   C814      1.0  0.41675  0.60700  0.67181  1.0000
  C   C815      1.0  0.43178  0.61566  0.67784  1.0000
  H   H1299     1.0  0.42465  0.65578  0.67514  1.0000
  H   H1300     1.0  0.39818  0.64061  0.66439  1.0000
  H   H1301     1.0  0.41478  0.59352  0.67057  1.0000
  S   S335      1.0  0.36262  0.51802  0.52704  1.0000
  H   H1302     1.0  0.35927  0.54315  0.55459  1.0000
  C   C816      1.0  0.32390  0.52592  0.60991  1.0000
  C   C817      1.0  0.48077  0.65369  0.59529  1.0000
  H   H1303     1.0  0.35936  0.58756  0.72395  1.0000
  H   H1304     1.0  0.40107  0.57607  0.71467  1.0000
  H   H1305     1.0  0.40608  0.52031  0.52826  1.0000
  C   C818      1.0  0.36802  0.51156  0.95603  1.0000
  H   H1306     1.0  0.36145  0.51351  0.91335  1.0000
  N   N81       1.0  0.41807  0.54543  0.50514  1.0000
  H   H1307     1.0  0.30257  0.73024  0.66571  1.0000
  H   H1308     1.0  0.38552  0.50098  0.59614  1.0000
  H   H1309     1.0  0.48016  0.69084  0.61442  1.0000
  H   H1310     1.0  0.38459  0.58168  0.70097  1.0000
  C   C819      1.0  0.36251  0.58108  0.74012  1.0000
  Fe  Fe166     1.0  0.47616  0.57459  0.96368  1.0000
  H   H1311     1.0  0.46166  0.73973  0.72071  1.0000
  H   H1312     1.0  0.33180  0.53296  0.62043  1.0000
  H   H1313     1.0  0.45377  0.64425  0.63198  1.0000
  H   H1314     1.0  0.42385  0.52580  0.48721  1.0000
  S   S336      1.0  0.47056  0.55363  0.94327  1.0000
  H   H1315     1.0  0.45389  0.59575  0.87572  1.0000
  C   C820      1.0  0.28203  0.73196  0.71959  1.0000
  N   N82       1.0  0.31860  0.50688  0.61968  1.0000
  H   H1316     1.0  0.27960  0.72421  0.73775  1.0000
  H   H1317     1.0  0.38065  0.57961  0.77363  1.0000
  Fe  Fe167     1.0  0.39195  0.50645  0.83888  1.0000
  H   H1318     1.0  0.25532  0.52634  0.63692  1.0000
  C   C821      1.0  0.43979  0.74139  0.70591  1.0000
  H   H1319     1.0  0.46534  0.60906  0.92825  1.0000
  H   H1320     1.0  0.46702  0.58875  0.92109  1.0000
  H   H1321     1.0  0.45475  0.66561  0.63702  1.0000
  H   H1322     1.0  0.38668  0.60811  0.74571  1.0000
  C   C822      1.0  0.43010  0.53894  0.48959  1.0000
  C   C823      1.0  0.42659  0.56327  0.50661  1.0000
  H   H1323     1.0  0.39290  0.54986  0.50752  1.0000
  H   H1324     1.0  0.40466  0.60369  0.72796  1.0000
  S   S337      1.0  0.48483  0.71960  0.69355  1.0000
  H   H1325     1.0  0.35519  0.56707  0.74426  1.0000
  Fe  Fe168     1.0  0.48625  0.69438  0.71531  1.0000
  H   H1326     1.0  0.25993  0.56573  0.65421  1.0000
  H   H1327     1.0  0.29527  0.50704  0.64265  1.0000
  H   H1328     1.0  0.45303  0.62401  0.88661  1.0000
  C   C824      1.0  0.40259  0.54574  0.49571  1.0000
  C   C825      1.0  0.45811  0.65839  0.62336  1.0000
  C   C826      1.0  0.46794  0.59907  0.87517  1.0000
  H   H1329     1.0  0.23785  0.55251  0.63516  1.0000
  H   H1330     1.0  0.47485  0.60566  0.85687  1.0000
  H   H1331     1.0  0.30735  0.71693  0.72650  1.0000
  H   H1332     1.0  0.45041  0.66070  0.61009  1.0000
  C   C827      1.0  0.48196  0.68265  0.60147  1.0000
  H   H1333     1.0  0.28007  0.69810  0.72150  1.0000
  H   H1334     1.0  0.37626  0.50561  0.94476  1.0000
  H   H1335     1.0  0.47387  0.63406  0.86743  1.0000
  H   H1336     1.0  0.28890  0.74559  0.71928  1.0000
  H   H1337     1.0  0.34124  0.51851  0.91989  1.0000
  H   H1338     1.0  0.44162  0.53789  0.49664  1.0000
  C   C828      1.0  0.35369  0.51935  0.92531  1.0000
  C   C829      1.0  0.28247  0.70656  0.70377  1.0000
  H   H1339     1.0  0.35756  0.58690  0.75458  1.0000
  H   H1340     1.0  0.34241  0.50256  0.60351  1.0000
  H   H1341     1.0  0.32782  0.51750  0.96094  1.0000
  H   H1342     1.0  0.36071  0.53336  0.92214  1.0000
  C   C830      1.0  0.41295  0.53378  0.52868  1.0000
  H   H1343     1.0  0.38767  0.60888  0.71526  1.0000
  H   H1344     1.0  0.41781  0.56859  0.51810  1.0000
  H   H1345     1.0  0.37800  0.55985  0.76324  1.0000
  S   S338      1.0  0.40089  0.51567  0.79948  1.0000
  C   C831      1.0  0.38705  0.57513  0.71756  1.0000
  H   H1346     1.0  0.34197  0.50739  0.63175  1.0000
  H   H1347     1.0  0.29742  0.50271  0.60276  1.0000
  H   H1348     1.0  0.38009  0.56113  0.72101  1.0000
  H   H1349     1.0  0.47398  0.73611  0.63990  1.0000
  N   N83       1.0  0.29209  0.72462  0.70272  1.0000
  C   C832      1.0  0.38484  0.57401  0.75857  1.0000
  H   H1350     1.0  0.26968  0.70620  0.69946  1.0000
  C   C833      1.0  0.46293  0.60080  0.91553  1.0000
  N   N84       1.0  0.38122  0.58301  0.73694  1.0000
  C   C834      1.0  0.29489  0.73530  0.67890  1.0000
  H   H1351     1.0  0.39883  0.57498  0.75663  1.0000
  H   H1352     1.0  0.31388  0.51027  0.65492  1.0000
  H   H1353     1.0  0.42427  0.53292  0.53632  1.0000
  H   H1354     1.0  0.31639  0.73832  0.70779  1.0000
  C   C835      1.0  0.48630  0.66068  0.63132  1.0000
  H   H1355     1.0  0.36438  0.51417  0.81069  1.0000
  C   C836      1.0  0.30892  0.72475  0.70858  1.0000
  H   H1356     1.0  0.26824  0.50788  0.70174  1.0000
  H   H1357     1.0  0.31257  0.53137  0.60964  1.0000
  H   H1358     1.0  0.31723  0.50063  0.58642  1.0000
  H   H1359     1.0  0.47036  0.63531  0.89752  1.0000
  H   H1360     1.0  0.33171  0.52924  0.59174  1.0000
  S   S339      1.0  0.41257  0.50556  0.85937  1.0000
  S   S340      1.0  0.48398  0.63890  0.94009  1.0000
  H   H1361     1.0  0.31691  0.71933  0.69619  1.0000
  H   H1362     1.0  0.43965  0.56618  0.94999  1.0000
  H   H1363     1.0  0.39612  0.53259  0.49363  1.0000
  H   H1364     1.0  0.28244  0.73539  0.67384  1.0000
  H   H1365     1.0  0.40411  0.53848  0.54098  1.0000
  H   H1366     1.0  0.47144  0.58651  0.87963  1.0000
  Fe  Fe169     1.0  0.48427  0.61349  0.96284  1.0000
  H   H1367     1.0  0.28959  0.70060  0.69114  1.0000
  H   H1368     1.0  0.37532  0.52542  0.95352  1.0000
  H   H1369     1.0  0.25409  0.56917  0.68315  1.0000
  C   C837      1.0  0.33404  0.50049  0.62113  1.0000
  H   H1370     1.0  0.44878  0.59687  0.91708  1.0000
  C   C838      1.0  0.25070  0.56029  0.67145  1.0000
  H   H1371     1.0  0.40582  0.55488  0.47835  1.0000
  H   H1372     1.0  0.48386  0.66843  0.64459  1.0000
  C   C839      1.0  0.30908  0.49807  0.60436  1.0000
  C   C840      1.0  0.30740  0.50308  0.64326  1.0000
  C   C841      1.0  0.34065  0.51831  0.96519  1.0000
  H   H1373     1.0  0.34711  0.53234  0.96324  1.0000
  H   H1374     1.0  0.43068  0.57239  0.48907  1.0000
  H   H1375     1.0  0.25101  0.74554  0.58013  1.0000
  H   H1376     1.0  0.25579  0.74119  0.60853  1.0000
  S   S341      1.0  0.23873  0.50157  0.68193  1.0000
  H   H1377     1.0  0.23864  0.58204  0.64315  1.0000
  C   C842      1.0  0.46724  0.74598  0.64448  1.0000
  Fe  Fe170     1.0  0.36825  0.49715  0.50819  1.0000
  H   H1378     1.0  0.37768  0.49713  0.55866  1.0000
  H   H1379     1.0  0.46595  0.95610  0.32138  1.0000
  H   H1380     1.0  0.40639  0.91148  0.13666  1.0000
  H   H1381     1.0  0.28193  0.88565  0.45644  1.0000
  S   S342      1.0  0.39025  0.92130  0.99757  1.0000
  C   C843      1.0  0.48460  0.98354  0.43355  1.0000
  Fe  Fe171     1.0  0.36199  0.90793  0.01179  1.0000
  S   S343      1.0  0.34929  0.89780  0.05035  1.0000
  S   S344      1.0  0.35302  0.92959  0.99239  1.0000
  Fe  Fe172     1.0  0.35200  0.83707  0.20181  1.0000
  S   S345      1.0  0.34057  0.80873  0.21946  1.0000
  S   S346      1.0  0.35373  0.86112  0.21743  1.0000
  Fe  Fe173     1.0  0.35956  0.82885  0.15358  1.0000
  S   S347      1.0  0.34922  0.79984  0.16742  1.0000
  S   S348      1.0  0.37162  0.83961  0.11513  1.0000
  Fe  Fe174     1.0  0.32734  0.80640  0.18949  1.0000
  S   S349      1.0  0.29828  0.79533  0.19371  1.0000
  Fe  Fe175     1.0  0.36334  0.80437  0.19588  1.0000
  S   S350      1.0  0.37916  0.78686  0.20992  1.0000
  S   S351      1.0  0.33698  0.83526  0.17366  1.0000
  S   S352      1.0  0.37540  0.83281  0.18020  1.0000
  H   H1382     1.0  0.46820  0.93283  0.38039  1.0000
  C   C844      1.0  0.39208  0.90697  0.14115  1.0000
  Fe  Fe176     1.0  0.36620  0.90761  0.35717  1.0000
  S   S353      1.0  0.37803  0.91927  0.31897  1.0000
  S   S354      1.0  0.33741  0.90446  0.36727  1.0000
  Fe  Fe177     1.0  0.40011  0.90169  0.36687  1.0000
  S   S355      1.0  0.41397  0.91274  0.32952  1.0000
  S   S356      1.0  0.41560  0.88935  0.38949  1.0000
  Fe  Fe178     1.0  0.40022  0.93370  0.33180  1.0000
  S   S357      1.0  0.41554  0.96170  0.31523  1.0000
  Fe  Fe179     1.0  0.39056  0.89716  0.32048  1.0000
  S   S358      1.0  0.39207  0.87662  0.29887  1.0000
  S   S359      1.0  0.38753  0.92356  0.36991  1.0000
  S   S360      1.0  0.37752  0.88476  0.35794  1.0000
  Fe  Fe180     1.0  0.47959  0.79372  0.18147  1.0000
  S   S361      1.0  0.45999  0.80662  0.16851  1.0000
  S   S362      1.0  0.47547  0.77200  0.21304  1.0000
  C   C845      1.0  0.44615  0.92440  0.42878  1.0000
  C   C846      1.0  0.43238  0.92885  0.42036  1.0000
  C   C847      1.0  0.42284  0.91809  0.40855  1.0000
  C   C848      1.0  0.42680  0.90258  0.40542  1.0000
  C   C849      1.0  0.44024  0.89781  0.41445  1.0000
  C   C850      1.0  0.44997  0.90874  0.42603  1.0000
  H   H1383     1.0  0.42921  0.94084  0.42272  1.0000
  H   H1384     1.0  0.41242  0.92181  0.40190  1.0000
  H   H1385     1.0  0.44335  0.88579  0.41216  1.0000
  H   H1386     1.0  0.46057  0.90520  0.43245  1.0000
  C   C851      1.0  0.40173  0.79298  0.19899  1.0000
  C   C852      1.0  0.41213  0.78466  0.21084  1.0000
  C   C853      1.0  0.43010  0.78906  0.20222  1.0000
  C   C854      1.0  0.43775  0.80161  0.18139  1.0000
  C   C855      1.0  0.42734  0.80991  0.16960  1.0000
  C   C856      1.0  0.40944  0.80567  0.17837  1.0000
  H   H1387     1.0  0.40626  0.77490  0.22688  1.0000
  H   H1388     1.0  0.43798  0.78277  0.21170  1.0000
  H   H1389     1.0  0.43313  0.81959  0.15346  1.0000
  H   H1390     1.0  0.40158  0.81205  0.16895  1.0000
  C   C857      1.0  0.36451  0.86521  0.24002  1.0000
  C   C858      1.0  0.36502  0.88082  0.24758  1.0000
  C   C859      1.0  0.37354  0.88463  0.26536  1.0000
  C   C860      1.0  0.38153  0.87276  0.27595  1.0000
  C   C861      1.0  0.38107  0.85718  0.26832  1.0000
  C   C862      1.0  0.37261  0.85340  0.25047  1.0000
  H   H1391     1.0  0.35891  0.89010  0.23949  1.0000
  H   H1392     1.0  0.37411  0.89685  0.27063  1.0000
  H   H1393     1.0  0.38729  0.84793  0.27623  1.0000
  H   H1394     1.0  0.37238  0.84136  0.24479  1.0000
  C   C863      1.0  0.28569  0.77783  0.18452  1.0000
  C   C864      1.0  0.26764  0.77455  0.19007  1.0000
  H   H1395     1.0  0.38756  0.91051  0.12486  1.0000
  S   S363      1.0  0.45902  0.93961  0.44063  1.0000
  Fe  Fe181     1.0  0.38107  0.94187  0.97639  1.0000
  C   C865      1.0  0.29308  0.76763  0.17124  1.0000
  H   H1396     1.0  0.26176  0.78238  0.20026  1.0000
  H   H1397     1.0  0.33516  0.82143  0.12614  1.0000
  H   H1398     1.0  0.30692  0.76993  0.16684  1.0000
  H   H1399     1.0  0.38725  0.91450  0.15358  1.0000
  H   H1400     1.0  0.36175  0.88577  0.14129  1.0000
  H   H1401     1.0  0.32655  0.80227  0.11635  1.0000
  C   C866      1.0  0.39861  0.97932  0.00584  1.0000
  H   H1402     1.0  0.32852  0.83953  0.09288  1.0000
  H   H1403     1.0  0.39037  0.96647  0.01450  1.0000
  C   C867      1.0  0.35584  0.88182  0.06818  1.0000
  C   C868      1.0  0.34833  0.87678  0.09223  1.0000
  C   C869      1.0  0.35312  0.86392  0.10689  1.0000
  C   C870      1.0  0.36538  0.85594  0.09752  1.0000
  C   C871      1.0  0.37294  0.86104  0.07354  1.0000
  C   C872      1.0  0.36821  0.87394  0.05889  1.0000
  H   H1404     1.0  0.33878  0.88289  0.09948  1.0000
  H   H1405     1.0  0.34733  0.86018  0.12535  1.0000
  H   H1406     1.0  0.38248  0.85495  0.06620  1.0000
  H   H1407     1.0  0.37408  0.87775  0.04041  1.0000
  C   C873      1.0  0.41915  0.97057  0.35706  1.0000
  C   C874      1.0  0.30284  0.86557  0.43290  1.0000
  C   C875      1.0  0.29567  0.87380  0.41598  1.0000
  C   C876      1.0  0.30644  0.88563  0.39583  1.0000
  C   C877      1.0  0.32441  0.88915  0.39239  1.0000
  C   C878      1.0  0.33158  0.88060  0.40900  1.0000
  C   C879      1.0  0.32081  0.86888  0.42923  1.0000
  H   H1408     1.0  0.28184  0.87107  0.41847  1.0000
  H   H1409     1.0  0.30083  0.89211  0.38291  1.0000
  H   H1410     1.0  0.34542  0.88324  0.40651  1.0000
  H   H1411     1.0  0.32642  0.86251  0.44226  1.0000
  C   C880      1.0  0.45952  0.96027  0.33660  1.0000
  H   H1412     1.0  0.30791  0.90643  0.43080  1.0000
  C   C881      1.0  0.39231  0.88385  0.17281  1.0000
  H   H1413     1.0  0.31941  0.82050  0.08320  1.0000
  H   H1414     1.0  0.38800  0.88123  0.11777  1.0000
  H   H1415     1.0  0.31107  0.91761  0.45367  1.0000
  H   H1416     1.0  0.31855  0.80378  0.14568  1.0000
  C   C882      1.0  0.30586  0.83127  0.13454  1.0000
  H   H1417     1.0  0.28007  0.90243  0.41824  1.0000
  C   C883      1.0  0.32310  0.81134  0.12726  1.0000
  C   C884      1.0  0.39261  0.87853  0.13417  1.0000
  H   H1418     1.0  0.40265  0.98665  0.03789  1.0000
  N   N85       1.0  0.43899  0.75319  0.16018  1.0000
  N   N86       1.0  0.30987  0.81932  0.11955  1.0000
  H   H1419     1.0  0.24322  0.75893  0.18702  1.0000
  H   H1420     1.0  0.43742  0.74755  0.19720  1.0000
  C   C885      1.0  0.27896  0.89649  0.46416  1.0000
  H   H1421     1.0  0.29572  0.83734  0.12949  1.0000
  C   C886      1.0  0.42316  0.97592  0.33273  1.0000
  H   H1422     1.0  0.38786  0.86965  0.18101  1.0000
  C   C887      1.0  0.25706  0.76125  0.18256  1.0000
  H   H1423     1.0  0.43586  0.83555  0.34309  1.0000
  C   C888      1.0  0.29409  0.80546  0.12150  1.0000
  H   H1424     1.0  0.45846  0.75049  0.17936  1.0000
  C   C889      1.0  0.48529  0.96423  0.35177  1.0000
  H   H1425     1.0  0.45015  0.76895  0.18175  1.0000
  H   H1426     1.0  0.41066  0.95785  0.36554  1.0000
  H   H1427     1.0  0.38739  0.89061  0.18623  1.0000
  C   C890      1.0  0.31643  0.82917  0.09501  1.0000
  H   H1428     1.0  0.40692  0.88217  0.12942  1.0000
  S   S364      1.0  0.28987  0.85149  0.45909  1.0000
  N   N87       1.0  0.46661  0.95584  0.35732  1.0000
  H   H1429     1.0  0.40337  0.85290  0.37702  1.0000
  H   H1430     1.0  0.44759  0.85695  0.34418  1.0000
  H   H1431     1.0  0.41356  0.83528  0.37768  1.0000
  H   H1432     1.0  0.41064  0.84786  0.31558  1.0000
  C   C891      1.0  0.36701  0.88264  0.15700  1.0000
  H   H1433     1.0  0.44141  0.85318  0.31774  1.0000
  H   H1434     1.0  0.36155  0.88916  0.17035  1.0000
  H   H1435     1.0  0.42544  0.85673  0.37854  1.0000
  C   C892      1.0  0.28161  0.92741  0.45839  1.0000
  N   N88       1.0  0.33281  0.86653  0.32650  1.0000
  C   C893      1.0  0.33410  0.85454  0.31059  1.0000
  C   C894      1.0  0.31498  0.86814  0.33211  1.0000
  C   C895      1.0  0.34456  0.88388  0.31503  1.0000
  C   C896      1.0  0.33767  0.85966  0.34828  1.0000
  H   H1436     1.0  0.34747  0.85319  0.30600  1.0000
  H   H1437     1.0  0.33065  0.85938  0.29386  1.0000
  H   H1438     1.0  0.32543  0.84127  0.31861  1.0000
  H   H1439     1.0  0.31096  0.87352  0.31612  1.0000
  H   H1440     1.0  0.30570  0.85528  0.34075  1.0000
  H   H1441     1.0  0.31371  0.87705  0.34425  1.0000
  H   H1442     1.0  0.34313  0.89360  0.32576  1.0000
  H   H1443     1.0  0.34208  0.88900  0.29775  1.0000
  H   H1444     1.0  0.35822  0.88341  0.31224  1.0000
  H   H1445     1.0  0.32876  0.84680  0.35781  1.0000
  H   H1446     1.0  0.33735  0.86869  0.36036  1.0000
  H   H1447     1.0  0.35093  0.85794  0.34465  1.0000
  H   H1448     1.0  0.28858  0.79813  0.13993  1.0000
  H   H1449     1.0  0.28393  0.81095  0.11533  1.0000
  N   N89       1.0  0.42074  0.85411  0.34485  1.0000
  C   C897      1.0  0.42305  0.87299  0.33654  1.0000
  C   C898      1.0  0.40721  0.84439  0.33505  1.0000
  C   C899      1.0  0.41555  0.84946  0.37063  1.0000
  C   C900      1.0  0.43712  0.84974  0.33713  1.0000
  H   H1450     1.0  0.43301  0.88087  0.34373  1.0000
  H   H1451     1.0  0.41087  0.87654  0.34220  1.0000
  H   H1452     1.0  0.42677  0.87709  0.31713  1.0000
  H   H1453     1.0  0.40507  0.83004  0.34081  1.0000
  H   H1454     1.0  0.39473  0.84754  0.34044  1.0000
  H   H1455     1.0  0.44387  0.95633  0.38108  1.0000
  C   C901      1.0  0.46355  0.93671  0.36430  1.0000
  H   H1456     1.0  0.40661  0.88765  0.16927  1.0000
  H   H1457     1.0  0.29670  0.79581  0.11108  1.0000
  H   H1458     1.0  0.42333  0.97722  0.38934  1.0000
  C   C902      1.0  0.42634  0.98161  0.37052  1.0000
  H   H1459     1.0  0.30995  0.92945  0.42572  1.0000
  C   C903      1.0  0.26443  0.75108  0.16925  1.0000
  H   H1460     1.0  0.46022  0.97661  0.37224  1.0000
  H   H1461     1.0  0.36209  0.86837  0.16442  1.0000
  S   S365      1.0  0.24470  0.85938  0.44814  1.0000
  Fe  Fe182     1.0  0.47942  0.93403  0.45981  1.0000
  H   H1462     1.0  0.28692  0.94048  0.44630  1.0000
  H   H1463     1.0  0.41351  0.75135  0.17943  1.0000
  H   H1464     1.0  0.48343  0.97949  0.41694  1.0000
  C   C904      1.0  0.27732  0.91282  0.42713  1.0000
  H   H1465     1.0  0.31742  0.84200  0.13331  1.0000
  H   H1466     1.0  0.30694  0.83569  0.08869  1.0000
  H   H1467     1.0  0.30117  0.82426  0.15326  1.0000
  H   H1468     1.0  0.38825  0.86415  0.14116  1.0000
  C   C905      1.0  0.45802  0.96218  0.37671  1.0000
  H   H1469     1.0  0.42538  0.77286  0.16341  1.0000
  H   H1470     1.0  0.47224  0.97693  0.44646  1.0000
  N   N90       1.0  0.38602  0.88800  0.15128  1.0000
  C   C906      1.0  0.30446  0.91692  0.43897  1.0000
  H   H1471     1.0  0.47019  0.93148  0.35034  1.0000
  H   H1472     1.0  0.46273  0.95877  0.39284  1.0000
  N   N91       1.0  0.28562  0.91343  0.44714  1.0000
  H   H1473     1.0  0.44604  0.76336  0.12301  1.0000
  S   S366      1.0  0.35956  0.89204  0.98451  1.0000
  H   H1474     1.0  0.45463  0.77823  0.13975  1.0000
  H   H1475     1.0  0.44550  0.95376  0.34009  1.0000
  C   C907      1.0  0.45135  0.76422  0.13878  1.0000
  H   H1476     1.0  0.44959  0.92999  0.36806  1.0000
  Fe  Fe183     1.0  0.26115  0.84826  0.46978  1.0000
  C   C908      1.0  0.43419  0.99256  0.32204  1.0000
  H   H1477     1.0  0.26305  0.90999  0.43288  1.0000
  C   C909      1.0  0.28250  0.75438  0.16363  1.0000
  C   C910      1.0  0.44655  0.75509  0.18055  1.0000
  C   C911      1.0  0.42288  0.75881  0.16291  1.0000
  H   H1478     1.0  0.28193  0.92542  0.41393  1.0000
  H   H1479     1.0  0.26475  0.89331  0.47019  1.0000
  H   H1480     1.0  0.46362  0.76026  0.13615  1.0000
  H   H1481     1.0  0.41652  0.75710  0.14819  1.0000
  C   C912      1.0  0.40205  0.98464  0.98151  1.0000
  H   H1482     1.0  0.46102  0.97457  0.33133  1.0000
  C   C913      1.0  0.40558  0.99079  0.01906  1.0000
  H   H1483     1.0  0.47376  0.91011  0.97415  1.0000
  H   H1484     1.0  0.26745  0.92545  0.46397  1.0000
  H   H1485     1.0  0.28838  0.74662  0.15332  1.0000
  H   H1486     1.0  0.46218  0.77156  0.66595  1.0000
  S   S367      1.0  0.28530  0.86264  0.84147  1.0000
  Fe  Fe184     1.0  0.27437  0.85409  0.88010  1.0000
  S   S368      1.0  0.29103  0.85233  0.90695  1.0000
  C   C914      1.0  0.26092  0.81223  0.59625  1.0000
  C   C915      1.0  0.24969  0.90593  0.51145  1.0000
  Fe  Fe185     1.0  0.25035  0.97202  0.54875  1.0000
  S   S369      1.0  0.25840  0.94757  0.54180  1.0000
  C   C916      1.0  0.25186  0.81022  0.75226  1.0000
  H   H1487     1.0  0.25230  0.98054  0.73392  1.0000
  S   S370      1.0  0.27339  0.82021  0.81599  1.0000
  Fe  Fe186     1.0  0.44099  0.85521  0.70855  1.0000
  S   S371      1.0  0.46014  0.84302  0.69054  1.0000
  S   S372      1.0  0.44393  0.87261  0.73487  1.0000
  Fe  Fe187     1.0  0.41137  0.83535  0.68923  1.0000
  S   S373      1.0  0.42845  0.82119  0.67099  1.0000
  S   S374      1.0  0.38508  0.83699  0.68207  1.0000
  Fe  Fe188     1.0  0.43908  0.81801  0.70323  1.0000
  S   S375      1.0  0.44882  0.79610  0.72090  1.0000
  Fe  Fe189     1.0  0.44819  0.84714  0.65958  1.0000
  S   S376      1.0  0.46214  0.85196  0.62165  1.0000
  S   S377      1.0  0.42030  0.82994  0.72279  1.0000
  S   S378      1.0  0.43077  0.86162  0.67624  1.0000
  S   S379      1.0  0.46457  0.94086  0.86620  1.0000
  C   C917      1.0  0.33062  0.83690  0.72325  1.0000
  S   S380      1.0  0.33536  0.91628  0.93835  1.0000
  Fe  Fe190     1.0  0.23734  0.84410  0.87368  1.0000
  H   H1488     1.0  0.34048  0.82959  0.72562  1.0000
  S   S381      1.0  0.38035  0.92852  0.94649  1.0000
  S   S382      1.0  0.24436  0.78233  0.67479  1.0000
  H   H1489     1.0  0.29566  0.80225  0.74571  1.0000
  S   S383      1.0  0.40563  0.89350  0.95168  1.0000
  Fe  Fe191     1.0  0.38717  0.90705  0.96876  1.0000
  Fe  Fe192     1.0  0.27035  0.79523  0.65097  1.0000
  S   S384      1.0  0.28044  0.77168  0.65850  1.0000
  S   S385      1.0  0.27628  0.80847  0.61262  1.0000
  Fe  Fe193     1.0  0.25682  0.79280  0.70228  1.0000
  S   S386      1.0  0.26533  0.76872  0.71359  1.0000
  Fe  Fe194     1.0  0.29003  0.78264  0.68717  1.0000
  S   S387      1.0  0.31454  0.77854  0.69792  1.0000
  H   H1490     1.0  0.35496  0.99253  0.89350  1.0000
  S   S388      1.0  0.28216  0.80738  0.67762  1.0000
  C   C918      1.0  0.27109  0.93696  0.80632  1.0000
  C   C919      1.0  0.44789  0.92737  0.88929  1.0000
  C   C920      1.0  0.44498  0.90922  0.89442  1.0000
  C   C921      1.0  0.43185  0.89889  0.91350  1.0000
  C   C922      1.0  0.42174  0.90667  0.92764  1.0000
  C   C923      1.0  0.42459  0.92480  0.92239  1.0000
  C   C924      1.0  0.43752  0.93509  0.90315  1.0000
  H   H1491     1.0  0.45279  0.90318  0.88362  1.0000
  H   H1492     1.0  0.42959  0.88485  0.91738  1.0000
  H   H1493     1.0  0.41707  0.93096  0.93337  1.0000
  H   H1494     1.0  0.43977  0.94914  0.89928  1.0000
  C   C925      1.0  0.36602  0.82017  0.68564  1.0000
  C   C926      1.0  0.36373  0.80319  0.69830  1.0000
  C   C927      1.0  0.34797  0.79055  0.70165  1.0000
  C   C928      1.0  0.33439  0.79471  0.69230  1.0000
  C   C929      1.0  0.33677  0.81164  0.67938  1.0000
  C   C930      1.0  0.35249  0.82429  0.67612  1.0000
  H   H1495     1.0  0.37400  0.79984  0.70577  1.0000
  H   H1496     1.0  0.34628  0.77750  0.71168  1.0000
  H   H1497     1.0  0.32649  0.81500  0.67193  1.0000
  H   H1498     1.0  0.35413  0.83738  0.66626  1.0000
  C   C931      1.0  0.46106  0.88090  0.74805  1.0000
  C   C932      1.0  0.47483  0.89534  0.92424  1.0000
  H   H1499     1.0  0.42139  0.88532  0.63528  1.0000
  C   C933      1.0  0.47029  0.89395  0.77945  1.0000
  C   C934      1.0  0.45730  0.88758  0.76803  1.0000
  S   S389      1.0  0.48319  0.95094  0.48554  1.0000
  H   H1500     1.0  0.46717  0.89906  0.79476  1.0000
  H   H1501     1.0  0.44422  0.88788  0.77473  1.0000
  C   C935      1.0  0.46471  0.87171  0.60160  1.0000
  C   C936      1.0  0.26399  0.96026  0.70766  1.0000
  H   H1502     1.0  0.28461  0.89644  0.47980  1.0000
  C   C937      1.0  0.24978  0.96660  0.74285  1.0000
  N   N92       1.0  0.31365  0.82747  0.73871  1.0000
  C   C938      1.0  0.46689  0.88756  0.60851  1.0000
  S   S390      1.0  0.39271  0.97121  0.96415  1.0000
  H   H1503     1.0  0.46068  0.77736  0.63616  1.0000
  H   H1504     1.0  0.28801  0.83069  0.74574  1.0000
  H   H1505     1.0  0.46656  0.88781  0.62664  1.0000
  C   C939      1.0  0.24340  0.80860  0.60662  1.0000
  H   H1506     1.0  0.25821  0.93868  0.76400  1.0000
  C   C940      1.0  0.43212  0.76913  0.70347  1.0000
  C   C941      1.0  0.44550  0.77542  0.71394  1.0000
  H   H1507     1.0  0.35927  0.96459  0.88510  1.0000
  Fe  Fe195     1.0  0.25512  0.75931  0.68407  1.0000
  C   C942      1.0  0.46158  0.83228  0.74907  1.0000
  H   H1508     1.0  0.42372  0.77717  0.69894  1.0000
  H   H1509     1.0  0.24912  0.96605  0.76174  1.0000
  S   S391      1.0  0.24555  0.85279  0.83436  1.0000
  S   S392      1.0  0.25180  0.85810  0.50124  1.0000
  C   C943      1.0  0.26433  0.81629  0.79208  1.0000
  Fe  Fe196     1.0  0.26386  0.87595  0.84068  1.0000
  C   C944      1.0  0.30279  0.87033  0.91587  1.0000
  C   C945      1.0  0.30439  0.88760  0.90484  1.0000
  C   C946      1.0  0.31419  0.90150  0.91217  1.0000
  C   C947      1.0  0.32243  0.89831  0.93064  1.0000
  C   C948      1.0  0.32068  0.88105  0.94184  1.0000
  C   C949      1.0  0.31103  0.86716  0.93435  1.0000
  H   H1510     1.0  0.29810  0.89023  0.89061  1.0000
  H   H1511     1.0  0.31538  0.91479  0.90342  1.0000
  H   H1512     1.0  0.30973  0.85384  0.94311  1.0000
  C   C950      1.0  0.26668  0.80204  0.78261  1.0000
  C   C951      1.0  0.26057  0.79907  0.76270  1.0000
  H   H1513     1.0  0.27340  0.79334  0.79060  1.0000
  H   H1514     1.0  0.26250  0.78809  0.75550  1.0000
  C   C952      1.0  0.26195  0.91961  0.81704  1.0000
  C   C953      1.0  0.26266  0.95038  0.80492  1.0000
  S   S393      1.0  0.47704  0.92323  0.54743  1.0000
  H   H1515     1.0  0.46307  0.85926  0.57270  1.0000
  H   H1516     1.0  0.47976  0.92971  0.91082  1.0000
  H   H1517     1.0  0.26989  0.96371  0.79702  1.0000
  C   C954      1.0  0.25241  0.75098  0.59576  1.0000
  H   H1518     1.0  0.47430  0.88869  0.96996  1.0000
  C   C955      1.0  0.25924  0.94024  0.74487  1.0000
  H   H1519     1.0  0.26585  0.91586  0.53364  1.0000
  H   H1520     1.0  0.33633  0.98057  0.91609  1.0000
  H   H1521     1.0  0.28002  0.82155  0.56384  1.0000
  C   C956      1.0  0.24989  0.93288  0.52519  1.0000
  C   C957      1.0  0.25608  0.91803  0.52425  1.0000
  H   H1522     1.0  0.48105  0.77045  0.60489  1.0000
  H   H1523     1.0  0.45981  0.92115  0.93206  1.0000
  H   H1524     1.0  0.34086  0.95248  0.90805  1.0000
  H   H1525     1.0  0.28339  0.98240  0.72749  1.0000
  H   H1526     1.0  0.26745  0.97415  0.69807  1.0000
  H   H1527     1.0  0.43484  0.82815  0.80130  1.0000
  H   H1528     1.0  0.47081  0.85194  0.77922  1.0000
  C   C958      1.0  0.46923  0.83764  0.78482  1.0000
  H   H1529     1.0  0.47267  0.91555  0.59703  1.0000
  H   H1530     1.0  0.25135  0.95381  0.70449  1.0000
  H   H1531     1.0  0.30665  0.81068  0.71576  1.0000
  C   C959      1.0  0.25470  0.82130  0.55810  1.0000
  H   H1532     1.0  0.45632  0.89709  0.96518  1.0000
  C   C960      1.0  0.47037  0.90325  0.59172  1.0000
  N   N93       1.0  0.35908  0.97184  0.91811  1.0000
  C   C961      1.0  0.24905  0.82418  0.76214  1.0000
  H   H1533     1.0  0.26354  0.76283  0.59022  1.0000
  S   S394      1.0  0.24222  0.82189  0.48309  1.0000
  Fe  Fe197     1.0  0.24183  0.99027  0.58891  1.0000
  H   H1534     1.0  0.46652  0.76953  0.72817  1.0000
  H   H1535     1.0  0.41851  0.74708  0.69217  1.0000
  C   C962      1.0  0.47058  0.90071  0.96302  1.0000
  Fe  Fe198     1.0  0.26623  0.83903  0.83793  1.0000
  H   H1536     1.0  0.45180  0.82509  0.74106  1.0000
  H   H1537     1.0  0.26938  0.93402  0.73823  1.0000
  C   C963      1.0  0.47403  0.92409  0.92977  1.0000
  H   H1538     1.0  0.28009  0.96732  0.75484  1.0000
  C   C964      1.0  0.25540  0.82732  0.78186  1.0000
  C   C965      1.0  0.43949  0.83165  0.78199  1.0000
  H   H1539     1.0  0.25454  0.89457  0.51116  1.0000
  H   H1540     1.0  0.28480  0.94003  0.79921  1.0000
  H   H1541     1.0  0.30467  0.85066  0.73725  1.0000
  C   C966      1.0  0.26649  0.81867  0.57200  1.0000
  H   H1542     1.0  0.38472  0.96910  0.91731  1.0000
  H   H1543     1.0  0.35590  0.97279  0.95440  1.0000
  H   H1544     1.0  0.44445  0.80080  0.77521  1.0000
  C   C967      1.0  0.47810  0.88081  0.73949  1.0000
  H   H1545     1.0  0.42937  0.82454  0.77432  1.0000
  H   H1546     1.0  0.32661  0.87836  0.95640  1.0000
  H   H1547     1.0  0.46637  0.80518  0.77782  1.0000
  H   H1548     1.0  0.40095  0.87072  0.65057  1.0000
  C   C968      1.0  0.30819  0.80992  0.73402  1.0000
  S   S395      1.0  0.48138  0.91003  0.48401  1.0000
  H   H1549     1.0  0.44064  0.84584  0.77606  1.0000
  N   N94       1.0  0.45610  0.82756  0.77477  1.0000
  H   H1550     1.0  0.36127  0.94800  0.90811  1.0000
  H   H1551     1.0  0.35912  0.95285  0.94800  1.0000
  C   C969      1.0  0.46511  0.87155  0.57805  1.0000
  H   H1552     1.0  0.38316  0.98585  0.89415  1.0000
  H   H1553     1.0  0.24229  0.83285  0.75416  1.0000
  C   C970      1.0  0.47140  0.90315  0.56803  1.0000
  H   H1554     1.0  0.27379  0.95420  0.69959  1.0000
  C   C971      1.0  0.35057  0.98585  0.91231  1.0000
  H   H1555     1.0  0.24335  0.78031  0.58231  1.0000
  C   C972      1.0  0.46985  0.77582  0.64760  1.0000
  H   H1556     1.0  0.33873  0.95731  0.94784  1.0000
  H   H1557     1.0  0.44968  0.80445  0.80231  1.0000
  H   H1558     1.0  0.33542  0.85001  0.72673  1.0000
  H   H1559     1.0  0.47392  0.82918  0.74277  1.0000
  H   H1560     1.0  0.40195  0.88927  0.62822  1.0000
  H   H1561     1.0  0.25370  0.83846  0.78882  1.0000
  Fe  Fe199     1.0  0.35291  0.91472  0.96389  1.0000
  C   C973      1.0  0.37793  0.97934  0.91291  1.0000
  S   S396      1.0  0.27298  0.90314  0.81685  1.0000
  C   C974      1.0  0.35496  0.95871  0.90415  1.0000
  C   C975      1.0  0.30089  0.83728  0.73415  1.0000
  H   H1562     1.0  0.31775  0.80229  0.73662  1.0000
  C   C976      1.0  0.35287  0.96339  0.94319  1.0000
  H   H1563     1.0  0.24998  0.77439  0.62186  1.0000
  H   H1564     1.0  0.43311  0.88587  0.59417  1.0000
  S   S397      1.0  0.24426  0.80703  0.72704  1.0000
  H   H1565     1.0  0.30235  0.81874  0.77556  1.0000
  H   H1566     1.0  0.48135  0.87608  0.72389  1.0000
  H   H1567     1.0  0.31884  0.83879  0.76760  1.0000
  H   H1568     1.0  0.32447  0.81850  0.76741  1.0000
  N   N95       1.0  0.47944  0.90828  0.93829  1.0000
  S   S398      1.0  0.25393  0.86866  0.87975  1.0000
  C   C977      1.0  0.24426  0.91577  0.82640  1.0000
  H   H1569     1.0  0.25917  0.82613  0.53940  1.0000
  C   C978      1.0  0.31492  0.82580  0.76336  1.0000
  S   S399      1.0  0.25701  0.82901  0.87682  1.0000
  C   C979      1.0  0.42916  0.75208  0.69971  1.0000
  C   C980      1.0  0.45622  0.76479  0.71991  1.0000
  S   S400      1.0  0.24727  0.99356  0.52135  1.0000
  C   C981      1.0  0.28010  0.96826  0.73603  1.0000
  H   H1570     1.0  0.29929  0.83847  0.71585  1.0000
  H   H1571     1.0  0.32997  0.83882  0.70456  1.0000
  N   N96       1.0  0.37158  0.88839  0.90319  1.0000
  C   C982      1.0  0.38211  0.90667  0.89763  1.0000
  C   C983      1.0  0.35760  0.88708  0.89039  1.0000
  C   C984      1.0  0.36404  0.88277  0.92853  1.0000
  C   C985      1.0  0.38259  0.87707  0.89637  1.0000
  H   H1572     1.0  0.39249  0.90815  0.90751  1.0000
  H   H1573     1.0  0.37412  0.91559  0.90227  1.0000
  H   H1574     1.0  0.38837  0.91127  0.87873  1.0000
  H   H1575     1.0  0.34910  0.87354  0.89460  1.0000
  H   H1576     1.0  0.34921  0.89565  0.89505  1.0000
  H   H1577     1.0  0.36275  0.89100  0.87117  1.0000
  H   H1578     1.0  0.35508  0.86946  0.93329  1.0000
  H   H1579     1.0  0.35671  0.89180  0.93453  1.0000
  H   H1580     1.0  0.37415  0.88254  0.93872  1.0000
  H   H1581     1.0  0.39329  0.87792  0.90576  1.0000
  H   H1582     1.0  0.38852  0.88090  0.87733  1.0000
  H   H1583     1.0  0.37508  0.86315  0.90057  1.0000
  N   N97       1.0  0.40958  0.86819  0.61549  1.0000
  C   C986      1.0  0.41988  0.87945  0.59283  1.0000
  C   C987      1.0  0.41799  0.85444  0.62299  1.0000
  C   C988      1.0  0.39211  0.85996  0.61314  1.0000
  C   C989      1.0  0.40840  0.87886  0.63314  1.0000
  C   C990      1.0  0.24492  0.94647  0.81373  1.0000
  H   H1584     1.0  0.42127  0.87184  0.57912  1.0000
  H   H1585     1.0  0.29067  0.96293  0.72843  1.0000
  H   H1586     1.0  0.41017  0.84511  0.63937  1.0000
  H   H1587     1.0  0.42020  0.84678  0.60952  1.0000
  H   H1588     1.0  0.43067  0.86016  0.62645  1.0000
  H   H1589     1.0  0.38409  0.85143  0.63008  1.0000
  H   H1590     1.0  0.39254  0.85166  0.60014  1.0000
  H   H1591     1.0  0.38533  0.86991  0.60745  1.0000
  C   C991      1.0  0.45404  0.80867  0.78298  1.0000
  H   H1592     1.0  0.46068  0.89087  0.92632  1.0000
  H   H1593     1.0  0.41392  0.88998  0.58653  1.0000
  N   N98       1.0  0.26328  0.95882  0.73285  1.0000
  H   H1594     1.0  0.46784  0.88696  0.54342  1.0000
  N   N99       1.0  0.47948  0.76311  0.64175  1.0000
  C   C992      1.0  0.45351  0.74791  0.71567  1.0000
  H   H1595     1.0  0.47864  0.78891  0.64581  1.0000
  C   C993      1.0  0.46806  0.88720  0.56140  1.0000
  H   H1596     1.0  0.45780  0.74678  0.63330  1.0000
  S   S401      1.0  0.26682  0.99052  0.56567  1.0000
  H   H1597     1.0  0.46566  0.83421  0.80423  1.0000
  H   H1598     1.0  0.48205  0.83527  0.77920  1.0000
  H   H1599     1.0  0.23898  0.80379  0.62531  1.0000
  Fe  Fe200     1.0  0.24737  0.99079  0.79202  1.0000
  H   H1600     1.0  0.35340  0.99592  0.92264  1.0000
  H   H1601     1.0  0.48064  0.90088  0.90532  1.0000
  H   H1602     1.0  0.46326  0.84638  0.74210  1.0000
  H   H1603     1.0  0.48405  0.75681  0.67618  1.0000
  H   H1604     1.0  0.30193  0.74908  0.67753  1.0000
  H   H1605     1.0  0.38152  0.98914  0.92340  1.0000
  H   H1606     1.0  0.24677  0.93267  0.74249  1.0000
  C   C994      1.0  0.23727  0.93553  0.51294  1.0000
  H   H1607     1.0  0.47951  0.88360  0.92936  1.0000
  H   H1608     1.0  0.23754  0.81158  0.83479  1.0000
  H   H1609     1.0  0.47793  0.93445  0.93926  1.0000
  S   S402      1.0  0.48674  0.90319  0.85148  1.0000
  H   H1610     1.0  0.24195  0.75286  0.64028  1.0000
  Fe  Fe201     1.0  0.48717  0.93097  0.85231  1.0000
  C   C995      1.0  0.23905  0.76242  0.62667  1.0000
  H   H1611     1.0  0.28695  0.92777  0.47425  1.0000
  H   H1612     1.0  0.49959  0.14509  0.28845  1.0000
  S   S403      1.0  0.71791  0.13545  0.34150  1.0000
  Fe  Fe202     1.0  0.71292  0.14532  0.37440  1.0000
  S   S404      1.0  0.68766  0.14809  0.39371  1.0000
  C   C996      1.0  0.65803  0.01114  0.36082  1.0000
  S   S405      1.0  0.69809  0.11857  0.00182  1.0000
  C   C997      1.0  0.72027  0.11099  0.08368  1.0000
  Fe  Fe203     1.0  0.70997  0.14577  0.00519  1.0000
  S   S406      1.0  0.70100  0.14863  0.04245  1.0000
  Fe  Fe204     1.0  0.72133  0.02231  0.28689  1.0000
  S   S407      1.0  0.71276  0.04584  0.29638  1.0000
  H   H1613     1.0  0.50357  0.12391  0.29309  1.0000
  S   S408      1.0  0.69881  0.02028  0.04012  1.0000
  H   H1614     1.0  0.71204  0.09777  0.03505  1.0000
  H   H1615     1.0  0.70774  0.13611  0.43286  1.0000
  H   H1616     1.0  0.51595  0.00627  0.42020  1.0000
  Fe  Fe205     1.0  0.52154  0.13617  0.17665  1.0000
  S   S409      1.0  0.54236  0.12537  0.16019  1.0000
  C   C998      1.0  0.52645  0.16334  0.07691  1.0000
  Fe  Fe206     1.0  0.53350  0.16981  0.13865  1.0000
  S   S410      1.0  0.55531  0.16119  0.11950  1.0000
  S   S411      1.0  0.52706  0.19381  0.12003  1.0000
  Fe  Fe207     1.0  0.53596  0.13518  0.12612  1.0000
  S   S412      1.0  0.53495  0.11885  0.09863  1.0000
  Fe  Fe208     1.0  0.55997  0.15227  0.15513  1.0000
  S   S413      1.0  0.58589  0.15175  0.16423  1.0000
  S   S414      1.0  0.51403  0.14436  0.14272  1.0000
  S   S415      1.0  0.53929  0.16255  0.17414  1.0000
  Fe  Fe209     1.0  0.71707  0.20539  0.13162  1.0000
  S   S416      1.0  0.70432  0.22721  0.12993  1.0000
  C   C999      1.0  0.72765  0.07707  0.00444  1.0000
  Fe  Fe210     1.0  0.70391  0.19349  0.18397  1.0000
  S   S417      1.0  0.68991  0.21439  0.18614  1.0000
  S   S418      1.0  0.70094  0.17207  0.21578  1.0000
  Fe  Fe211     1.0  0.68122  0.20788  0.15435  1.0000
  S   S419      1.0  0.65609  0.21122  0.14514  1.0000
  Fe  Fe212     1.0  0.71394  0.23242  0.16163  1.0000
  S   S420      1.0  0.69333  0.18555  0.15379  1.0000
  S   S421      1.0  0.70373  0.00695  0.26851  1.0000
  C   C1000     1.0  0.54283  0.01655  0.46544  1.0000
  C   C1001     1.0  0.60499  0.16875  0.15939  1.0000
  C   C1002     1.0  0.61896  0.16497  0.16813  1.0000
  C   C1003     1.0  0.63459  0.17787  0.16424  1.0000
  C   C1004     1.0  0.63643  0.19471  0.15148  1.0000
  C   C1005     1.0  0.62248  0.19853  0.14278  1.0000
  C   C1006     1.0  0.60683  0.18563  0.14669  1.0000
  H   H1617     1.0  0.61763  0.15195  0.17802  1.0000
  H   H1618     1.0  0.64516  0.17473  0.17115  1.0000
  H   H1619     1.0  0.62375  0.21153  0.13288  1.0000
  H   H1620     1.0  0.59620  0.18870  0.13986  1.0000
  C   C1007     1.0  0.51716  0.11115  0.08652  1.0000
  C   C1008     1.0  0.51971  0.10357  0.06716  1.0000
  H   H1621     1.0  0.50805  0.09139  0.04222  1.0000
  H   H1622     1.0  0.53246  0.10264  0.05983  1.0000
  C   C1009     1.0  0.51583  0.22067  0.16982  1.0000
  C   C1010     1.0  0.52063  0.20799  0.15861  1.0000
  C   C1011     1.0  0.52084  0.20930  0.13491  1.0000
  C   C1012     1.0  0.51608  0.22332  0.12259  1.0000
  C   C1013     1.0  0.50590  0.09718  0.05712  1.0000
  H   H1623     1.0  0.66433  0.00186  0.03243  1.0000
  H   H1624     1.0  0.52429  0.19729  0.16827  1.0000
  S   S422      1.0  0.50069  0.05581  0.42030  1.0000
  H   H1625     1.0  0.64658  0.19512  0.07287  1.0000
  H   H1626     1.0  0.65713  0.00932  0.37995  1.0000
  C   C1014     1.0  0.73182  0.19027  0.05828  1.0000
  C   C1015     1.0  0.50271  0.10924  0.23310  1.0000
  C   C1016     1.0  0.51896  0.11275  0.23827  1.0000
  S   S423      1.0  0.56385  0.10752  0.44175  1.0000
  H   H1627     1.0  0.64902  0.19923  0.10082  1.0000
  H   H1628     1.0  0.54376  0.01933  0.98677  1.0000
  H   H1629     1.0  0.52987  0.12161  0.22548  1.0000
  C   C1017     1.0  0.54651  0.09313  0.43535  1.0000
  C   C1018     1.0  0.53998  0.07600  0.44856  1.0000
  C   C1019     1.0  0.52605  0.06472  0.44353  1.0000
  C   C1020     1.0  0.51856  0.07042  0.42521  1.0000
  C   C1021     1.0  0.52525  0.08747  0.41170  1.0000
  C   C1022     1.0  0.53920  0.09881  0.41680  1.0000
  H   H1630     1.0  0.70143  0.01867  0.34354  1.0000
  H   H1631     1.0  0.52100  0.05153  0.45402  1.0000
  H   H1632     1.0  0.51955  0.09196  0.39756  1.0000
  C   C1023     1.0  0.48869  0.09764  0.24984  1.0000
  H   H1633     1.0  0.50997  0.08195  0.13157  1.0000
  H   H1634     1.0  0.68918  0.03427  0.34555  1.0000
  C   C1024     1.0  0.71088  0.16392  0.05715  1.0000
  C   C1025     1.0  0.72494  0.17812  0.04580  1.0000
  H   H1635     1.0  0.68913  0.01897  0.37145  1.0000
  C   C1026     1.0  0.72464  0.18836  0.08208  1.0000
  C   C1027     1.0  0.71081  0.17395  0.09345  1.0000
  C   C1028     1.0  0.70400  0.16180  0.08106  1.0000
  H   H1636     1.0  0.70548  0.17205  0.11188  1.0000
  H   H1637     1.0  0.69333  0.15068  0.09008  1.0000
  H   H1638     1.0  0.49264  0.15934  0.05057  1.0000
  H   H1639     1.0  0.50083  0.16913  0.10672  1.0000
  H   H1640     1.0  0.64459  0.23872  0.20253  1.0000
  C   C1029     1.0  0.71043  0.04195  0.02622  1.0000
  C   C1030     1.0  0.70116  0.05402  0.01977  1.0000
  C   C1031     1.0  0.70972  0.07148  0.00884  1.0000
  C   C1032     1.0  0.53567  0.01820  0.97368  1.0000
  H   H1641     1.0  0.49962  0.00266  0.46053  1.0000
  H   H1642     1.0  0.68726  0.04983  0.02323  1.0000
  H   H1643     1.0  0.70242  0.08059  0.00382  1.0000
  C   C1033     1.0  0.64789  0.10252  0.44637  1.0000
  C   C1034     1.0  0.66337  0.10004  0.43490  1.0000
  C   C1035     1.0  0.67563  0.11386  0.41850  1.0000
  C   C1036     1.0  0.67244  0.13026  0.41354  1.0000
  C   C1037     1.0  0.65698  0.13277  0.42504  1.0000
  C   C1038     1.0  0.64472  0.11894  0.44142  1.0000
  H   H1644     1.0  0.66586  0.08734  0.43870  1.0000
  H   H1645     1.0  0.68752  0.11182  0.40974  1.0000
  H   H1646     1.0  0.65453  0.14549  0.42137  1.0000
  C   C1039     1.0  0.65500  0.19473  0.08557  1.0000
  C   C1040     1.0  0.71343  0.17456  0.23684  1.0000
  C   C1041     1.0  0.70847  0.16225  0.25826  1.0000
  C   C1042     1.0  0.71831  0.16355  0.27527  1.0000
  H   H1647     1.0  0.49845  0.11790  0.11082  1.0000
  S   S424      1.0  0.49936  0.11912  0.20604  1.0000
  H   H1648     1.0  0.69685  0.15176  0.26177  1.0000
  H   H1649     1.0  0.71423  0.15412  0.29178  1.0000
  H   H1650     1.0  0.54552  0.07145  0.46285  1.0000
  C   C1043     1.0  0.67472  0.01063  0.32353  1.0000
  C   C1044     1.0  0.71368  0.07367  0.31728  1.0000
  C   C1045     1.0  0.72190  0.06076  0.31226  1.0000
  S   S425      1.0  0.71987  0.99855  0.31398  1.0000
  C   C1046     1.0  0.72838  0.04747  0.02166  1.0000
  H   H1651     1.0  0.70191  0.07416  0.31163  1.0000
  H   H1652     1.0  0.70013  0.08882  0.06453  1.0000
  H   H1653     1.0  0.60764  0.12074  0.36873  1.0000
  H   H1654     1.0  0.67454  0.02416  0.31572  1.0000
  N   N100      1.0  0.60787  0.10276  0.39976  1.0000
  C   C1047     1.0  0.61547  0.11209  0.37519  1.0000
  C   C1048     1.0  0.60706  0.11560  0.41446  1.0000
  C   C1049     1.0  0.61867  0.09151  0.40770  1.0000
  C   C1050     1.0  0.59029  0.09194  0.40164  1.0000
  H   H1655     1.0  0.62874  0.12040  0.37315  1.0000
  H   H1656     1.0  0.61626  0.10280  0.36357  1.0000
  H   H1657     1.0  0.60169  0.10898  0.43315  1.0000
  H   H1658     1.0  0.62002  0.12425  0.41310  1.0000
  H   H1659     1.0  0.59858  0.12399  0.40949  1.0000
  H   H1660     1.0  0.61933  0.08141  0.39736  1.0000
  H   H1661     1.0  0.61356  0.08458  0.42636  1.0000
  H   H1662     1.0  0.63207  0.09925  0.40623  1.0000
  H   H1663     1.0  0.59031  0.08210  0.39077  1.0000
  H   H1664     1.0  0.58172  0.10007  0.39611  1.0000
  H   H1665     1.0  0.58409  0.08478  0.41994  1.0000
  H   H1666     1.0  0.67849  0.18050  0.06387  1.0000
  C   C1051     1.0  0.50061  0.11220  0.09587  1.0000
  H   H1667     1.0  0.51799  0.19378  0.07445  1.0000
  H   H1668     1.0  0.69685  0.16783  0.46699  1.0000
  C   C1052     1.0  0.50704  0.09356  0.27709  1.0000
  H   H1669     1.0  0.53369  0.10788  0.26415  1.0000
  Fe  Fe213     1.0  0.48965  0.07137  0.33786  1.0000
  S   S426      1.0  0.63275  0.08477  0.46645  1.0000
  H   H1670     1.0  0.54461  0.02199  0.44701  1.0000
  C   C1053     1.0  0.68907  0.02050  0.35260  1.0000
  H   H1671     1.0  0.65833  0.22739  0.18831  1.0000
  H   H1672     1.0  0.50201  0.18928  0.05769  1.0000
  H   H1673     1.0  0.66704  0.15823  0.07688  1.0000
  C   C1054     1.0  0.52109  0.10494  0.26019  1.0000
  Fe  Fe214     1.0  0.72465  0.11972  0.98287  1.0000
  H   H1674     1.0  0.66759  0.20442  0.07728  1.0000
  N   N101      1.0  0.50036  0.07994  0.16821  1.0000
  C   C1055     1.0  0.70410  0.14186  0.44799  1.0000
  H   H1675     1.0  0.72535  0.08046  0.07515  1.0000
  H   H1676     1.0  0.51625  0.22446  0.10424  1.0000
  H   H1677     1.0  0.63292  0.12100  0.45038  1.0000
  H   H1678     1.0  0.51584  0.21964  0.18811  1.0000
  H   H1679     1.0  0.70214  0.17242  0.42379  1.0000
  C   C1056     1.0  0.50716  0.08037  0.18952  1.0000
  H   H1680     1.0  0.51346  0.06969  0.19351  1.0000
  S   S427      1.0  0.73322  0.20401  0.09727  1.0000
  H   H1681     1.0  0.69058  0.14259  0.44875  1.0000
  H   H1682     1.0  0.53689  0.16664  0.06088  1.0000
  N   N102      1.0  0.71582  0.15925  0.44560  1.0000
  H   H1683     1.0  0.65435  0.01057  0.99624  1.0000
  C   C1057     1.0  0.72056  0.08598  0.32951  1.0000
  H   H1684     1.0  0.72361  0.01724  0.16008  1.0000
  H   H1685     1.0  0.51470  0.16072  0.03802  1.0000
  H   H1686     1.0  0.71401  0.09573  0.33338  1.0000
  N   N103      1.0  0.65721  0.17703  0.09280  1.0000
  C   C1058     1.0  0.64020  0.16463  0.10361  1.0000
  C   C1059     1.0  0.66824  0.17717  0.10990  1.0000
  H   H1687     1.0  0.65766  0.17172  0.05864  1.0000
  H   H1688     1.0  0.63159  0.16398  0.09112  1.0000
  H   H1689     1.0  0.63350  0.16851  0.11896  1.0000
  H   H1690     1.0  0.64136  0.15120  0.10983  1.0000
  H   H1691     1.0  0.67047  0.16412  0.11552  1.0000
  H   H1692     1.0  0.66230  0.18088  0.12584  1.0000
  H   H1693     1.0  0.68102  0.18674  0.10251  1.0000
  H   H1694     1.0  0.71944  0.16584  0.40838  1.0000
  Fe  Fe215     1.0  0.57401  0.09537  0.47159  1.0000
  S   S428      1.0  0.72865  0.21192  0.16165  1.0000
  H   H1695     1.0  0.65726  0.02465  0.35409  1.0000
  H   H1696     1.0  0.50522  0.00762  0.39639  1.0000
  H   H1697     1.0  0.69753  0.00397  0.99831  1.0000
  N   N104      1.0  0.67410  0.00806  0.34880  1.0000
  H   H1698     1.0  0.48926  0.12870  0.27490  1.0000
  S   S429      1.0  0.51028  0.08504  0.30486  1.0000
  C   C1060     1.0  0.70900  0.10083  0.05249  1.0000
  H   H1699     1.0  0.71363  0.12168  0.08241  1.0000
  C   C1061     1.0  0.73359  0.15773  0.44466  1.0000
  H   H1700     1.0  0.73191  0.11547  0.09049  1.0000
  H   H1701     1.0  0.70185  0.11106  0.05092  1.0000
  H   H1702     1.0  0.50247  0.14278  0.06151  1.0000
  C   C1062     1.0  0.49690  0.16190  0.09344  1.0000
  C   C1063     1.0  0.72191  0.00327  0.16438  1.0000
  H   H1703     1.0  0.52356  0.02161  0.98056  1.0000
  H   H1704     1.0  0.54420  0.11204  0.40650  1.0000
  S   S430      1.0  0.73203  0.13447  0.39105  1.0000
  C   C1064     1.0  0.72840  0.18813  0.23246  1.0000
  C   C1065     1.0  0.48741  0.06317  0.17153  1.0000
  C   C1066     1.0  0.68665  0.00740  0.99140  1.0000
  C   C1067     1.0  0.65249  0.23856  0.18543  1.0000
  H   H1705     1.0  0.73563  0.03827  0.02653  1.0000
  H   H1706     1.0  0.64361  0.23559  0.17365  1.0000
  H   H1707     1.0  0.68672  0.00847  0.31405  1.0000
  H   H1708     1.0  0.52096  0.07106  0.15064  1.0000
  S   S431      1.0  0.58453  0.07238  0.46815  1.0000
  H   H1709     1.0  0.72417  0.18424  0.42129  1.0000
  C   C1068     1.0  0.65651  0.99845  0.99120  1.0000
  C   C1069     1.0  0.71537  0.17102  0.42388  1.0000
  H   H1710     1.0  0.50176  0.10723  0.16080  1.0000
  C   C1070     1.0  0.50481  0.15708  0.05469  1.0000
  H   H1711     1.0  0.68530  0.01970  0.99661  1.0000
  H   H1712     1.0  0.71148  0.09950  0.09683  1.0000
  H   H1713     1.0  0.52410  0.19038  0.04560  1.0000
  C   C1071     1.0  0.48949  0.00734  0.45307  1.0000
  S   S432      1.0  0.72760  0.00834  0.20709  1.0000
  Fe  Fe216     1.0  0.72706  0.00305  0.24638  1.0000
  H   H1714     1.0  0.53131  0.17096  0.08928  1.0000
  H   H1715     1.0  0.52433  0.14933  0.08499  1.0000
  H   H1716     1.0  0.51685  0.09293  0.18772  1.0000
  C   C1072     1.0  0.66543  0.17166  0.07216  1.0000
  N   N105      1.0  0.51047  0.16707  0.07171  1.0000
  C   C1073     1.0  0.48933  0.09817  0.06648  1.0000
  C   C1074     1.0  0.51377  0.18595  0.06186  1.0000
  H   H1717     1.0  0.52466  0.09430  0.14514  1.0000
  H   H1718     1.0  0.49679  0.07916  0.20502  1.0000
  H   H1719     1.0  0.49407  0.14773  0.10138  1.0000
  H   H1720     1.0  0.49307  0.05193  0.17507  1.0000
  H   H1721     1.0  0.71697  0.99989  0.13077  1.0000
  C   C1075     1.0  0.51111  0.23472  0.15751  1.0000
  H   H1722     1.0  0.72991  0.13316  0.04147  1.0000
  C   C1076     1.0  0.49343  0.13092  0.29116  1.0000
  H   H1723     1.0  0.49266  0.02174  0.45127  1.0000
  S   S433      1.0  0.73157  0.17140  0.35843  1.0000
  N   N106      1.0  0.72483  0.10669  0.06075  1.0000
  C   C1077     1.0  0.51118  0.23597  0.13384  1.0000
  C   C1078     1.0  0.51458  0.08183  0.14806  1.0000
  C   C1079     1.0  0.49224  0.09443  0.16371  1.0000
  H   H1724     1.0  0.64649  0.00196  0.35826  1.0000
  S   S434      1.0  0.49147  0.04703  0.36139  1.0000
  H   H1725     1.0  0.71877  0.17960  0.46457  1.0000
  C   C1080     1.0  0.49086  0.08973  0.27171  1.0000
  H   H1726     1.0  0.50886  0.02525  0.41100  1.0000
  H   H1727     1.0  0.73449  0.14880  0.46061  1.0000
  C   C1081     1.0  0.71021  0.16647  0.46582  1.0000
  H   H1728     1.0  0.73038  0.17989  0.02740  1.0000
  C   C1082     1.0  0.50539  0.01079  0.41371  1.0000
  H   H1729     1.0  0.73236  0.19764  0.21600  1.0000
  H   H1730     1.0  0.72477  0.12237  0.29645  1.0000
  C   C1083     1.0  0.73371  0.09261  0.06281  1.0000
  H   H1731     1.0  0.49547  0.12051  0.33513  1.0000
  H   H1732     1.0  0.68226  0.24357  0.15493  1.0000
  H   H1733     1.0  0.70417  0.13251  0.46406  1.0000
  S   S435      1.0  0.48834  0.08621  0.36644  1.0000
  C   C1084     1.0  0.73340  0.17700  0.27074  1.0000
  H   H1734     1.0  0.72708  0.10006  0.27338  1.0000
  H   H1735     1.0  0.72464  0.12941  0.25456  1.0000
  N   N107      1.0  0.48862  0.00271  0.43037  1.0000
  H   H1736     1.0  0.66378  0.00132  0.31988  1.0000
  Fe  Fe217     1.0  0.48784  0.06120  0.39020  1.0000
  H   H1737     1.0  0.49061  0.14126  0.33224  1.0000
  C   C1085     1.0  0.73578  0.08552  0.33693  1.0000
  C   C1086     1.0  0.73632  0.12237  0.04385  1.0000
  S   S436      1.0  0.73687  0.14650  0.98745  1.0000
  C   C1087     1.0  0.73695  0.06501  0.01085  1.0000
  C   C1088     1.0  0.73703  0.06020  0.31983  1.0000
  H   H1738     1.0  0.55567  0.04088  0.47243  1.0000
  Fe  Fe218     1.0  0.70864  0.99659  0.05103  1.0000
  H   H1739     1.0  0.65827  0.16678  0.71837  1.0000
  H   H1740     1.0  0.49239  0.11255  0.86501  1.0000
  S   S437      1.0  0.66892  0.12642  0.95508  1.0000
  S   S438      1.0  0.71997  0.12970  0.94761  1.0000
  Fe  Fe219     1.0  0.60719  0.18766  0.64744  1.0000
  S   S439      1.0  0.59680  0.15892  0.65132  1.0000
  S   S440      1.0  0.59220  0.20619  0.63355  1.0000
  Fe  Fe220     1.0  0.64107  0.18401  0.66155  1.0000
  S   S441      1.0  0.63287  0.15472  0.66587  1.0000
  S   S442      1.0  0.66668  0.19328  0.67223  1.0000
  Fe  Fe221     1.0  0.62342  0.15983  0.63273  1.0000
  S   S443      1.0  0.62978  0.14779  0.60156  1.0000
  Fe  Fe222     1.0  0.60704  0.15635  0.68404  1.0000
  S   S444      1.0  0.59022  0.14018  0.71875  1.0000
  S   S445      1.0  0.63361  0.18897  0.62691  1.0000
  S   S446      1.0  0.61547  0.18521  0.68158  1.0000
  H   H1741     1.0  0.67192  0.14569  0.90484  1.0000
  C   C1089     1.0  0.70933  0.17485  0.87365  1.0000
  S   S447      1.0  0.59318  0.07314  0.51944  1.0000
  H   H1742     1.0  0.59917  0.17886  0.54463  1.0000
  N   N108      1.0  0.63815  0.17296  0.74120  1.0000
  S   S448      1.0  0.55840  0.08336  0.50792  1.0000
  H   H1743     1.0  0.70867  0.17484  0.91884  1.0000
  Fe  Fe223     1.0  0.58183  0.09599  0.51987  1.0000
  S   S449      1.0  0.57569  0.10539  0.55351  1.0000
  Fe  Fe224     1.0  0.57065  0.06135  0.50543  1.0000
  S   S450      1.0  0.55533  0.03348  0.52206  1.0000
  H   H1744     1.0  0.48783  0.13887  0.64782  1.0000
  H   H1745     1.0  0.60851  0.19258  0.59805  1.0000
  Fe  Fe225     1.0  0.61587  0.07661  0.87697  1.0000
  S   S451      1.0  0.61256  0.10099  0.85564  1.0000
  S   S452      1.0  0.63954  0.07595  0.89204  1.0000
  Fe  Fe226     1.0  0.58226  0.05362  0.86959  1.0000
  S   S453      1.0  0.57659  0.07650  0.84793  1.0000
  S   S454      1.0  0.56153  0.02774  0.88041  1.0000
  Fe  Fe227     1.0  0.60479  0.08436  0.83081  1.0000
  S   S455      1.0  0.61656  0.09146  0.79189  1.0000
  Fe  Fe228     1.0  0.58471  0.09087  0.87467  1.0000
  S   S456      1.0  0.56918  0.10701  0.89154  1.0000
  S   S457      1.0  0.60997  0.06038  0.85074  1.0000
  S   S458      1.0  0.58852  0.06762  0.89773  1.0000
  C   C1090     1.0  0.60783  0.18482  0.58447  1.0000
  Fe  Fe229     1.0  0.60605  0.08637  0.48210  1.0000
  S   S459      1.0  0.51062  0.18660  0.66885  1.0000
  C   C1091     1.0  0.54921  0.04804  0.95304  1.0000
  C   C1092     1.0  0.54933  0.09381  0.90875  1.0000
  C   C1093     1.0  0.54134  0.09840  0.92866  1.0000
  C   C1094     1.0  0.52601  0.08717  0.94328  1.0000
  C   C1095     1.0  0.51856  0.07153  0.93768  1.0000
  C   C1096     1.0  0.52602  0.06752  0.91707  1.0000
  C   C1097     1.0  0.54150  0.07845  0.90286  1.0000
  H   H1746     1.0  0.54739  0.11030  0.93326  1.0000
  H   H1747     1.0  0.52000  0.05572  0.91227  1.0000
  H   H1748     1.0  0.54743  0.07495  0.88735  1.0000
  Fe  Fe230     1.0  0.49193  0.20247  0.65991  1.0000
  C   C1098     1.0  0.56953  0.20082  0.64360  1.0000
  C   C1099     1.0  0.56020  0.21212  0.63474  1.0000
  C   C1100     1.0  0.54214  0.20806  0.64231  1.0000
  C   C1101     1.0  0.53329  0.19260  0.65877  1.0000
  C   C1102     1.0  0.54260  0.18118  0.66727  1.0000
  C   C1103     1.0  0.56062  0.18528  0.65980  1.0000
  H   H1749     1.0  0.56699  0.22421  0.62225  1.0000
  H   H1750     1.0  0.53512  0.21698  0.63568  1.0000
  H   H1751     1.0  0.53587  0.16923  0.68008  1.0000
  H   H1752     1.0  0.56761  0.17650  0.66688  1.0000
  C   C1104     1.0  0.59772  0.12661  0.73879  1.0000
  C   C1105     1.0  0.61285  0.12170  0.73213  1.0000
  C   C1106     1.0  0.61855  0.11103  0.74867  1.0000
  C   C1107     1.0  0.60927  0.10537  0.77199  1.0000
  C   C1108     1.0  0.59415  0.11029  0.77868  1.0000
  C   C1109     1.0  0.58834  0.12078  0.76206  1.0000
  H   H1753     1.0  0.62006  0.12597  0.71419  1.0000
  H   H1754     1.0  0.63019  0.10711  0.74337  1.0000
  H   H1755     1.0  0.58687  0.10592  0.79658  1.0000
  H   H1756     1.0  0.57659  0.12453  0.76730  1.0000
  C   C1110     1.0  0.61458  0.13565  0.58876  1.0000
  C   C1111     1.0  0.62023  0.13208  0.56693  1.0000
  C   C1112     1.0  0.60853  0.12274  0.55596  1.0000
  C   C1113     1.0  0.59102  0.11689  0.56673  1.0000
  C   C1114     1.0  0.58537  0.12039  0.58862  1.0000
  C   C1115     1.0  0.59709  0.12963  0.59966  1.0000
  H   H1757     1.0  0.63375  0.13657  0.55844  1.0000
  H   H1758     1.0  0.61307  0.12010  0.53915  1.0000
  H   H1759     1.0  0.57187  0.11579  0.59720  1.0000
  H   H1760     1.0  0.59266  0.13188  0.61672  1.0000
  C   C1116     1.0  0.68084  0.21407  0.67021  1.0000
  C   C1117     1.0  0.67761  0.22976  0.66045  1.0000
  H   H1761     1.0  0.65804  0.19624  0.72309  1.0000
  H   H1762     1.0  0.61415  0.17523  0.76034  1.0000
  C   C1118     1.0  0.70760  0.23083  0.67758  1.0000
  C   C1119     1.0  0.69589  0.21475  0.67879  1.0000
  H   H1763     1.0  0.66610  0.22952  0.65383  1.0000
  H   H1764     1.0  0.71904  0.23107  0.68435  1.0000
  H   H1765     1.0  0.69851  0.20271  0.68646  1.0000
  H   H1766     1.0  0.51492  0.12181  0.88652  1.0000
  H   H1767     1.0  0.67466  0.16612  0.88512  1.0000
  H   H1768     1.0  0.49392  0.09049  0.87292  1.0000
  C   C1120     1.0  0.59024  0.17085  0.56120  1.0000
  H   H1769     1.0  0.52037  0.09029  0.95927  1.0000
  H   H1770     1.0  0.70401  0.18622  0.86912  1.0000
  C   C1121     1.0  0.64376  0.19160  0.72906  1.0000
  H   H1771     1.0  0.51933  0.15441  0.60761  1.0000
  H   H1772     1.0  0.58443  0.01882  0.84376  1.0000
  C   C1122     1.0  0.54708  0.02040  0.50365  1.0000
  C   C1123     1.0  0.66116  0.11227  0.93745  1.0000
  C   C1124     1.0  0.64556  0.11282  0.93093  1.0000
  C   C1125     1.0  0.63890  0.10198  0.91679  1.0000
  C   C1126     1.0  0.64773  0.09032  0.90915  1.0000
  C   C1127     1.0  0.66341  0.08986  0.91553  1.0000
  C   C1128     1.0  0.67016  0.10083  0.92951  1.0000
  H   H1773     1.0  0.63848  0.12161  0.93698  1.0000
  H   H1774     1.0  0.62681  0.10245  0.91207  1.0000
  H   H1775     1.0  0.67032  0.08088  0.90972  1.0000
  H   H1776     1.0  0.68217  0.10025  0.93438  1.0000
  H   H1777     1.0  0.64161  0.15645  0.77146  1.0000
  C   C1129     1.0  0.50628  0.15275  0.60384  1.0000
  H   H1778     1.0  0.57718  0.16694  0.55772  1.0000
  H   H1779     1.0  0.65995  0.17443  0.75690  1.0000
  N   N109      1.0  0.59033  0.18045  0.58010  1.0000
  H   H1780     1.0  0.61185  0.17287  0.59066  1.0000
  H   H1781     1.0  0.63814  0.16353  0.70982  1.0000
  H   H1782     1.0  0.63946  0.20001  0.74048  1.0000
  H   H1783     1.0  0.61755  0.19260  0.56848  1.0000
  H   H1784     1.0  0.64144  0.17819  0.77440  1.0000
  H   H1785     1.0  0.56787  0.03337  0.92478  1.0000
  H   H1786     1.0  0.64063  0.14835  0.73399  1.0000
  H   H1787     1.0  0.58503  0.20411  0.58737  1.0000
  H   H1788     1.0  0.59432  0.20553  0.55734  1.0000
  C   C1130     1.0  0.61917  0.16735  0.74861  1.0000
  H   H1789     1.0  0.72038  0.23549  0.59688  1.0000
  N   N110      1.0  0.55988  0.04877  0.58467  1.0000
  C   C1131     1.0  0.54797  0.04036  0.60755  1.0000
  C   C1132     1.0  0.55031  0.05600  0.56831  1.0000
  C   C1133     1.0  0.56742  0.03568  0.57533  1.0000
  C   C1134     1.0  0.57375  0.06302  0.58743  1.0000
  H   H1790     1.0  0.55475  0.03475  0.62035  1.0000
  H   H1791     1.0  0.53736  0.02956  0.60598  1.0000
  H   H1792     1.0  0.54200  0.04988  0.61501  1.0000
  H   H1793     1.0  0.55890  0.06217  0.55088  1.0000
  H   H1794     1.0  0.53976  0.04565  0.56564  1.0000
  H   H1795     1.0  0.54471  0.06621  0.57440  1.0000
  H   H1796     1.0  0.57641  0.04154  0.55799  1.0000
  H   H1797     1.0  0.55730  0.02489  0.57264  1.0000
  H   H1798     1.0  0.57470  0.02984  0.58719  1.0000
  H   H1799     1.0  0.58292  0.06971  0.57045  1.0000
  H   H1800     1.0  0.58130  0.05812  0.59964  1.0000
  H   H1801     1.0  0.56853  0.07326  0.59414  1.0000
  H   H1802     1.0  0.58155  0.15705  0.60728  1.0000
  C   C1135     1.0  0.50912  0.10939  0.89989  1.0000
  H   H1803     1.0  0.57209  0.19400  0.56968  1.0000
  H   H1804     1.0  0.56473  0.16605  0.59911  1.0000
  C   C1136     1.0  0.64564  0.17041  0.76192  1.0000
  C   C1137     1.0  0.58520  0.19672  0.57324  1.0000
  H   H1805     1.0  0.59446  0.15872  0.56574  1.0000
  C   C1138     1.0  0.57811  0.16943  0.60160  1.0000
  H   H1806     1.0  0.57808  0.17618  0.61630  1.0000
  N   N111      1.0  0.58187  0.04678  0.78393  1.0000
  C   C1139     1.0  0.56924  0.03097  0.78244  1.0000
  C   C1140     1.0  0.58553  0.06029  0.76213  1.0000
  C   C1141     1.0  0.59801  0.04245  0.78734  1.0000
  C   C1142     1.0  0.57475  0.05354  0.80384  1.0000
  H   H1807     1.0  0.56576  0.02075  0.79892  1.0000
  H   H1808     1.0  0.57438  0.02512  0.76811  1.0000
  H   H1809     1.0  0.55707  0.03389  0.77931  1.0000
  H   H1810     1.0  0.57377  0.06434  0.75933  1.0000
  H   H1811     1.0  0.59530  0.07224  0.76259  1.0000
  H   H1812     1.0  0.59065  0.05557  0.74664  1.0000
  H   H1813     1.0  0.60764  0.05405  0.78914  1.0000
  H   H1814     1.0  0.60400  0.03767  0.77241  1.0000
  H   H1815     1.0  0.59572  0.03210  0.80340  1.0000
  H   H1816     1.0  0.57227  0.04393  0.82075  1.0000
  H   H1817     1.0  0.56240  0.05668  0.80219  1.0000
  H   H1818     1.0  0.58384  0.06570  0.80498  1.0000
  C   C1143     1.0  0.70556  0.14709  0.89954  1.0000
  H   H1819     1.0  0.71038  0.15788  0.48251  1.0000
  H   H1820     1.0  0.48940  0.07604  0.91437  1.0000
  H   H1821     1.0  0.53975  0.03690  0.91673  1.0000
  H   H1822     1.0  0.72231  0.17993  0.87703  1.0000
  H   H1823     1.0  0.55788  0.01123  0.93959  1.0000
  C   C1144     1.0  0.53833  0.00274  0.51303  1.0000
  Fe  Fe231     1.0  0.72989  0.15654  0.95368  1.0000
  H   H1824     1.0  0.52107  0.03070  0.94044  1.0000
  H   H1825     1.0  0.49672  0.18644  0.62514  1.0000
  H   H1826     1.0  0.51725  0.18247  0.61748  1.0000
  H   H1827     1.0  0.68163  0.14869  0.87461  1.0000
  C   C1145     1.0  0.53353  0.02784  0.93401  1.0000
  H   H1828     1.0  0.70703  0.14044  0.88480  1.0000
  S   S460      1.0  0.50118  0.05570  0.95708  1.0000
  H   H1829     1.0  0.69047  0.18137  0.91098  1.0000
  C   C1146     1.0  0.68080  0.15536  0.88940  1.0000
  N   N112      1.0  0.69792  0.16184  0.89423  1.0000
  H   H1830     1.0  0.61305  0.16865  0.73337  1.0000
  H   H1831     1.0  0.61454  0.15342  0.75815  1.0000
  H   H1832     1.0  0.63850  0.19391  0.71318  1.0000
  C   C1147     1.0  0.64406  0.16241  0.72520  1.0000
  S   S461      1.0  0.59649  0.11032  0.48333  1.0000
  C   C1148     1.0  0.50414  0.17994  0.61382  1.0000
  H   H1833     1.0  0.71853  0.15154  0.90320  1.0000
  H   H1834     1.0  0.68739  0.16067  0.93024  1.0000
  H   H1835     1.0  0.71116  0.16908  0.85810  1.0000
  H   H1836     1.0  0.53065  0.01442  0.93085  1.0000
  N   N113      1.0  0.54480  0.02973  0.95070  1.0000
  C   C1149     1.0  0.69603  0.17007  0.91443  1.0000
  C   C1150     1.0  0.57186  0.00981  0.84718  1.0000
  C   C1151     1.0  0.56072  0.02484  0.94206  1.0000
  C   C1152     1.0  0.54917  0.02729  0.47982  1.0000
  Fe  Fe232     1.0  0.69424  0.13079  0.96701  1.0000
  H   H1837     1.0  0.69736  0.13708  0.91509  1.0000
  H   H1838     1.0  0.71610  0.23885  0.62590  1.0000
  C   C1153     1.0  0.68934  0.24586  0.65921  1.0000
  C   C1154     1.0  0.54249  0.99888  0.86950  1.0000
  H   H1839     1.0  0.50793  0.15857  0.58497  1.0000
  H   H1840     1.0  0.56957  0.02604  0.95418  1.0000
  H   H1841     1.0  0.55553  0.05721  0.93587  1.0000
  C   C1155     1.0  0.53432  0.99886  0.47473  1.0000
  S   S462      1.0  0.49473  0.22090  0.62568  1.0000
  C   C1156     1.0  0.72483  0.23415  0.61350  1.0000
  H   H1842     1.0  0.50027  0.13850  0.60693  1.0000
  C   C1157     1.0  0.55856  0.01120  0.86439  1.0000
  H   H1843     1.0  0.72292  0.22000  0.62081  1.0000
  H   H1844     1.0  0.50511  0.18660  0.59546  1.0000
  C   C1158     1.0  0.49400  0.15313  0.64348  1.0000
  S   S463      1.0  0.70386  0.15802  0.97188  1.0000
  N   N114      1.0  0.49044  0.10304  0.90161  1.0000
  H   H1845     1.0  0.51609  0.09972  0.89504  1.0000
  H   H1846     1.0  0.51182  0.11183  0.91682  1.0000
  H   H1847     1.0  0.53214  0.99976  0.88288  1.0000
  N   N115      1.0  0.49571  0.16107  0.61861  1.0000
  H   H1848     1.0  0.50674  0.15522  0.64828  1.0000
  H   H1849     1.0  0.53209  0.00429  0.97252  1.0000
  H   H1850     1.0  0.53752  0.05198  0.96021  1.0000
  H   H1851     1.0  0.55817  0.05013  0.96488  1.0000
  H   H1852     1.0  0.65945  0.00103  0.97179  1.0000
  H   H1853     1.0  0.53659  0.99732  0.53145  1.0000
  H   H1854     1.0  0.69048  0.01026  0.97202  1.0000
  C   C1159     1.0  0.48742  0.10022  0.87874  1.0000
  Fe  Fe233     1.0  0.49581  0.27314  0.15695  1.0000
  S   S464      1.0  0.50661  0.29370  0.12322  1.0000
  N   N116      1.0  0.54660  0.42676  0.00380  1.0000
  Fe  Fe234     1.0  0.50373  0.31301  0.14596  1.0000
  S   S465      1.0  0.51999  0.34131  0.13963  1.0000
  H   H1855     1.0  0.70355  0.41365  0.18918  1.0000
  H   H1856     1.0  0.49043  0.32551  0.21595  1.0000
  S   S466      1.0  0.58905  0.45946  0.01848  1.0000
  S   S467      1.0  0.56623  0.46697  0.42665  1.0000
  S   S468      1.0  0.71442  0.47379  0.20301  1.0000
  N   N117      1.0  0.64146  0.48067  0.09776  1.0000
  H   H1857     1.0  0.58096  0.37240  0.26354  1.0000
  Fe  Fe235     1.0  0.62411  0.43852  0.16952  1.0000
  S   S469      1.0  0.61088  0.45979  0.17307  1.0000
  S   S470      1.0  0.65322  0.44664  0.15423  1.0000
  Fe  Fe236     1.0  0.58912  0.41046  0.17973  1.0000
  S   S471      1.0  0.57430  0.43049  0.18282  1.0000
  S   S472      1.0  0.57435  0.38149  0.19020  1.0000
  Fe  Fe237     1.0  0.59398  0.44740  0.15143  1.0000
  S   S473      1.0  0.58766  0.46607  0.12322  1.0000
  Fe  Fe238     1.0  0.59261  0.44080  0.20428  1.0000
  S   S474      1.0  0.57897  0.44671  0.23750  1.0000
  S   S475      1.0  0.60772  0.42672  0.14654  1.0000
  S   S476      1.0  0.60694  0.42012  0.20246  1.0000
  C   C1160     1.0  0.66985  0.45528  0.16786  1.0000
  C   C1161     1.0  0.66685  0.45433  0.19189  1.0000
  C   C1162     1.0  0.68060  0.46044  0.20219  1.0000
  C   C1163     1.0  0.69744  0.46789  0.18861  1.0000
  C   C1164     1.0  0.70040  0.46917  0.16448  1.0000
  C   C1165     1.0  0.68670  0.46274  0.15424  1.0000
  H   H1858     1.0  0.65400  0.44863  0.20262  1.0000
  H   H1859     1.0  0.58056  0.48739  0.08468  1.0000
  H   H1860     1.0  0.68918  0.46352  0.13565  1.0000
  H   H1861     1.0  0.62319  0.48346  0.12648  1.0000
  C   C1166     1.0  0.60435  0.45261  0.26267  1.0000
  C   C1167     1.0  0.58870  0.45530  0.25876  1.0000
  C   C1168     1.0  0.57979  0.46385  0.27332  1.0000
  C   C1169     1.0  0.58649  0.46981  0.29150  1.0000
  H   H1862     1.0  0.61135  0.44603  0.25167  1.0000
  H   H1863     1.0  0.56768  0.46600  0.27039  1.0000
  H   H1864     1.0  0.57600  0.47731  0.46910  1.0000
  C   C1170     1.0  0.54440  0.45739  0.42856  1.0000
  C   C1171     1.0  0.53528  0.46507  0.41392  1.0000
  C   C1172     1.0  0.51788  0.45699  0.41564  1.0000
  C   C1173     1.0  0.50962  0.44116  0.43182  1.0000
  C   C1174     1.0  0.51878  0.43347  0.44640  1.0000
  C   C1175     1.0  0.53612  0.44165  0.44486  1.0000
  H   H1865     1.0  0.54157  0.47729  0.40144  1.0000
  H   H1866     1.0  0.51080  0.46300  0.40439  1.0000
  C   C1176     1.0  0.58461  0.49082  0.46422  1.0000
  C   C1177     1.0  0.63433  0.49040  0.08021  1.0000
  C   C1178     1.0  0.58824  0.46094  0.04779  1.0000
  C   C1179     1.0  0.58407  0.47511  0.05561  1.0000
  C   C1180     1.0  0.58369  0.47628  0.07886  1.0000
  C   C1181     1.0  0.58735  0.46326  0.09460  1.0000
  C   C1182     1.0  0.59133  0.44893  0.08690  1.0000
  C   C1183     1.0  0.59183  0.44782  0.06352  1.0000
  H   H1867     1.0  0.58129  0.43953  0.34161  1.0000
  H   H1868     1.0  0.59401  0.43873  0.09892  1.0000
  H   H1869     1.0  0.59499  0.43676  0.05762  1.0000
  C   C1184     1.0  0.55923  0.37052  0.17595  1.0000
  C   C1185     1.0  0.55136  0.35254  0.18459  1.0000
  C   C1186     1.0  0.53940  0.34333  0.17373  1.0000
  C   C1187     1.0  0.53516  0.35203  0.15402  1.0000
  C   C1188     1.0  0.54284  0.37004  0.14561  1.0000
  C   C1189     1.0  0.55479  0.37924  0.15645  1.0000
  H   H1870     1.0  0.55472  0.34561  0.19959  1.0000
  H   H1871     1.0  0.53368  0.32948  0.18040  1.0000
  H   H1872     1.0  0.53967  0.37695  0.13042  1.0000
  H   H1873     1.0  0.56068  0.39305  0.14957  1.0000
  S   S477      1.0  0.60631  0.48060  0.38050  1.0000
  S   S478      1.0  0.49493  0.29268  0.17966  1.0000
  H   H1874     1.0  0.56829  0.41147  0.37096  1.0000
  H   H1875     1.0  0.55864  0.42611  0.03312  1.0000
  H   H1876     1.0  0.64219  0.47851  0.13395  1.0000
  S   S479      1.0  0.60995  0.47195  0.32014  1.0000
  H   H1877     1.0  0.67815  0.45935  0.22086  1.0000
  H   H1878     1.0  0.56722  0.36971  0.24323  1.0000
  C   C1190     1.0  0.55197  0.38152  0.27880  1.0000
  H   H1879     1.0  0.67033  0.25940  0.20848  1.0000
  H   H1880     1.0  0.54912  0.40904  0.39264  1.0000
  N   N118      1.0  0.55952  0.43467  0.37034  1.0000
  H   H1881     1.0  0.64859  0.26752  0.15940  1.0000
  C   C1191     1.0  0.67587  0.25430  0.15262  1.0000
  H   H1882     1.0  0.70499  0.43647  0.18487  1.0000
  H   H1883     1.0  0.55094  0.39119  0.23357  1.0000
  H   H1884     1.0  0.55300  0.41001  0.24650  1.0000
  H   H1885     1.0  0.64966  0.27070  0.18817  1.0000
  C   C1192     1.0  0.65741  0.26961  0.17147  1.0000
  H   H1886     1.0  0.51246  0.42130  0.45898  1.0000
  H   H1887     1.0  0.71165  0.42761  0.16041  1.0000
  C   C1193     1.0  0.49532  0.35953  0.19504  1.0000
  Fe  Fe239     1.0  0.60254  0.48927  0.34443  1.0000
  H   H1888     1.0  0.57185  0.41396  0.27423  1.0000
  C   C1194     1.0  0.54301  0.40774  0.00550  1.0000
  C   C1195     1.0  0.71161  0.42678  0.17921  1.0000
  C   C1196     1.0  0.61080  0.45811  0.28128  1.0000
  H   H1889     1.0  0.58117  0.48525  0.04373  1.0000
  C   C1197     1.0  0.72847  0.43007  0.20819  1.0000
  H   H1890     1.0  0.72273  0.44049  0.21343  1.0000
  H   H1891     1.0  0.62277  0.45570  0.28443  1.0000
  S   S480      1.0  0.55431  0.48187  0.00361  1.0000
  H   H1892     1.0  0.58674  0.38666  0.23505  1.0000
  C   C1198     1.0  0.57025  0.44100  0.38611  1.0000
  H   H1893     1.0  0.54278  0.37157  0.27314  1.0000
  H   H1894     1.0  0.54467  0.39024  0.28597  1.0000
  C   C1199     1.0  0.60763  0.48141  0.44343  1.0000
  H   H1895     1.0  0.53066  0.40061  0.01815  1.0000
  H   H1896     1.0  0.58386  0.39835  0.28133  1.0000
  C   C1200     1.0  0.55982  0.40055  0.24049  1.0000
  C   C1201     1.0  0.53257  0.43323  0.99591  1.0000
  H   H1897     1.0  0.66710  0.28238  0.16371  1.0000
  H   H1898     1.0  0.63602  0.45739  0.08448  1.0000
  H   H1899     1.0  0.49967  0.35778  0.21172  1.0000
  C   C1202     1.0  0.60193  0.46672  0.29580  1.0000
  H   H1900     1.0  0.58937  0.41259  0.25286  1.0000
  C   C1203     1.0  0.57839  0.40459  0.26735  1.0000
  H   H1901     1.0  0.56383  0.43512  0.40480  1.0000
  H   H1902     1.0  0.63918  0.45397  0.11380  1.0000
  H   H1903     1.0  0.53507  0.44762  0.99389  1.0000
  C   C1204     1.0  0.63378  0.46177  0.10112  1.0000
  C   C1205     1.0  0.57575  0.37952  0.24998  1.0000
  C   C1206     1.0  0.56304  0.43564  0.98680  1.0000
  N   N119      1.0  0.56649  0.39154  0.25918  1.0000
  H   H1904     1.0  0.51999  0.42708  0.00850  1.0000
  H   H1905     1.0  0.58299  0.43805  0.38267  1.0000
  H   H1906     1.0  0.54804  0.41029  0.36265  1.0000
  Fe  Fe240     1.0  0.58188  0.48129  0.99626  1.0000
  H   H1907     1.0  0.55653  0.37457  0.29328  1.0000
  H   H1908     1.0  0.57961  0.47658  0.30232  1.0000
  H   H1909     1.0  0.53581  0.42381  0.04035  1.0000
  H   H1910     1.0  0.73339  0.29764  0.16282  1.0000
  H   H1911     1.0  0.57278  0.45537  0.38380  1.0000
  H   H1912     1.0  0.57048  0.40811  0.22553  1.0000
  C   C1207     1.0  0.55610  0.41550  0.37430  1.0000
  Fe  Fe241     1.0  0.58142  0.48642  0.39356  1.0000
  H   H1913     1.0  0.56616  0.44994  0.98539  1.0000
  H   H1914     1.0  0.61966  0.45836  0.10805  1.0000
  C   C1208     1.0  0.54305  0.43946  0.37513  1.0000
  C   C1209     1.0  0.56874  0.44280  0.34589  1.0000
  H   H1915     1.0  0.53584  0.43370  0.39355  1.0000
  H   H1916     1.0  0.53454  0.43485  0.36365  1.0000
  H   H1917     1.0  0.54519  0.45387  0.37224  1.0000
  H   H1918     1.0  0.56107  0.43862  0.33329  1.0000
  H   H1919     1.0  0.57174  0.45729  0.34254  1.0000
  H   H1920     1.0  0.71327  0.47485  0.15379  1.0000
  H   H1921     1.0  0.68621  0.26655  0.14445  1.0000
  H   H1922     1.0  0.68780  0.27087  0.18384  1.0000
  H   H1923     1.0  0.57399  0.43120  0.99221  1.0000
  C   C1210     1.0  0.67741  0.25853  0.19122  1.0000
  H   H1924     1.0  0.54206  0.40455  0.98830  1.0000
  H   H1925     1.0  0.55053  0.44467  0.02630  1.0000
  H   H1926     1.0  0.54313  0.43570  0.45629  1.0000
  H   H1927     1.0  0.50676  0.36132  0.18068  1.0000
  H   H1928     1.0  0.59952  0.46772  0.44764  1.0000
  H   H1929     1.0  0.72051  0.41740  0.21969  1.0000
  S   S481      1.0  0.72162  0.26127  0.16275  1.0000
  C   C1211     1.0  0.54788  0.43043  0.02692  1.0000
  H   H1930     1.0  0.60588  0.48790  0.42635  1.0000
  H   H1931     1.0  0.49903  0.32961  0.18516  1.0000
  H   H1932     1.0  0.55337  0.40247  0.01143  1.0000
  S   S482      1.0  0.50541  0.25039  0.17245  1.0000
  H   H1933     1.0  0.66594  0.47730  0.10283  1.0000
  N   N120      1.0  0.66579  0.25525  0.17521  1.0000
  N   N121      1.0  0.72925  0.43012  0.18327  1.0000
  H   H1934     1.0  0.66389  0.48056  0.07298  1.0000
  H   H1935     1.0  0.66756  0.25166  0.14007  1.0000
  H   H1936     1.0  0.73386  0.45791  0.17301  1.0000
  C   C1212     1.0  0.63735  0.48591  0.12012  1.0000
  C   C1213     1.0  0.66034  0.48450  0.08973  1.0000
  H   H1937     1.0  0.53112  0.43045  0.97865  1.0000
  H   H1938     1.0  0.63677  0.48648  0.06323  1.0000
  H   H1939     1.0  0.49124  0.37186  0.19256  1.0000
  H   H1940     1.0  0.73009  0.40328  0.18793  1.0000
  H   H1941     1.0  0.68399  0.24795  0.19437  1.0000
  S   S483      1.0  0.57635  0.49298  0.35761  1.0000
  H   H1942     1.0  0.62011  0.48788  0.08612  1.0000
  S   S484      1.0  0.48793  0.43128  0.43330  1.0000
  H   H1943     1.0  0.62140  0.48121  0.44081  1.0000
  N   N122      1.0  0.60288  0.49074  0.46171  1.0000
  H   H1944     1.0  0.48736  0.34814  0.15755  1.0000
  C   C1214     1.0  0.48726  0.32843  0.19856  1.0000
  H   H1945     1.0  0.50763  0.24675  0.12419  1.0000
  H   H1946     1.0  0.50538  0.39474  0.52274  1.0000
  S   S485      1.0  0.67261  0.47143  0.71764  1.0000
  H   H1947     1.0  0.55901  0.42504  0.70600  1.0000
  S   S486      1.0  0.63226  0.47073  0.68420  1.0000
  H   H1948     1.0  0.63807  0.48742  0.63277  1.0000
  C   C1215     1.0  0.58248  0.41424  0.72695  1.0000
  H   H1949     1.0  0.52651  0.35972  0.56551  1.0000
  N   N123      1.0  0.52973  0.33936  0.59153  1.0000
  Fe  Fe242     1.0  0.50687  0.40782  0.88027  1.0000
  H   H1950     1.0  0.53042  0.44939  0.86285  1.0000
  S   S487      1.0  0.52969  0.41610  0.89622  1.0000
  H   H1951     1.0  0.55534  0.34246  0.57190  1.0000
  H   H1952     1.0  0.73417  0.48672  0.70119  1.0000
  Fe  Fe243     1.0  0.53539  0.35526  0.66305  1.0000
  S   S488      1.0  0.51431  0.36799  0.65655  1.0000
  S   S489      1.0  0.53432  0.32624  0.66957  1.0000
  Fe  Fe244     1.0  0.56220  0.39074  0.65751  1.0000
  S   S490      1.0  0.54312  0.40579  0.64976  1.0000
  S   S491      1.0  0.59019  0.40144  0.66014  1.0000
  Fe  Fe245     1.0  0.52433  0.38549  0.67951  1.0000
  S   S492      1.0  0.50804  0.39570  0.70590  1.0000
  Fe  Fe246     1.0  0.53476  0.38707  0.62739  1.0000
  S   S493      1.0  0.53270  0.39614  0.58965  1.0000
  S   S494      1.0  0.54377  0.37128  0.68838  1.0000
  S   S495      1.0  0.55547  0.37348  0.63278  1.0000
  H   H1953     1.0  0.49684  0.41102  0.74365  1.0000
  S   S496      1.0  0.68355  0.48384  0.66003  1.0000
  H   H1954     1.0  0.56449  0.40750  0.69432  1.0000
  C   C1216     1.0  0.51527  0.38898  0.57657  1.0000
  C   C1217     1.0  0.50005  0.37665  0.58921  1.0000
  H   H1955     1.0  0.53562  0.46428  0.88110  1.0000
  C   C1218     1.0  0.50346  0.46213  0.87404  1.0000
  C   C1219     1.0  0.50381  0.38965  0.54122  1.0000
  C   C1220     1.0  0.51703  0.39545  0.55254  1.0000
  H   H1956     1.0  0.49836  0.37172  0.60774  1.0000
  C   C1221     1.0  0.56216  0.38605  0.73496  1.0000
  C   C1222     1.0  0.55754  0.41072  0.71000  1.0000
  H   H1957     1.0  0.52874  0.40499  0.54260  1.0000
  C   C1223     1.0  0.51938  0.30893  0.66337  1.0000
  C   C1224     1.0  0.52322  0.29274  0.66399  1.0000
  C   C1225     1.0  0.51233  0.27903  0.65764  1.0000
  C   C1226     1.0  0.49752  0.28144  0.65037  1.0000
  C   C1227     1.0  0.49349  0.29750  0.65024  1.0000
  C   C1228     1.0  0.50419  0.31108  0.65705  1.0000
  H   H1958     1.0  0.53485  0.29087  0.66907  1.0000
  H   H1959     1.0  0.51562  0.26677  0.65778  1.0000
  C   C1229     1.0  0.60550  0.48181  0.48410  1.0000
  H   H1960     1.0  0.50072  0.32320  0.65731  1.0000
  C   C1230     1.0  0.50693  0.38192  0.78411  1.0000
  C   C1231     1.0  0.51271  0.37164  0.76942  1.0000
  C   C1232     1.0  0.51293  0.37562  0.74545  1.0000
  C   C1233     1.0  0.50735  0.38991  0.73603  1.0000
  C   C1234     1.0  0.53367  0.46348  0.86331  1.0000
  S   S497      1.0  0.53276  0.47548  0.95315  1.0000
  H   H1961     1.0  0.51712  0.36059  0.77656  1.0000
  H   H1962     1.0  0.51730  0.36756  0.73429  1.0000
  H   H1963     1.0  0.50903  0.34034  0.57400  1.0000
  H   H1964     1.0  0.50803  0.47682  0.82880  1.0000
  C   C1235     1.0  0.53205  0.45849  0.93820  1.0000
  C   C1236     1.0  0.54671  0.45297  0.93087  1.0000
  C   C1237     1.0  0.54573  0.43962  0.91851  1.0000
  C   C1238     1.0  0.53013  0.43181  0.91330  1.0000
  C   C1239     1.0  0.51542  0.43711  0.92105  1.0000
  C   C1240     1.0  0.51639  0.45043  0.93344  1.0000
  H   H1965     1.0  0.55886  0.45918  0.93437  1.0000
  H   H1966     1.0  0.55717  0.43559  0.91249  1.0000
  H   H1967     1.0  0.50330  0.43098  0.91745  1.0000
  H   H1968     1.0  0.50495  0.45450  0.93933  1.0000
  C   C1241     1.0  0.62117  0.45167  0.67638  1.0000
  C   C1242     1.0  0.62838  0.43775  0.67398  1.0000
  C   C1243     1.0  0.61884  0.42272  0.66849  1.0000
  C   C1244     1.0  0.60200  0.42136  0.66521  1.0000
  C   C1245     1.0  0.59490  0.43544  0.66718  1.0000
  C   C1246     1.0  0.60439  0.45042  0.67286  1.0000
  H   H1969     1.0  0.64124  0.43846  0.67661  1.0000
  H   H1970     1.0  0.62450  0.41195  0.66700  1.0000
  H   H1971     1.0  0.58209  0.43477  0.66438  1.0000
  H   H1972     1.0  0.59867  0.46110  0.67457  1.0000
  H   H1973     1.0  0.53154  0.31489  0.58304  1.0000
  S   S498      1.0  0.71407  0.45928  0.68377  1.0000
  H   H1974     1.0  0.58467  0.42867  0.72230  1.0000
  H   H1975     1.0  0.59042  0.41060  0.71243  1.0000
  H   H1976     1.0  0.52627  0.34162  0.62715  1.0000
  H   H1977     1.0  0.53064  0.47817  0.82059  1.0000
  H   H1978     1.0  0.50723  0.34019  0.61565  1.0000
  S   S499      1.0  0.50744  0.37675  0.81388  1.0000
  N   N124      1.0  0.56408  0.40506  0.73082  1.0000
  C   C1247     1.0  0.51845  0.47104  0.83352  1.0000
  C   C1248     1.0  0.52330  0.34521  0.57069  1.0000
  H   H1979     1.0  0.73225  0.39782  0.73073  1.0000
  Fe  Fe247     1.0  0.66007  0.48006  0.68840  1.0000
  H   H1980     1.0  0.72900  0.41148  0.75100  1.0000
  C   C1249     1.0  0.52146  0.34551  0.61128  1.0000
  H   H1981     1.0  0.54015  0.40290  0.75423  1.0000
  H   H1982     1.0  0.52431  0.35995  0.60733  1.0000
  H   H1983     1.0  0.59741  0.46808  0.48964  1.0000
  H   H1984     1.0  0.53036  0.31529  0.61322  1.0000
  C   C1250     1.0  0.52444  0.49001  0.85977  1.0000
  H   H1985     1.0  0.54623  0.46989  0.85080  1.0000
  H   H1986     1.0  0.55567  0.42349  0.74890  1.0000
  C   C1251     1.0  0.48868  0.37719  0.55381  1.0000
  H   H1987     1.0  0.54364  0.40418  0.71242  1.0000
  H   H1988     1.0  0.55203  0.36129  0.58247  1.0000
  S   S500      1.0  0.71931  0.26720  0.66414  1.0000
  H   H1989     1.0  0.55824  0.40457  0.76755  1.0000
  H   H1990     1.0  0.56946  0.38255  0.71967  1.0000
  S   S501      1.0  0.49713  0.38016  0.87723  1.0000
  Fe  Fe248     1.0  0.69673  0.47726  0.68923  1.0000
  N   N125      1.0  0.52001  0.47167  0.85766  1.0000
  H   H1991     1.0  0.50395  0.46266  0.89237  1.0000
  H   H1992     1.0  0.49655  0.40402  0.78600  1.0000
  H   H1993     1.0  0.70753  0.49450  0.86776  1.0000
  H   H1994     1.0  0.56697  0.38127  0.75051  1.0000
  H   H1995     1.0  0.52898  0.34053  0.55548  1.0000
  H   H1996     1.0  0.55374  0.34259  0.60230  1.0000
  H   H1997     1.0  0.54847  0.37867  0.73791  1.0000
  C   C1252     1.0  0.52561  0.32008  0.59756  1.0000
  C   C1253     1.0  0.54856  0.34673  0.58677  1.0000
  C   C1254     1.0  0.73496  0.41156  0.73273  1.0000
  H   H1998     1.0  0.58761  0.41092  0.74272  1.0000
  H   H1999     1.0  0.51146  0.31408  0.60170  1.0000
  H   H2000     1.0  0.51512  0.45736  0.83138  1.0000
  C   C1255     1.0  0.55414  0.40920  0.75129  1.0000
  Fe  Fe249     1.0  0.49759  0.39160  0.83986  1.0000
  H   H2001     1.0  0.72825  0.41863  0.72108  1.0000
  S   S502      1.0  0.50968  0.41890  0.84215  1.0000
  C   C1256     1.0  0.50109  0.39605  0.77480  1.0000
  H   H2002     1.0  0.69450  0.48937  0.83371  1.0000
  H   H2003     1.0  0.56258  0.43336  0.96905  1.0000
  H   H2004     1.0  0.49147  0.29687  0.96404  1.0000
  H   H2005     1.0  0.67580  0.48414  0.87332  1.0000
  H   H2006     1.0  0.68672  0.25790  0.65152  1.0000
  C   C1257     1.0  0.50127  0.40000  0.75083  1.0000
  S   S503      1.0  0.58374  0.48378  0.95756  1.0000
  Fe  Fe250     1.0  0.55681  0.48682  0.96500  1.0000
  H   H2007     1.0  0.49994  0.44814  0.87327  1.0000
  H   H2008     1.0  0.49270  0.46753  0.86981  1.0000
  H   H2009     1.0  0.52572  0.49090  0.87782  1.0000
  C   C1258     1.0  0.70444  0.24654  0.66767  1.0000
  C   C1259     1.0  0.73625  0.46641  0.68273  1.0000
  H   H2010     1.0  0.73651  0.26784  0.61480  1.0000
  H   H2011     1.0  0.72800  0.49224  0.64967  1.0000
  H   H2012     1.0  0.73010  0.49451  0.61881  1.0000
  H   H2013     1.0  0.60211  0.48855  0.49829  1.0000
  H   H2014     1.0  0.61917  0.48148  0.48272  1.0000
  H   H2015     1.0  0.51434  0.49653  0.85568  1.0000
  S   S504      1.0  0.58327  0.72352  0.45148  1.0000
  H   H2016     1.0  0.50789  0.58346  0.09568  1.0000
  H   H2017     1.0  0.52058  0.58184  0.25053  1.0000
  H   H2018     1.0  0.72707  0.58154  0.42282  1.0000
  H   H2019     1.0  0.51540  0.72588  0.40627  1.0000
  S   S505      1.0  0.67068  0.57853  0.43502  1.0000
  H   H2020     1.0  0.56345  0.61036  0.37798  1.0000
  S   S506      1.0  0.53513  0.59326  0.97898  1.0000
  H   H2021     1.0  0.52237  0.60368  0.02183  1.0000
  S   S507      1.0  0.51923  0.60275  0.34536  1.0000
  S   S508      1.0  0.53607  0.62921  0.38762  1.0000
  H   H2022     1.0  0.53196  0.59423  0.41760  1.0000
  Fe  Fe251     1.0  0.72434  0.58598  0.46820  1.0000
  Fe  Fe252     1.0  0.50287  0.57712  0.36756  1.0000
  S   S509      1.0  0.50836  0.55079  0.37007  1.0000
  C   C1260     1.0  0.71873  0.57903  0.41032  1.0000
  Fe  Fe253     1.0  0.50732  0.59227  0.98046  1.0000
  H   H2023     1.0  0.69555  0.55794  0.39456  1.0000
  H   H2024     1.0  0.50410  0.58975  0.26591  1.0000
  C   C1261     1.0  0.52778  0.73123  0.44394  1.0000
  N   N126      1.0  0.51227  0.59381  0.05880  1.0000
  Fe  Fe254     1.0  0.61872  0.50848  0.37960  1.0000
  S   S510      1.0  0.61734  0.51692  0.34214  1.0000
  S   S511      1.0  0.64087  0.51131  0.39818  1.0000
  H   H2025     1.0  0.55147  0.56157  0.39409  1.0000
  H   H2026     1.0  0.63993  0.50472  0.07702  1.0000
  N   N127      1.0  0.72118  0.56397  0.40048  1.0000
  N   N128      1.0  0.51692  0.57561  0.28792  1.0000
  Fe  Fe255     1.0  0.59129  0.52022  0.35745  1.0000
  S   S512      1.0  0.58498  0.54538  0.34347  1.0000
  Fe  Fe256     1.0  0.49459  0.60718  0.33684  1.0000
  S   S513      1.0  0.59390  0.51386  0.39463  1.0000
  C   C1262     1.0  0.55651  0.59643  0.38005  1.0000
  H   H2027     1.0  0.55575  0.72206  0.42335  1.0000
  H   H2028     1.0  0.52560  0.50305  0.97775  1.0000
  H   H2029     1.0  0.53170  0.56751  0.40182  1.0000
  C   C1263     1.0  0.61382  0.50888  0.45501  1.0000
  H   H2030     1.0  0.51575  0.62000  0.06396  1.0000
  C   C1264     1.0  0.52962  0.54939  0.36205  1.0000
  C   C1265     1.0  0.54273  0.56383  0.34876  1.0000
  C   C1266     1.0  0.55966  0.56237  0.34287  1.0000
  C   C1267     1.0  0.56356  0.54654  0.35050  1.0000
  C   C1268     1.0  0.55044  0.53211  0.36377  1.0000
  C   C1269     1.0  0.53347  0.53350  0.36938  1.0000
  H   H2031     1.0  0.53986  0.57610  0.34307  1.0000
  H   H2032     1.0  0.56982  0.57353  0.33252  1.0000
  H   H2033     1.0  0.55336  0.51987  0.36968  1.0000
  H   H2034     1.0  0.52334  0.52228  0.37965  1.0000
  H   H2035     1.0  0.57922  0.59993  0.40729  1.0000
  C   C1270     1.0  0.66202  0.55949  0.42574  1.0000
  C   C1271     1.0  0.65099  0.56027  0.41026  1.0000
  C   C1272     1.0  0.64427  0.54557  0.40183  1.0000
  C   C1273     1.0  0.64886  0.53007  0.40844  1.0000
  C   C1274     1.0  0.65991  0.52927  0.42393  1.0000
  C   C1275     1.0  0.66624  0.54384  0.43286  1.0000
  H   H2036     1.0  0.64767  0.57235  0.40468  1.0000
  H   H2037     1.0  0.63580  0.54634  0.38990  1.0000
  H   H2038     1.0  0.66341  0.51726  0.42926  1.0000
  H   H2039     1.0  0.67442  0.54301  0.44515  1.0000
  C   C1276     1.0  0.53976  0.67054  0.43236  1.0000
  C   C1277     1.0  0.55382  0.66399  0.42543  1.0000
  C   C1278     1.0  0.55243  0.65131  0.41183  1.0000
  C   C1279     1.0  0.53695  0.64490  0.40520  1.0000
  C   C1280     1.0  0.52284  0.65130  0.41238  1.0000
  C   C1281     1.0  0.52430  0.66411  0.42574  1.0000
  H   H2040     1.0  0.56582  0.66887  0.43026  1.0000
  H   H2041     1.0  0.56347  0.64655  0.40628  1.0000
  H   H2042     1.0  0.51087  0.64654  0.40741  1.0000
  C   C1282     1.0  0.51018  0.57865  0.26659  1.0000
  H   H2043     1.0  0.55185  0.60794  0.41948  1.0000
  C   C1283     1.0  0.53007  0.54578  0.01929  1.0000
  H   H2044     1.0  0.52393  0.60279  0.28875  1.0000
  C   C1284     1.0  0.51544  0.50853  0.98624  1.0000
  H   H2045     1.0  0.50439  0.49734  0.99605  1.0000
  H   H2046     1.0  0.71159  0.57207  0.37023  1.0000
  H   H2047     1.0  0.50720  0.56916  0.32506  1.0000
  H   H2048     1.0  0.53203  0.58782  0.03508  1.0000
  H   H2049     1.0  0.57035  0.57881  0.42679  1.0000
  N   N129      1.0  0.55434  0.58624  0.40400  1.0000
  H   H2050     1.0  0.61052  0.51649  0.46814  1.0000
  H   H2051     1.0  0.51577  0.54875  0.28773  1.0000
  H   H2052     1.0  0.57890  0.58053  0.39637  1.0000
  Fe  Fe257     1.0  0.56465  0.51069  0.99817  1.0000
  C   C1285     1.0  0.52897  0.72541  0.40550  1.0000
  H   H2053     1.0  0.56313  0.74093  0.39958  1.0000
  C   C1286     1.0  0.54492  0.59411  0.42087  1.0000
  H   H2054     1.0  0.54062  0.59551  0.27274  1.0000
  S   S514      1.0  0.49807  0.58743  0.39979  1.0000
  H   H2055     1.0  0.72630  0.55073  0.43199  1.0000
  H   H2056     1.0  0.52881  0.71154  0.41223  1.0000
  H   H2057     1.0  0.49598  0.58186  0.30878  1.0000
  H   H2058     1.0  0.49479  0.60565  0.07746  1.0000
  C   C1287     1.0  0.49703  0.52782  0.98095  1.0000
  H   H2059     1.0  0.53614  0.56391  0.27301  1.0000
  H   H2060     1.0  0.71036  0.54912  0.37754  1.0000
  C   C1288     1.0  0.50258  0.57123  0.30863  1.0000
  H   H2061     1.0  0.58218  0.49731  0.44752  1.0000
  C   C1289     1.0  0.49834  0.57974  0.05582  1.0000
  H   H2062     1.0  0.53530  0.58970  0.30406  1.0000
  Fe  Fe258     1.0  0.51276  0.61375  0.37703  1.0000
  Fe  Fe259     1.0  0.68753  0.58001  0.46149  1.0000
  C   C1290     1.0  0.52661  0.56127  0.00914  1.0000
  H   H2063     1.0  0.56957  0.55096  0.98497  1.0000
  S   S515      1.0  0.70328  0.56178  0.47164  1.0000
  H   H2064     1.0  0.50018  0.56699  0.26587  1.0000
  H   H2065     1.0  0.56387  0.59112  0.36685  1.0000
  C   C1291     1.0  0.54551  0.54199  0.01050  1.0000
  H   H2066     1.0  0.52070  0.53659  0.03379  1.0000
  S   S516      1.0  0.54084  0.68718  0.44844  1.0000
  H   H2067     1.0  0.54383  0.59638  0.37569  1.0000
  H   H2068     1.0  0.70420  0.54498  0.43000  1.0000
  C   C1292     1.0  0.53887  0.57335  0.99080  1.0000
  H   H2069     1.0  0.72181  0.59118  0.39650  1.0000
  C   C1293     1.0  0.52977  0.59159  0.28837  1.0000
  S   S517      1.0  0.59232  0.50997  0.99383  1.0000
  S   S518      1.0  0.49525  0.61803  0.29860  1.0000
  H   H2070     1.0  0.52364  0.57604  0.07791  1.0000
  S   S519      1.0  0.70912  0.60436  0.45554  1.0000
  H   H2071     1.0  0.70521  0.57674  0.41996  1.0000
  H   H2072     1.0  0.54218  0.56007  0.42414  1.0000
  H   H2073     1.0  0.50272  0.56783  0.05416  1.0000
  C   C1294     1.0  0.54450  0.56806  0.40613  1.0000
  H   H2074     1.0  0.54309  0.58687  0.43917  1.0000
  C   C1295     1.0  0.71767  0.54843  0.41967  1.0000
  C   C1296     1.0  0.55761  0.55384  0.99177  1.0000
  H   H2075     1.0  0.51333  0.66906  0.43099  1.0000
  H   H2076     1.0  0.53002  0.55827  0.30436  1.0000
  H   H2077     1.0  0.51466  0.56406  0.01587  1.0000
  C   C1297     1.0  0.50560  0.60904  0.06180  1.0000
  H   H2078     1.0  0.66660  0.49865  0.08703  1.0000
  C   C1298     1.0  0.57146  0.58638  0.40886  1.0000
  N   N130      1.0  0.53729  0.73690  0.41926  1.0000
  H   H2079     1.0  0.49272  0.55910  0.30915  1.0000
  C   C1299     1.0  0.52662  0.59896  0.03795  1.0000
  H   H2080     1.0  0.50194  0.53509  0.99362  1.0000
  H   H2081     1.0  0.53593  0.72923  0.38684  1.0000
  S   S520      1.0  0.54919  0.52226  0.02306  1.0000
  H   H2082     1.0  0.62767  0.50925  0.45319  1.0000
  H   H2083     1.0  0.53733  0.60964  0.03945  1.0000
  C   C1300     1.0  0.70919  0.56061  0.38497  1.0000
  H   H2084     1.0  0.49365  0.58388  0.03991  1.0000
  H   H2085     1.0  0.51422  0.73198  0.44588  1.0000
  H   H2086     1.0  0.61250  0.51587  0.43785  1.0000
  H   H2087     1.0  0.50068  0.61402  0.04642  1.0000
  H   H2088     1.0  0.64317  0.50004  0.11841  1.0000
  C   C1301     1.0  0.55442  0.56968  0.98222  1.0000
  C   C1302     1.0  0.52508  0.56100  0.28821  1.0000
  S   S521      1.0  0.48932  0.62036  0.36673  1.0000
  H   H2089     1.0  0.53388  0.73950  0.45489  1.0000
  C   C1303     1.0  0.55520  0.73577  0.41769  1.0000
  S   S522      1.0  0.49422  0.61070  0.99568  1.0000
  H   H2090     1.0  0.56145  0.74333  0.42913  1.0000
  C   C1304     1.0  0.51846  0.58751  0.07967  1.0000
  H   H2091     1.0  0.52893  0.59783  0.08252  1.0000
  H   H2092     1.0  0.52071  0.51519  0.99921  1.0000
  H   H2093     1.0  0.49315  0.62752  0.25080  1.0000
  H   H2094     1.0  0.71966  0.53685  0.41297  1.0000
  H   H2095     1.0  0.52753  0.71749  0.45145  1.0000
  Fe  Fe260     1.0  0.56029  0.70037  0.46754  1.0000
  H   H2096     1.0  0.67443  0.67348  0.46975  1.0000
  Fe  Fe261     1.0  0.56053  0.70623  0.51743  1.0000
  S   S523      1.0  0.57247  0.68981  0.49606  1.0000
  S   S524      1.0  0.54786  0.69283  0.55538  1.0000
  S   S525      1.0  0.71577  0.73627  0.52056  1.0000
  S   S526      1.0  0.71090  0.61885  0.85686  1.0000
  H   H2097     1.0  0.65202  0.64664  0.52880  1.0000
  C   C1305     1.0  0.65463  0.72577  0.53135  1.0000
  S   S527      1.0  0.56310  0.71834  0.83485  1.0000
  Fe  Fe262     1.0  0.55954  0.71925  0.87267  1.0000
  S   S528      1.0  0.55662  0.69441  0.89932  1.0000
  Fe  Fe263     1.0  0.69455  0.56420  0.50844  1.0000
  S   S529      1.0  0.67694  0.58048  0.49853  1.0000
  S   S530      1.0  0.68518  0.53909  0.53655  1.0000
  S   S531      1.0  0.49232  0.68284  0.68401  1.0000
  S   S532      1.0  0.70461  0.57097  0.84922  1.0000
  Fe  Fe264     1.0  0.71037  0.55744  0.88189  1.0000
  S   S533      1.0  0.69128  0.53592  0.91019  1.0000
  S   S534      1.0  0.70177  0.70870  0.57175  1.0000
  Fe  Fe265     1.0  0.71865  0.72843  0.58603  1.0000
  S   S535      1.0  0.72170  0.71852  0.62291  1.0000
  H   H2098     1.0  0.52197  0.54462  0.94310  1.0000
  C   C1306     1.0  0.72087  0.72930  0.64646  1.0000
  H   H2099     1.0  0.61427  0.70699  0.89827  1.0000
  H   H2100     1.0  0.67978  0.52885  0.83928  1.0000
  H   H2101     1.0  0.63738  0.50952  0.66875  1.0000
  C   C1307     1.0  0.71981  0.74548  0.68501  1.0000
  C   C1308     1.0  0.73003  0.50183  0.63293  1.0000
  H   H2102     1.0  0.66307  0.53433  0.60957  1.0000
  C   C1309     1.0  0.51101  0.73135  0.77548  1.0000
  H   H2103     1.0  0.58053  0.49779  0.47780  1.0000
  C   C1310     1.0  0.73197  0.64112  0.81621  1.0000
  H   H2104     1.0  0.67459  0.57543  0.94750  1.0000
  H   H2105     1.0  0.71865  0.50724  0.63389  1.0000
  H   H2106     1.0  0.66406  0.49867  0.86167  1.0000
  C   C1311     1.0  0.60704  0.70890  0.88434  1.0000
  Fe  Fe266     1.0  0.69153  0.51110  0.66495  1.0000
  H   H2107     1.0  0.55852  0.73076  0.78804  1.0000
  S   S536      1.0  0.70306  0.53542  0.63605  1.0000
  H   H2108     1.0  0.68491  0.56997  0.92175  1.0000
  H   H2109     1.0  0.61992  0.50516  0.61607  1.0000
  H   H2110     1.0  0.70081  0.60154  0.90748  1.0000
  C   C1312     1.0  0.66183  0.73906  0.81664  1.0000
  H   H2111     1.0  0.68952  0.60676  0.93278  1.0000
  S   S537      1.0  0.61172  0.53165  0.92521  1.0000
  H   H2112     1.0  0.61325  0.72212  0.87294  1.0000
  S   S538      1.0  0.70441  0.72079  0.76957  1.0000
  C   C1313     1.0  0.62698  0.72071  0.51985  1.0000
  H   H2113     1.0  0.61326  0.71931  0.52414  1.0000
  H   H2114     1.0  0.68442  0.58551  0.88307  1.0000
  C   C1314     1.0  0.69388  0.50318  0.83079  1.0000
  H   H2115     1.0  0.67505  0.65634  0.49297  1.0000
  C   C1315     1.0  0.59694  0.69831  0.85258  1.0000
  C   C1316     1.0  0.71684  0.66858  0.82160  1.0000
  Fe  Fe267     1.0  0.69449  0.73138  0.55224  1.0000
  C   C1317     1.0  0.71862  0.63876  0.83558  1.0000
  C   C1318     1.0  0.66625  0.66236  0.48400  1.0000
  H   H2116     1.0  0.59748  0.66729  0.87700  1.0000
  H   H2117     1.0  0.67342  0.50233  0.88598  1.0000
  N   N131      1.0  0.60667  0.69521  0.87081  1.0000
  H   H2118     1.0  0.68816  0.53206  0.86442  1.0000
  S   S539      1.0  0.49926  0.59699  0.94659  1.0000
  H   H2119     1.0  0.64583  0.58614  0.92555  1.0000
  H   H2120     1.0  0.59675  0.68853  0.84159  1.0000
  C   C1319     1.0  0.66906  0.53400  0.91354  1.0000
  C   C1320     1.0  0.66274  0.54353  0.89677  1.0000
  C   C1321     1.0  0.64507  0.54244  0.90042  1.0000
  C   C1322     1.0  0.63359  0.53176  0.92078  1.0000
  C   C1323     1.0  0.63984  0.52191  0.93734  1.0000
  C   C1324     1.0  0.65755  0.52301  0.93368  1.0000
  H   H2121     1.0  0.67144  0.55191  0.88110  1.0000
  H   H2122     1.0  0.64024  0.54995  0.88747  1.0000
  H   H2123     1.0  0.63105  0.51362  0.95308  1.0000
  H   H2124     1.0  0.66235  0.51555  0.94670  1.0000
  C   C1325     1.0  0.71717  0.54335  0.78459  1.0000
  H   H2125     1.0  0.53569  0.53020  0.94666  1.0000
  C   C1326     1.0  0.71108  0.52450  0.75732  1.0000
  C   C1327     1.0  0.69357  0.52383  0.76300  1.0000
  C   C1328     1.0  0.68801  0.53325  0.77922  1.0000
  C   C1329     1.0  0.69975  0.54316  0.78965  1.0000
  C   C1330     1.0  0.62989  0.51131  0.65505  1.0000
  H   H2126     1.0  0.67454  0.53300  0.78355  1.0000
  H   H2127     1.0  0.69531  0.55071  0.80153  1.0000
  C   C1331     1.0  0.72314  0.72085  0.66796  1.0000
  H   H2128     1.0  0.63609  0.64274  0.51190  1.0000
  H   H2129     1.0  0.71093  0.67908  0.82375  1.0000
  H   H2130     1.0  0.62399  0.52220  0.65742  1.0000
  C   C1332     1.0  0.69915  0.53609  0.60786  1.0000
  C   C1333     1.0  0.70292  0.55228  0.59214  1.0000
  C   C1334     1.0  0.69907  0.55336  0.56999  1.0000
  C   C1335     1.0  0.69144  0.53821  0.56342  1.0000
  C   C1336     1.0  0.68807  0.52197  0.57894  1.0000
  C   C1337     1.0  0.69198  0.52088  0.60107  1.0000
  H   H2131     1.0  0.70855  0.56410  0.59725  1.0000
  H   H2132     1.0  0.70170  0.56594  0.55816  1.0000
  H   H2133     1.0  0.68234  0.51020  0.57381  1.0000
  H   H2134     1.0  0.68928  0.50832  0.61290  1.0000
  C   C1338     1.0  0.69569  0.65399  0.52759  1.0000
  C   C1339     1.0  0.70526  0.66968  0.53126  1.0000
  S   S540      1.0  0.68244  0.73963  0.82219  1.0000
  H   H2135     1.0  0.69893  0.67740  0.54109  1.0000
  C   C1340     1.0  0.50422  0.65420  0.92851  1.0000
  C   C1341     1.0  0.51912  0.65084  0.93448  1.0000
  C   C1342     1.0  0.53509  0.66327  0.92535  1.0000
  C   C1343     1.0  0.53632  0.67907  0.91005  1.0000
  C   C1344     1.0  0.52146  0.68233  0.90377  1.0000
  C   C1345     1.0  0.50545  0.66994  0.91303  1.0000
  H   H2136     1.0  0.51834  0.63876  0.94636  1.0000
  H   H2137     1.0  0.54651  0.66065  0.93030  1.0000
  H   H2138     1.0  0.52225  0.69448  0.89201  1.0000
  H   H2139     1.0  0.58334  0.69756  0.86039  1.0000
  C   C1346     1.0  0.52064  0.72597  0.79137  1.0000
  C   C1347     1.0  0.50522  0.72077  0.76051  1.0000
  C   C1348     1.0  0.50899  0.70464  0.76130  1.0000
  C   C1349     1.0  0.51849  0.69920  0.77734  1.0000
  C   C1350     1.0  0.52421  0.70973  0.79238  1.0000
  H   H2140     1.0  0.52136  0.68669  0.77819  1.0000
  H   H2141     1.0  0.53136  0.70527  0.80472  1.0000
  Fe  Fe268     1.0  0.48873  0.70708  0.66291  1.0000
  C   C1351     1.0  0.68885  0.60491  0.91493  1.0000
  N   N132      1.0  0.65409  0.66808  0.50043  1.0000
  Fe  Fe269     1.0  0.59213  0.51262  0.95568  1.0000
  C   C1352     1.0  0.53637  0.70229  0.57521  1.0000
  C   C1353     1.0  0.53087  0.69352  0.59884  1.0000
  C   C1354     1.0  0.52107  0.70020  0.61508  1.0000
  C   C1355     1.0  0.51660  0.71568  0.60776  1.0000
  C   C1356     1.0  0.52228  0.72458  0.58420  1.0000
  C   C1357     1.0  0.53212  0.71791  0.56796  1.0000
  H   H2142     1.0  0.53428  0.68152  0.60459  1.0000
  H   H2143     1.0  0.51701  0.69340  0.63324  1.0000
  H   H2144     1.0  0.57886  0.72609  0.78002  1.0000
  H   H2145     1.0  0.53632  0.72477  0.54980  1.0000
  C   C1358     1.0  0.63480  0.71880  0.49804  1.0000
  C   C1359     1.0  0.65265  0.72055  0.49289  1.0000
  C   C1360     1.0  0.66253  0.72397  0.50948  1.0000
  S   S541      1.0  0.70649  0.50494  0.69204  1.0000
  H   H2146     1.0  0.49577  0.68696  0.59220  1.0000
  C   C1361     1.0  0.69044  0.52735  0.84808  1.0000
  H   H2147     1.0  0.68198  0.64961  0.53480  1.0000
  C   C1362     1.0  0.71112  0.65257  0.83825  1.0000
  H   H2148     1.0  0.49481  0.65754  0.58706  1.0000
  H   H2149     1.0  0.56060  0.71550  0.76998  1.0000
  Fe  Fe270     1.0  0.70533  0.73743  0.79610  1.0000
  N   N133      1.0  0.64094  0.51478  0.63142  1.0000
  C   C1363     1.0  0.67303  0.58955  0.89100  1.0000
  H   H2150     1.0  0.49464  0.62274  0.90246  1.0000
  H   H2151     1.0  0.65710  0.60882  0.91479  1.0000
  H   H2152     1.0  0.63452  0.65678  0.53199  1.0000
  C   C1364     1.0  0.70370  0.64386  0.51469  1.0000
  N   N134      1.0  0.67333  0.59128  0.91515  1.0000
  H   H2153     1.0  0.70602  0.51122  0.81831  1.0000
  H   H2154     1.0  0.66186  0.56402  0.93067  1.0000
  S   S542      1.0  0.56521  0.51584  0.96004  1.0000
  C   C1365     1.0  0.63059  0.51707  0.61375  1.0000
  H   H2155     1.0  0.71866  0.51631  0.85157  1.0000
  H   H2156     1.0  0.54869  0.73209  0.74189  1.0000
  H   H2157     1.0  0.63233  0.69374  0.87287  1.0000
  Fe  Fe271     1.0  0.72418  0.71492  0.54128  1.0000
  H   H2158     1.0  0.71527  0.68578  0.60430  1.0000
  S   S543      1.0  0.69068  0.62512  0.50895  1.0000
  S   S544      1.0  0.58305  0.73004  0.50490  1.0000
  H   H2159     1.0  0.53115  0.54241  0.96818  1.0000
  C   C1366     1.0  0.72304  0.67526  0.52229  1.0000
  C   C1367     1.0  0.64831  0.49986  0.62923  1.0000
  Fe  Fe272     1.0  0.59441  0.71419  0.48209  1.0000
  C   C1368     1.0  0.56731  0.72803  0.77355  1.0000
  N   N135      1.0  0.69153  0.50912  0.85290  1.0000
  C   C1369     1.0  0.65776  0.59620  0.92520  1.0000
  C   C1370     1.0  0.72262  0.72887  0.68713  1.0000
  C   C1371     1.0  0.72153  0.64929  0.50609  1.0000
  Fe  Fe273     1.0  0.68169  0.49995  0.71843  1.0000
  C   C1372     1.0  0.52544  0.53509  0.95610  1.0000
  S   S545      1.0  0.71657  0.58721  0.50608  1.0000
  C   C1373     1.0  0.72275  0.53412  0.76815  1.0000
  S   S546      1.0  0.52896  0.74056  0.80823  1.0000
  Fe  Fe274     1.0  0.72821  0.71499  0.77977  1.0000
  Fe  Fe275     1.0  0.72157  0.59524  0.85514  1.0000
  H   H2160     1.0  0.58473  0.67725  0.89533  1.0000
  C   C1374     1.0  0.64258  0.67580  0.48783  1.0000
  C   C1375     1.0  0.65677  0.73295  0.79778  1.0000
  S   S547      1.0  0.73559  0.69486  0.52656  1.0000
  H   H2161     1.0  0.68318  0.50427  0.82184  1.0000
  H   H2162     1.0  0.60515  0.67512  0.90064  1.0000
  C   C1376     1.0  0.59818  0.67794  0.88663  1.0000
  H   H2163     1.0  0.60259  0.71145  0.84082  1.0000
  H   H2164     1.0  0.65752  0.59759  0.94344  1.0000
  H   H2165     1.0  0.62472  0.68546  0.84950  1.0000
  H   H2166     1.0  0.67338  0.60217  0.87952  1.0000
  H   H2167     1.0  0.49288  0.53706  0.96836  1.0000
  S   S548      1.0  0.54690  0.71509  0.49019  1.0000
  H   H2168     1.0  0.65634  0.50175  0.61145  1.0000
  S   S549      1.0  0.66639  0.73052  0.55275  1.0000
  Fe  Fe276     1.0  0.57036  0.73763  0.47541  1.0000
  H   H2169     1.0  0.72441  0.72218  0.70353  1.0000
  H   H2170     1.0  0.66130  0.57973  0.89033  1.0000
  H   H2171     1.0  0.70079  0.65086  0.85320  1.0000
  C   C1377     1.0  0.62900  0.73952  0.80810  1.0000
  C   C1378     1.0  0.66383  0.68128  0.51084  1.0000
  H   H2172     1.0  0.65885  0.71930  0.47596  1.0000
  S   S550      1.0  0.67797  0.51056  0.75167  1.0000
  H   H2173     1.0  0.66544  0.72795  0.78659  1.0000
  S   S551      1.0  0.50350  0.72394  0.62738  1.0000
  H   H2174     1.0  0.59378  0.70886  0.89296  1.0000
  C   C1379     1.0  0.50325  0.51113  0.95225  1.0000
  C   C1380     1.0  0.67369  0.57446  0.92940  1.0000
  H   H2175     1.0  0.68921  0.61771  0.90389  1.0000
  H   H2176     1.0  0.53687  0.49761  0.84765  1.0000
  C   C1381     1.0  0.58381  0.73850  0.73391  1.0000
  C   C1382     1.0  0.64371  0.65290  0.51913  1.0000
  Fe  Fe277     1.0  0.54785  0.73817  0.83192  1.0000
  N   N136      1.0  0.51028  0.52064  0.96890  1.0000
  H   H2177     1.0  0.63111  0.70850  0.84739  1.0000
  H   H2178     1.0  0.72785  0.64160  0.49616  1.0000
  C   C1383     1.0  0.70636  0.50810  0.86357  1.0000
  Fe  Fe278     1.0  0.69955  0.60369  0.49366  1.0000
  Fe  Fe279     1.0  0.72264  0.74474  0.74474  1.0000
  H   H2179     1.0  0.73449  0.53056  0.65037  1.0000
  H   H2180     1.0  0.66365  0.52927  0.63988  1.0000
  H   H2181     1.0  0.51894  0.73661  0.57841  1.0000
  C   C1384     1.0  0.62447  0.69571  0.85969  1.0000
  C   C1385     1.0  0.65498  0.53083  0.62764  1.0000
  C   C1386     1.0  0.63686  0.72424  0.53635  1.0000
  S   S552      1.0  0.66737  0.50816  0.69131  1.0000
  C   C1387     1.0  0.65024  0.74498  0.83153  1.0000
  H   H2182     1.0  0.50812  0.74385  0.77460  1.0000
  H   H2183     1.0  0.50043  0.66424  0.62405  1.0000
  S   S553      1.0  0.72540  0.58183  0.88957  1.0000
  S   S554      1.0  0.73392  0.55147  0.86341  1.0000
  S   S555      1.0  0.50259  0.69098  0.74237  1.0000
  S   S556      1.0  0.54235  0.73741  0.87057  1.0000
  H   H2184     1.0  0.63863  0.51971  0.59572  1.0000
  C   C1388     1.0  0.55624  0.74454  0.74478  1.0000
  H   H2185     1.0  0.70261  0.53617  0.83666  1.0000
  H   H2186     1.0  0.71558  0.51733  0.74494  1.0000
  H   H2187     1.0  0.67202  0.69280  0.49719  1.0000
  S   S557      1.0  0.73231  0.55416  0.79896  1.0000
  H   H2188     1.0  0.67623  0.72524  0.50532  1.0000
  H   H2189     1.0  0.72978  0.65800  0.62934  1.0000
  H   H2190     1.0  0.49176  0.50016  0.96133  1.0000
  H   H2191     1.0  0.63331  0.68039  0.49968  1.0000
  S   S558      1.0  0.72762  0.72952  0.80852  1.0000
  H   H2192     1.0  0.49788  0.72510  0.74835  1.0000
  H   H2193     1.0  0.64992  0.54219  0.63025  1.0000
  Fe  Fe280     1.0  0.58623  0.74096  0.82936  1.0000
  H   H2194     1.0  0.65505  0.68606  0.52312  1.0000
  H   H2195     1.0  0.49398  0.67264  0.90834  1.0000
  H   H2196     1.0  0.72533  0.70800  0.66984  1.0000
  C   C1389     1.0  0.71984  0.67640  0.59475  1.0000
  H   H2197     1.0  0.63670  0.72870  0.77869  1.0000
  Fe  Fe281     1.0  0.72909  0.56645  0.83079  1.0000
  S   S559      1.0  0.58392  0.74061  0.86753  1.0000
  C   C1390     1.0  0.73116  0.66490  0.50998  1.0000
  H   H2198     1.0  0.63061  0.72565  0.55319  1.0000
  H   H2199     1.0  0.62484  0.52824  0.61485  1.0000
  H   H2200     1.0  0.67248  0.67591  0.52075  1.0000
  H   H2201     1.0  0.56395  0.57903  0.96805  1.0000
  C   C1391     1.0  0.73010  0.67085  0.80212  1.0000
  H   H2202     1.0  0.49924  0.51989  0.93889  1.0000
  H   H2203     1.0  0.73686  0.53470  0.60785  1.0000
  H   H2204     1.0  0.71077  0.66330  0.60244  1.0000
  H   H2205     1.0  0.71884  0.68017  0.57629  1.0000
  C   C1392     1.0  0.63388  0.74520  0.82731  1.0000
  H   H2206     1.0  0.51294  0.50543  0.94301  1.0000
  H   H2207     1.0  0.49532  0.60235  0.89478  1.0000
  C   C1393     1.0  0.64047  0.73333  0.79342  1.0000
  H   H2208     1.0  0.73620  0.53427  0.76390  1.0000
  C   C1394     1.0  0.49099  0.61439  0.89019  1.0000
  N   N137      1.0  0.57196  0.74248  0.75267  1.0000
  H   H2209     1.0  0.49845  0.62162  0.87237  1.0000
  H   H2210     1.0  0.57764  0.72627  0.72907  1.0000
  S   S560      1.0  0.60890  0.74034  0.80156  1.0000
  S   S561      1.0  0.62268  0.71360  0.47715  1.0000
  H   H2211     1.0  0.70515  0.51288  0.88004  1.0000
  H   H2212     1.0  0.59572  0.73671  0.73947  1.0000
  H   H2213     1.0  0.61933  0.49911  0.65867  1.0000
  H   H2214     1.0  0.63490  0.66624  0.47983  1.0000
  H   H2215     1.0  0.73476  0.65043  0.59027  1.0000
  H   H2216     1.0  0.73426  0.68053  0.63102  1.0000
  C   C1395     1.0  0.67549  0.49803  0.86918  1.0000
  H   H2217     1.0  0.65652  0.49800  0.64195  1.0000
  C   C1396     1.0  0.71805  0.74592  0.64433  1.0000
  H   H2218     1.0  0.65936  0.65239  0.47579  1.0000
  H   H2219     1.0  0.64993  0.68731  0.47358  1.0000
  Fe  Fe282     1.0  0.60270  0.87723  0.32126  1.0000
  S   S562      1.0  0.57931  0.88306  0.31020  1.0000
  S   S563      1.0  0.63155  0.89158  0.30830  1.0000
  Fe  Fe283     1.0  0.58181  0.84050  0.34993  1.0000
  S   S564      1.0  0.55669  0.84367  0.34145  1.0000
  S   S565      1.0  0.58958  0.81599  0.36465  1.0000
  Fe  Fe284     1.0  0.57177  0.85570  0.30468  1.0000
  S   S566      1.0  0.56310  0.85196  0.27099  1.0000
  Fe  Fe285     1.0  0.56531  0.87082  0.34761  1.0000
  S   S567      1.0  0.54583  0.88485  0.36125  1.0000
  S   S568      1.0  0.59629  0.85085  0.31250  1.0000
  S   S569      1.0  0.58923  0.86671  0.35919  1.0000
  Fe  Fe286     1.0  0.61091  0.87056  0.99027  1.0000
  S   S570      1.0  0.58748  0.88094  0.99335  1.0000
  S   S571      1.0  0.63518  0.88027  0.00380  1.0000
  Fe  Fe287     1.0  0.57237  0.85279  0.00557  1.0000
  S   S572      1.0  0.54838  0.84453  0.03465  1.0000
  S   S573      1.0  0.59559  0.84244  0.00484  1.0000
  Fe  Fe288     1.0  0.70350  0.98299  0.29420  1.0000
  S   S574      1.0  0.72994  0.99119  0.06832  1.0000
  S   S575      1.0  0.67589  0.96697  0.31193  1.0000
  C   C1397     1.0  0.54921  0.81309  0.19775  1.0000
  H   H2220     1.0  0.66401  0.94040  0.23954  1.0000
  H   H2221     1.0  0.49223  0.95975  0.33722  1.0000
  C   C1398     1.0  0.56007  0.78767  0.19817  1.0000
  S   S576      1.0  0.50479  0.80949  0.18622  1.0000
  C   C1399     1.0  0.67303  0.97714  0.99357  1.0000
  S   S577      1.0  0.71018  0.94935  0.07358  1.0000
  S   S578      1.0  0.68786  0.97682  0.07890  1.0000
  Fe  Fe289     1.0  0.70923  0.97003  0.09444  1.0000
  S   S579      1.0  0.71082  0.96225  0.13279  1.0000
  Fe  Fe290     1.0  0.69072  0.95816  0.05535  1.0000
  S   S580      1.0  0.66519  0.94556  0.04619  1.0000
  S   S581      1.0  0.71118  0.97814  0.02719  1.0000
  S   S582      1.0  0.52701  0.98584  0.45577  1.0000
  H   H2222     1.0  0.54304  0.76874  0.03706  1.0000
  S   S583      1.0  0.72616  0.97816  0.27122  1.0000
  S   S584      1.0  0.50735  0.94231  0.44142  1.0000
  H   H2223     1.0  0.65416  0.97924  0.03404  1.0000
  H   H2224     1.0  0.68655  0.98520  0.20328  1.0000
  H   H2225     1.0  0.57057  0.78152  0.20138  1.0000
  S   S585      1.0  0.50947  0.78878  0.25075  1.0000
  H   H2226     1.0  0.58129  0.80401  0.00323  1.0000
  H   H2227     1.0  0.58029  0.81787  0.17050  1.0000
  Fe  Fe291     1.0  0.51705  0.79410  0.16358  1.0000
  S   S586      1.0  0.54314  0.80419  0.13811  1.0000
  S   S587      1.0  0.51547  0.77238  0.19368  1.0000
  S   S588      1.0  0.56458  0.76394  0.46492  1.0000
  H   H2228     1.0  0.55925  0.78834  0.17960  1.0000
  C   C1400     1.0  0.57979  0.81635  0.18954  1.0000
  Fe  Fe292     1.0  0.48972  0.75944  0.18790  1.0000
  C   C1401     1.0  0.71574  0.97537  0.15303  1.0000
  C   C1402     1.0  0.71739  0.96732  0.17515  1.0000
  C   C1403     1.0  0.72126  0.97715  0.19179  1.0000
  H   H2229     1.0  0.68725  0.96351  0.26311  1.0000
  C   C1404     1.0  0.65978  0.95134  0.24565  1.0000
  C   C1405     1.0  0.54704  0.83259  0.06298  1.0000
  C   C1406     1.0  0.53163  0.82884  0.07983  1.0000
  C   C1407     1.0  0.53019  0.81984  0.10280  1.0000
  C   C1408     1.0  0.54422  0.81463  0.10912  1.0000
  C   C1409     1.0  0.55960  0.81821  0.09219  1.0000
  C   C1410     1.0  0.56100  0.82708  0.06913  1.0000
  H   H2230     1.0  0.52077  0.83305  0.07518  1.0000
  H   H2231     1.0  0.51829  0.81718  0.11571  1.0000
  H   H2232     1.0  0.57046  0.81408  0.09697  1.0000
  H   H2233     1.0  0.57284  0.82966  0.05622  1.0000
  C   C1411     1.0  0.64360  0.89896  0.01460  1.0000
  C   C1412     1.0  0.65939  0.90066  0.02148  1.0000
  C   C1413     1.0  0.66637  0.91491  0.03075  1.0000
  C   C1414     1.0  0.65753  0.92763  0.03359  1.0000
  C   C1415     1.0  0.64173  0.92595  0.02669  1.0000
  C   C1416     1.0  0.63489  0.91185  0.01705  1.0000
  H   H2234     1.0  0.66631  0.89084  0.01962  1.0000
  H   H2235     1.0  0.67850  0.91592  0.03596  1.0000
  H   H2236     1.0  0.63477  0.93571  0.02869  1.0000
  H   H2237     1.0  0.62291  0.91097  0.01149  1.0000
  C   C1417     1.0  0.54126  0.88959  0.38912  1.0000
  C   C1418     1.0  0.52942  0.89950  0.39331  1.0000
  C   C1419     1.0  0.52518  0.90349  0.41522  1.0000
  C   C1420     1.0  0.53271  0.89751  0.43322  1.0000
  C   C1421     1.0  0.54456  0.88759  0.42910  1.0000
  C   C1422     1.0  0.54888  0.88367  0.40709  1.0000
  H   H2238     1.0  0.52347  0.90408  0.37949  1.0000
  H   H2239     1.0  0.51602  0.91109  0.41820  1.0000
  H   H2240     1.0  0.55042  0.88290  0.44295  1.0000
  H   H2241     1.0  0.55798  0.87600  0.40405  1.0000
  C   C1423     1.0  0.58259  0.80197  0.39284  1.0000
  C   C1424     1.0  0.57053  0.80472  0.41052  1.0000
  C   C1425     1.0  0.56539  0.79312  0.43263  1.0000
  C   C1426     1.0  0.57222  0.77868  0.43725  1.0000
  C   C1427     1.0  0.58440  0.77605  0.41960  1.0000
  C   C1428     1.0  0.58952  0.78762  0.39751  1.0000
  H   H2242     1.0  0.56512  0.81574  0.40716  1.0000
  H   H2243     1.0  0.55598  0.79529  0.44620  1.0000
  H   H2244     1.0  0.57900  0.85296  0.09139  1.0000
  H   H2245     1.0  0.59889  0.78541  0.38395  1.0000
  C   C1429     1.0  0.52267  0.80708  0.25760  1.0000
  C   C1430     1.0  0.52912  0.80465  0.27794  1.0000
  C   C1431     1.0  0.54096  0.81843  0.28286  1.0000
  C   C1432     1.0  0.54658  0.83480  0.26737  1.0000
  C   C1433     1.0  0.53978  0.83734  0.24735  1.0000
  C   C1434     1.0  0.52771  0.82366  0.24267  1.0000
  H   H2246     1.0  0.52521  0.79194  0.28975  1.0000
  H   H2247     1.0  0.54607  0.81627  0.29833  1.0000
  H   H2248     1.0  0.54390  0.84999  0.23538  1.0000
  H   H2249     1.0  0.52249  0.82590  0.22734  1.0000
  C   C1435     1.0  0.64357  0.91257  0.30969  1.0000
  C   C1436     1.0  0.66150  0.91764  0.30060  1.0000
  C   C1437     1.0  0.67163  0.93411  0.30129  1.0000
  C   C1438     1.0  0.66392  0.94582  0.31100  1.0000
  C   C1439     1.0  0.64601  0.94073  0.32014  1.0000
  C   C1440     1.0  0.63589  0.92424  0.31949  1.0000
  H   H2250     1.0  0.66760  0.90872  0.29304  1.0000
  H   H2251     1.0  0.68540  0.93766  0.29450  1.0000
  H   H2252     1.0  0.63986  0.94960  0.32778  1.0000
  H   H2253     1.0  0.62214  0.92056  0.32659  1.0000
  H   H2254     1.0  0.68344  0.97273  0.00062  1.0000
  Fe  Fe293     1.0  0.50173  0.78692  0.21608  1.0000
  N   N138      1.0  0.63936  0.84729  0.34948  1.0000
  C   C1441     1.0  0.63981  0.83077  0.36437  1.0000
  C   C1442     1.0  0.65659  0.85975  0.34296  1.0000
  C   C1443     1.0  0.62700  0.85495  0.36248  1.0000
  C   C1444     1.0  0.63394  0.84375  0.32809  1.0000
  H   H2255     1.0  0.64375  0.83289  0.38075  1.0000
  H   H2256     1.0  0.64890  0.82451  0.35513  1.0000
  H   H2257     1.0  0.62684  0.82124  0.36951  1.0000
  H   H2258     1.0  0.65643  0.87231  0.33172  1.0000
  H   H2259     1.0  0.66108  0.86283  0.35864  1.0000
  H   H2260     1.0  0.66629  0.85448  0.33303  1.0000
  H   H2261     1.0  0.62622  0.86739  0.35175  1.0000
  H   H2262     1.0  0.63066  0.85782  0.37871  1.0000
  H   H2263     1.0  0.61383  0.84594  0.36766  1.0000
  H   H2264     1.0  0.63317  0.85588  0.31659  1.0000
  H   H2265     1.0  0.62101  0.83433  0.33233  1.0000
  H   H2266     1.0  0.64304  0.83811  0.31774  1.0000
  N   N139      1.0  0.67319  0.96806  0.23650  1.0000
  C   C1445     1.0  0.68919  0.96642  0.24379  1.0000
  C   C1446     1.0  0.66727  0.98199  0.24588  1.0000
  H   H2267     1.0  0.65511  0.98352  0.24097  1.0000
  H   H2268     1.0  0.67708  0.99480  0.23915  1.0000
  H   H2269     1.0  0.54631  0.76406  0.00851  1.0000
  C   C1447     1.0  0.55346  0.79715  0.98426  1.0000
  H   H2270     1.0  0.59893  0.86430  0.09684  1.0000
  H   H2271     1.0  0.66488  0.97909  0.26532  1.0000
  S   S589      1.0  0.49234  0.78033  0.15618  1.0000
  H   H2272     1.0  0.69392  0.95580  0.23748  1.0000
  C   C1448     1.0  0.67658  0.97256  0.21071  1.0000
  H   H2273     1.0  0.58227  0.82962  0.19327  1.0000
  H   H2274     1.0  0.65657  0.94781  0.26507  1.0000
  H   H2275     1.0  0.64762  0.95197  0.24004  1.0000
  H   H2276     1.0  0.67646  0.98603  0.03403  1.0000
  C   C1449     1.0  0.54924  0.80347  0.02255  1.0000
  H   H2277     1.0  0.55023  0.79478  0.23968  1.0000
  H   H2278     1.0  0.54328  0.76400  0.42039  1.0000
  H   H2279     1.0  0.57334  0.78578  0.02778  1.0000
  H   H2280     1.0  0.56200  0.81049  0.97644  1.0000
  H   H2281     1.0  0.54899  0.81457  0.17897  1.0000
  S   S590      1.0  0.52740  0.90201  0.46114  1.0000
  H   H2282     1.0  0.69963  0.97873  0.23682  1.0000
  N   N140      1.0  0.55440  0.79124  0.00876  1.0000
  H   H2283     1.0  0.53632  0.80492  0.20790  1.0000
  H   H2284     1.0  0.54972  0.79946  0.04119  1.0000
  C   C1450     1.0  0.57223  0.79077  0.00967  1.0000
  H   H2285     1.0  0.59050  0.81077  0.19341  1.0000
  H   H2286     1.0  0.71573  0.95336  0.17941  1.0000
  H   H2287     1.0  0.68135  0.96246  0.20302  1.0000
  H   H2288     1.0  0.64419  0.98806  0.99786  1.0000
  C   C1451     1.0  0.56267  0.80347  0.22867  1.0000
  H   H2289     1.0  0.58991  0.76511  0.42298  1.0000
  H   H2290     1.0  0.66118  0.96615  0.00040  1.0000
  H   H2291     1.0  0.66477  0.97379  0.20449  1.0000
  H   H2292     1.0  0.55791  0.81686  0.01565  1.0000
  H   H2293     1.0  0.57310  0.79787  0.23366  1.0000
  C   C1452     1.0  0.66611  0.98998  0.02638  1.0000
  H   H2294     1.0  0.54779  0.77873  0.20925  1.0000
  H   H2295     1.0  0.55093  0.82628  0.20157  1.0000
  H   H2296     1.0  0.57956  0.87081  0.10554  1.0000
  H   H2297     1.0  0.54017  0.79754  0.98281  1.0000
  H   H2298     1.0  0.56423  0.81634  0.23357  1.0000
  N   N141      1.0  0.59074  0.87827  0.06866  1.0000
  C   C1453     1.0  0.57445  0.88011  0.06236  1.0000
  C   C1454     1.0  0.60119  0.89550  0.06972  1.0000
  C   C1455     1.0  0.60044  0.87140  0.05083  1.0000
  C   C1456     1.0  0.58691  0.86606  0.09164  1.0000
  H   H2299     1.0  0.56622  0.86732  0.06155  1.0000
  H   H2300     1.0  0.57683  0.88898  0.04489  1.0000
  H   H2301     1.0  0.56680  0.88538  0.07530  1.0000
  H   H2302     1.0  0.60382  0.90515  0.05285  1.0000
  H   H2303     1.0  0.59456  0.90088  0.08353  1.0000
  H   H2304     1.0  0.61392  0.89474  0.07340  1.0000
  H   H2305     1.0  0.60364  0.88038  0.03336  1.0000
  H   H2306     1.0  0.59297  0.85851  0.04928  1.0000
  H   H2307     1.0  0.61289  0.86985  0.05482  1.0000
  H   H2308     1.0  0.53594  0.80445  0.02211  1.0000
  C   C1457     1.0  0.54270  0.77359  0.01854  1.0000
  N   N142      1.0  0.56296  0.80514  0.20354  1.0000
  H   H2309     1.0  0.57695  0.78239  0.99846  1.0000
  H   H2310     1.0  0.67411  0.98749  0.37720  1.0000
  C   C1458     1.0  0.71815  0.99346  0.14769  1.0000
  C   C1459     1.0  0.67457  0.98998  0.35816  1.0000
  H   H2311     1.0  0.66355  0.98026  0.35530  1.0000
  Fe  Fe294     1.0  0.51121  0.95773  0.46882  1.0000
  H   H2312     1.0  0.49093  0.96110  0.36716  1.0000
  H   H2313     1.0  0.52914  0.77350  0.01807  1.0000
  H   H2314     1.0  0.72277  0.97078  0.20852  1.0000
  C   C1460     1.0  0.72338  0.99522  0.18659  1.0000
  Fe  Fe295     1.0  0.73056  0.97081  0.04697  1.0000
  N   N143      1.0  0.67058  0.99324  0.00062  1.0000
  H   H2315     1.0  0.49483  0.97831  0.43994  1.0000
  Fe  Fe296     1.0  0.50988  0.91978  0.46740  1.0000
  H   H2316     1.0  0.68648  0.98717  0.34935  1.0000
  H   H2317     1.0  0.54474  0.76008  0.39161  1.0000
  H   H2318     1.0  0.52401  0.75651  0.41065  1.0000
  H   H2319     1.0  0.67649  0.97906  0.97426  1.0000
  H   H2320     1.0  0.48799  0.97869  0.34648  1.0000
  C   C1461     1.0  0.53730  0.75515  0.41003  1.0000
  H   H2321     1.0  0.55766  0.78847  0.97315  1.0000
  H   H2322     1.0  0.50784  0.89415  0.56585  1.0000
  H   H2323     1.0  0.70839  0.79962  0.52553  1.0000
  S   S591      1.0  0.59784  0.81640  0.95515  1.0000
  C   C1462     1.0  0.50372  0.88966  0.52383  1.0000
  S   S592      1.0  0.58350  0.89631  0.92805  1.0000
  S   S593      1.0  0.61146  0.86791  0.95311  1.0000
  H   H2324     1.0  0.49896  0.78203  0.61461  1.0000
  H   H2325     1.0  0.54392  0.90402  0.53245  1.0000
  S   S594      1.0  0.56670  0.78387  0.87652  1.0000
  C   C1463     1.0  0.68659  0.76710  0.50431  1.0000
  H   H2326     1.0  0.53622  0.90853  0.50625  1.0000
  H   H2327     1.0  0.66583  0.76877  0.77708  1.0000
  H   H2328     1.0  0.68231  0.75563  0.72179  1.0000
  H   H2329     1.0  0.58435  0.77000  0.74327  1.0000
  N   N144      1.0  0.68832  0.78194  0.51584  1.0000
  H   H2330     1.0  0.66662  0.74834  0.74900  1.0000
  H   H2331     1.0  0.68907  0.75102  0.74853  1.0000
  C   C1464     1.0  0.48955  0.76914  0.61736  1.0000
  C   C1465     1.0  0.68278  0.79603  0.50236  1.0000
  C   C1466     1.0  0.69892  0.78573  0.72934  1.0000
  Fe  Fe297     1.0  0.51065  0.90865  0.86569  1.0000
  S   S595      1.0  0.52853  0.91789  0.83034  1.0000
  S   S596      1.0  0.51274  0.88883  0.89639  1.0000
  H   H2332     1.0  0.53684  0.87249  0.53302  1.0000
  H   H2333     1.0  0.49878  0.90066  0.52848  1.0000
  Fe  Fe298     1.0  0.50446  0.91446  0.81595  1.0000
  S   S597      1.0  0.50423  0.90123  0.78488  1.0000
  Fe  Fe299     1.0  0.52584  0.94474  0.83311  1.0000
  S   S598      1.0  0.54955  0.96811  0.82311  1.0000
  C   C1467     1.0  0.66846  0.78170  0.73211  1.0000
  S   S599      1.0  0.50955  0.93553  0.86947  1.0000
  S   S600      1.0  0.50333  0.94219  0.81576  1.0000
  H   H2334     1.0  0.59217  0.75755  0.76520  1.0000
  S   S601      1.0  0.51600  0.93596  0.49344  1.0000
  Fe  Fe300     1.0  0.73149  0.75434  0.53834  1.0000
  C   C1468     1.0  0.51333  0.88391  0.55954  1.0000
  S   S602      1.0  0.72238  0.76181  0.77091  1.0000
  C   C1469     1.0  0.53223  0.90479  0.52570  1.0000
  H   H2335     1.0  0.71631  0.75260  0.62791  1.0000
  S   S603      1.0  0.57125  0.76093  0.82408  1.0000
  H   H2336     1.0  0.71537  0.76681  0.66166  1.0000
  H   H2337     1.0  0.52533  0.97839  0.50598  1.0000
  C   C1470     1.0  0.55281  0.98423  0.83977  1.0000
  H   H2338     1.0  0.52708  0.97629  0.86107  1.0000
  H   H2339     1.0  0.50316  0.87135  0.56624  1.0000
  H   H2340     1.0  0.50421  0.88701  0.74416  1.0000
  Fe  Fe301     1.0  0.56697  0.75892  0.86301  1.0000
  H   H2341     1.0  0.70132  0.78511  0.71060  1.0000
  S   S604      1.0  0.70952  0.75084  0.56903  1.0000
  H   H2342     1.0  0.50070  0.77405  0.65604  1.0000
  H   H2343     1.0  0.71100  0.77806  0.52701  1.0000
  H   H2344     1.0  0.68808  0.76995  0.77576  1.0000
  H   H2345     1.0  0.70083  0.79965  0.73023  1.0000
  H   H2346     1.0  0.57170  0.76212  0.77263  1.0000
  C   C1471     1.0  0.58047  0.75878  0.75861  1.0000
  H   H2347     1.0  0.52433  0.88284  0.56779  1.0000
  C   C1472     1.0  0.53960  0.98550  0.85722  1.0000
  H   H2348     1.0  0.50282  0.90122  0.94220  1.0000
  C   C1473     1.0  0.56327  0.89509  0.92099  1.0000
  C   C1474     1.0  0.54866  0.88183  0.93335  1.0000
  C   C1475     1.0  0.53316  0.88018  0.92580  1.0000
  C   C1476     1.0  0.53213  0.89185  0.90599  1.0000
  C   C1477     1.0  0.54658  0.90543  0.89406  1.0000
  C   C1478     1.0  0.56209  0.90704  0.90157  1.0000
  H   H2349     1.0  0.54937  0.87265  0.94846  1.0000
  H   H2350     1.0  0.52198  0.86970  0.93518  1.0000
  H   H2351     1.0  0.54587  0.91458  0.87886  1.0000
  H   H2352     1.0  0.57331  0.91742  0.89202  1.0000
  C   C1479     1.0  0.58884  0.80730  0.93356  1.0000
  C   C1480     1.0  0.57728  0.81424  0.92271  1.0000
  C   C1481     1.0  0.57053  0.80677  0.90552  1.0000
  C   C1482     1.0  0.57508  0.79214  0.89911  1.0000
  C   C1483     1.0  0.58636  0.78497  0.91036  1.0000
  C   C1484     1.0  0.59319  0.79253  0.92745  1.0000
  H   H2353     1.0  0.57363  0.82540  0.92755  1.0000
  H   H2354     1.0  0.56168  0.81228  0.89711  1.0000
  H   H2355     1.0  0.59000  0.77375  0.90565  1.0000
  H   H2356     1.0  0.60206  0.78698  0.93580  1.0000
  H   H2357     1.0  0.62523  0.75015  0.83862  1.0000
  H   H2358     1.0  0.69070  0.80059  0.48417  1.0000
  H   H2359     1.0  0.69045  0.75617  0.51422  1.0000
  N   N145      1.0  0.51872  0.88810  0.53377  1.0000
  H   H2360     1.0  0.70914  0.78101  0.73645  1.0000
  H   H2361     1.0  0.68136  0.78959  0.76916  1.0000
  H   H2362     1.0  0.67304  0.76185  0.50316  1.0000
  Fe  Fe302     1.0  0.58683  0.87632  0.95742  1.0000
  H   H2363     1.0  0.67773  0.78717  0.54871  1.0000
  C   C1485     1.0  0.67911  0.77590  0.76710  1.0000
  H   H2364     1.0  0.49868  0.75182  0.65374  1.0000
  H   H2365     1.0  0.50701  0.89220  0.50452  1.0000
  H   H2366     1.0  0.65521  0.77388  0.74146  1.0000
  H   H2367     1.0  0.66947  0.79550  0.73322  1.0000
  C   C1486     1.0  0.49827  0.91290  0.93617  1.0000
  H   H2368     1.0  0.51555  0.86135  0.53140  1.0000
  H   H2369     1.0  0.71524  0.79267  0.49925  1.0000
  N   N146      1.0  0.57816  0.86372  0.87581  1.0000
  C   C1487     1.0  0.57152  0.85602  0.85745  1.0000
  C   C1488     1.0  0.56481  0.85777  0.89778  1.0000
  C   C1489     1.0  0.58259  0.88297  0.86855  1.0000
  C   C1490     1.0  0.59370  0.85816  0.87951  1.0000
  H   H2370     1.0  0.58120  0.86031  0.84055  1.0000
  H   H2371     1.0  0.55971  0.85990  0.85441  1.0000
  H   H2372     1.0  0.56813  0.84148  0.86232  1.0000
  H   H2373     1.0  0.56970  0.86265  0.91229  1.0000
  H   H2374     1.0  0.55324  0.86256  0.89597  1.0000
  H   H2375     1.0  0.56048  0.84330  0.90319  1.0000
  H   H2376     1.0  0.58792  0.88919  0.88186  1.0000
  H   H2377     1.0  0.57107  0.88769  0.86617  1.0000
  H   H2378     1.0  0.59240  0.88797  0.85181  1.0000
  H   H2379     1.0  0.59878  0.86346  0.89367  1.0000
  H   H2380     1.0  0.60418  0.86275  0.86343  1.0000
  H   H2381     1.0  0.59094  0.84369  0.88456  1.0000
  C   C1491     1.0  0.52548  0.87409  0.52588  1.0000
  C   C1492     1.0  0.53194  0.99200  0.49864  1.0000
  H   H2382     1.0  0.66996  0.78115  0.71338  1.0000
  H   H2383     1.0  0.52762  0.91562  0.53160  1.0000
  H   H2384     1.0  0.49309  0.87747  0.53000  1.0000
  N   N147      1.0  0.68157  0.77501  0.74225  1.0000
  H   H2385     1.0  0.50232  0.92266  0.94648  1.0000
  H   H2386     1.0  0.69483  0.77083  0.48633  1.0000
  C   C1493     1.0  0.49126  0.76139  0.65761  1.0000
  H   H2387     1.0  0.68399  0.80750  0.51049  1.0000
  S   S605      1.0  0.56967  0.84909  0.96979  1.0000
  C   C1494     1.0  0.70648  0.78842  0.51692  1.0000
  H   H2388     1.0  0.52959  0.87704  0.50643  1.0000
  H   H2389     1.0  0.66908  0.79150  0.50136  1.0000
  S   S606      1.0  0.71890  0.75610  0.70871  1.0000
  H   H2390     1.0  0.58771  0.74916  0.71787  1.0000
  C   C1495     1.0  0.67741  0.77617  0.53978  1.0000
  H   H2391     1.0  0.50533  0.91852  0.91771  1.0000
  H   H2392     1.0  0.68178  0.76612  0.55075  1.0000
  H   H2393     1.0  0.66375  0.77012  0.53980  1.0000
  Fe  Fe303     1.0  0.59414  0.84077  0.96783  1.0000
  C   C1496     1.0  0.67975  0.75671  0.74035  1.0000
  H   H2394     1.0  0.55931  0.75461  0.72825  1.0000
  H   H2395     1.0  0.49696  0.75974  0.61259  1.0000
  C   C1497     1.0  0.49108  0.88711  0.75097  1.0000
  H   H2396     1.0  0.65405  0.74970  0.84619  1.0000
  C   C1498     1.0  0.71751  0.75394  0.66352  1.0000
  Fe  Fe304     1.0  0.48743  0.92773  0.50832  1.0000
  C   C1499     1.0  0.48730  0.89375  0.77099  1.0000
  C   C1500     1.0  0.56899  0.99639  0.83494  1.0000
  H   H2397     1.0  0.57936  0.99532  0.82175  1.0000
  H   H2398     1.0  0.54757  0.74868  0.75799  1.0000
  H   H2399     1.0  0.78306  0.23413  0.11864  1.0000
  S   S607      1.0  0.85372  0.03138  0.38844  1.0000
  Fe  Fe305     1.0  0.87874  0.01106  0.34460  1.0000
  S   S608      1.0  0.87559  0.03807  0.33510  1.0000
  C   C1501     1.0  0.79309  0.22304  0.32981  1.0000
  Fe  Fe306     1.0  0.88169  0.04082  0.36989  1.0000
  S   S609      1.0  0.90323  0.06411  0.37054  1.0000
  Fe  Fe307     1.0  0.84796  0.02590  0.35440  1.0000
  S   S610      1.0  0.82537  0.03265  0.34041  1.0000
  S   S611      1.0  0.88669  0.01444  0.37783  1.0000
  H   H2400     1.0  0.77084  0.12912  0.24546  1.0000
  C   C1502     1.0  0.76502  0.13107  0.26277  1.0000
  H   H2401     1.0  0.92664  0.12986  0.44757  1.0000
  S   S612      1.0  0.96370  0.13190  0.44339  1.0000
  H   H2402     1.0  0.74574  0.09651  0.06902  1.0000
  H   H2403     1.0  0.76059  0.22375  0.32781  1.0000
  H   H2404     1.0  0.74832  0.12733  0.04962  1.0000
  H   H2405     1.0  0.76910  0.99721  0.00712  1.0000
  C   C1503     1.0  0.76357  0.21090  0.32871  1.0000
  H   H2406     1.0  0.96330  0.07194  0.35356  1.0000
  Fe  Fe308     1.0  0.97848  0.01049  0.02748  1.0000
  H   H2407     1.0  0.80691  0.22484  0.32183  1.0000
  C   C1504     1.0  0.94145  0.00432  0.00540  1.0000
  H   H2408     1.0  0.77074  0.12427  0.27606  1.0000
  S   S613      1.0  0.96852  0.04169  0.26734  1.0000
  H   H2409     1.0  0.93754  0.02046  0.97501  1.0000
  C   C1505     1.0  0.85733  0.01611  0.29510  1.0000
  H   H2410     1.0  0.79776  0.01141  0.98037  1.0000
  N   N148      1.0  0.74608  0.12442  0.26842  1.0000
  H   H2411     1.0  0.74636  0.09807  0.28268  1.0000
  S   S614      1.0  0.76784  0.18232  0.38618  1.0000
  C   C1506     1.0  0.73904  0.12738  0.29144  1.0000
  H   H2412     1.0  0.74017  0.11954  0.02641  1.0000
  C   C1507     1.0  0.86895  0.00111  0.26725  1.0000
  H   H2413     1.0  0.82422  0.00573  0.42109  1.0000
  S   S615      1.0  0.75928  0.15113  0.34070  1.0000
  H   H2414     1.0  0.89558  0.11650  0.46223  1.0000
  H   H2415     1.0  0.95901  0.03792  0.31923  1.0000
  H   H2416     1.0  0.90793  0.03534  0.30164  1.0000
  S   S616      1.0  0.85082  0.99863  0.36161  1.0000
  H   H2417     1.0  0.76901  0.14529  0.26232  1.0000
  C   C1508     1.0  0.93244  0.00841  0.98821  1.0000
  H   H2418     1.0  0.78821  0.16793  0.45908  1.0000
  H   H2419     1.0  0.84614  0.01624  0.30865  1.0000
  C   C1509     1.0  0.78519  0.22208  0.29277  1.0000
  N   N149      1.0  0.85348  0.00090  0.28450  1.0000
  C   C1510     1.0  0.79606  0.19563  0.44436  1.0000
  C   C1511     1.0  0.78783  0.17817  0.44494  1.0000
  C   C1512     1.0  0.77930  0.17378  0.42731  1.0000
  C   C1513     1.0  0.77870  0.18685  0.40886  1.0000
  C   C1514     1.0  0.78688  0.20431  0.40831  1.0000
  C   C1515     1.0  0.79552  0.20868  0.42584  1.0000
  S   S617      1.0  0.74672  0.17848  0.29097  1.0000
  H   H2420     1.0  0.77332  0.16028  0.42796  1.0000
  H   H2421     1.0  0.78653  0.21459  0.39424  1.0000
  H   H2422     1.0  0.80174  0.22215  0.42508  1.0000
  S   S618      1.0  0.74503  0.02060  0.26255  1.0000
  H   H2423     1.0  0.92411  0.03489  0.37065  1.0000
  H   H2424     1.0  0.89193  0.06608  0.45394  1.0000
  H   H2425     1.0  0.92633  0.05104  0.33110  1.0000
  H   H2426     1.0  0.74351  0.05035  0.31616  1.0000
  H   H2427     1.0  0.95659  0.02562  0.34820  1.0000
  H   H2428     1.0  0.93806  0.02527  0.33586  1.0000
  C   C1516     1.0  0.90817  0.07083  0.39587  1.0000
  C   C1517     1.0  0.92388  0.08313  0.39379  1.0000
  C   C1518     1.0  0.92821  0.08908  0.41335  1.0000
  C   C1519     1.0  0.91667  0.08307  0.43512  1.0000
  C   C1520     1.0  0.90098  0.07077  0.43721  1.0000
  C   C1521     1.0  0.89682  0.06452  0.41776  1.0000
  H   H2429     1.0  0.93270  0.08821  0.37692  1.0000
  H   H2430     1.0  0.94028  0.09863  0.41143  1.0000
  H   H2431     1.0  0.87315  0.01328  0.25325  1.0000
  H   H2432     1.0  0.88468  0.05510  0.41961  1.0000
  C   C1522     1.0  0.80871  0.01993  0.33009  1.0000
  C   C1523     1.0  0.79677  0.02788  0.32135  1.0000
  H   H2433     1.0  0.79874  0.22375  0.28366  1.0000
  H   H2434     1.0  0.88000  0.00041  0.27565  1.0000
  H   H2435     1.0  0.79789  0.04154  0.32102  1.0000
  C   C1524     1.0  0.79489  0.99794  0.98959  1.0000
  C   C1525     1.0  0.91365  0.01037  0.30498  1.0000
  Fe  Fe309     1.0  0.73839  0.12620  0.35677  1.0000
  C   C1526     1.0  0.94326  0.01118  0.28814  1.0000
  C   C1527     1.0  0.94732  0.02935  0.28092  1.0000
  C   C1528     1.0  0.93446  0.03799  0.28565  1.0000
  C   C1529     1.0  0.91773  0.02856  0.29797  1.0000
  S   S619      1.0  0.96138  0.01861  0.00432  1.0000
  H   H2436     1.0  0.75008  0.19969  0.24565  1.0000
  H   H2437     1.0  0.93750  0.05202  0.27990  1.0000
  S   S620      1.0  0.98377  0.99971  0.25565  1.0000
  H   H2438     1.0  0.97319  0.06508  0.32872  1.0000
  H   H2439     1.0  0.74261  0.20130  0.04935  1.0000
  H   H2440     1.0  0.86840  0.01601  0.30352  1.0000
  C   C1530     1.0  0.74131  0.10552  0.26913  1.0000
  H   H2441     1.0  0.73840  0.15263  0.42935  1.0000
  H   H2442     1.0  0.88988  0.24480  0.45067  1.0000
  N   N150      1.0  0.78173  0.21290  0.31752  1.0000
  S   S621      1.0  0.74521  0.10092  0.35204  1.0000
  H   H2443     1.0  0.76054  0.20415  0.34746  1.0000
  H   H2444     1.0  0.78238  0.18816  0.33727  1.0000
  Fe  Fe310     1.0  0.75120  0.16039  0.37342  1.0000
  C   C1531     1.0  0.74389  0.07250  0.33211  1.0000
  H   H2445     1.0  0.98143  0.06331  0.99668  1.0000
  Fe  Fe311     1.0  0.73843  0.16070  0.32716  1.0000
  H   H2446     1.0  0.84236  0.01380  0.25878  1.0000
  H   H2447     1.0  0.94692  0.06365  0.31310  1.0000
  H   H2448     1.0  0.75563  0.07196  0.33784  1.0000
  Fe  Fe312     1.0  0.94749  0.10532  0.46321  1.0000
  H   H2449     1.0  0.74430  0.12072  0.30539  1.0000
  H   H2450     1.0  0.76580  0.23613  0.14030  1.0000
  C   C1532     1.0  0.96478  0.06029  0.34664  1.0000
  C   C1533     1.0  0.80701  0.00223  0.33048  1.0000
  H   H2451     1.0  0.78286  0.23527  0.29105  1.0000
  H   H2452     1.0  0.92256  0.15005  0.43522  1.0000
  S   S622      1.0  0.92090  0.09123  0.45984  1.0000
  H   H2453     1.0  0.74649  0.10271  0.25211  1.0000
  H   H2454     1.0  0.76123  0.22289  0.11976  1.0000
  C   C1534     1.0  0.93924  0.05906  0.33142  1.0000
  C   C1535     1.0  0.78338  0.01837  0.31294  1.0000
  H   H2455     1.0  0.79860  0.19653  0.31069  1.0000
  H   H2456     1.0  0.79075  0.21626  0.34851  1.0000
  H   H2457     1.0  0.77437  0.02474  0.30621  1.0000
  N   N151      1.0  0.90984  0.13915  0.47131  1.0000
  H   H2458     1.0  0.95309  0.00440  0.28478  1.0000
  C   C1536     1.0  0.93712  0.04298  0.37038  1.0000
  H   H2459     1.0  0.80461  0.01030  0.43349  1.0000
  H   H2460     1.0  0.77667  0.18751  0.30974  1.0000
  C   C1537     1.0  0.95049  0.03378  0.33706  1.0000
  H   H2461     1.0  0.97362  0.01644  0.15544  1.0000
  H   H2462     1.0  0.74229  0.14151  0.29148  1.0000
  H   H2463     1.0  0.74271  0.17064  0.44297  1.0000
  H   H2464     1.0  0.75084  0.06925  0.00742  1.0000
  C   C1538     1.0  0.78500  0.19552  0.31884  1.0000
  H   H2465     1.0  0.94302  0.03502  0.38212  1.0000
  S   S623      1.0  0.80650  0.20030  0.46736  1.0000
  H   H2466     1.0  0.86077  0.02863  0.28186  1.0000
  S   S624      1.0  0.96979  0.09348  0.46298  1.0000
  H   H2467     1.0  0.93516  0.05417  0.37806  1.0000
  H   H2468     1.0  0.93715  0.07070  0.33790  1.0000
  S   S625      1.0  0.73879  0.09913  0.99188  1.0000
  S   S626      1.0  0.85151  0.23555  0.45859  1.0000
  S   S627      1.0  0.89265  0.99822  0.31972  1.0000
  H   H2469     1.0  0.77666  0.21466  0.28320  1.0000
  H   H2470     1.0  0.75461  0.20310  0.32010  1.0000
  N   N152      1.0  0.94791  0.04902  0.34639  1.0000
  C   C1539     1.0  0.83909  0.00174  0.27284  1.0000
  H   H2471     1.0  0.79091  0.23620  0.32937  1.0000
  C   C1540     1.0  0.92458  0.14235  0.45140  1.0000
  H   H2472     1.0  0.97172  0.05315  0.35772  1.0000
  H   H2473     1.0  0.74373  0.13163  0.23289  1.0000
  H   H2474     1.0  0.74256  0.14812  0.24928  1.0000
  H   H2475     1.0  0.89124  0.13660  0.44996  1.0000
  H   H2476     1.0  0.93668  0.14976  0.45502  1.0000
  H   H2477     1.0  0.82731  0.00184  0.28539  1.0000
  H   H2478     1.0  0.91026  0.99997  0.97418  1.0000
  S   S628      1.0  0.98213  0.01040  0.10960  1.0000
  C   C1541     1.0  0.91697  0.99684  0.98773  1.0000
  H   H2479     1.0  0.90522  0.16420  0.46033  1.0000
  C   C1542     1.0  0.76959  0.23526  0.12178  1.0000
  C   C1543     1.0  0.89412  0.12928  0.46575  1.0000
  H   H2480     1.0  0.79687  0.01138  0.39477  1.0000
  C   C1544     1.0  0.73842  0.18925  0.24929  1.0000
  H   H2481     1.0  0.76481  0.23670  0.07831  1.0000
  C   C1545     1.0  0.92639  0.00169  0.29979  1.0000
  C   C1546     1.0  0.81052  0.99960  0.43010  1.0000
  Fe  Fe313     1.0  0.85850  0.00469  0.39416  1.0000
  H   H2482     1.0  0.74113  0.23961  0.10736  1.0000
  C   C1547     1.0  0.78175  0.00072  0.31311  1.0000
  C   C1548     1.0  0.98550  0.01252  0.15390  1.0000
  Fe  Fe314     1.0  0.98626  0.12064  0.44572  1.0000
  C   C1549     1.0  0.73896  0.13378  0.25048  1.0000
  H   H2483     1.0  0.73733  0.08924  0.04561  1.0000
  H   H2484     1.0  0.81615  0.00593  0.38328  1.0000
  C   C1550     1.0  0.80254  0.00023  0.39302  1.0000
  Fe  Fe315     1.0  0.97204  0.10229  0.49600  1.0000
  H   H2485     1.0  0.92684  0.02075  0.49201  1.0000
  H   H2486     1.0  0.75289  0.22392  0.59800  1.0000
  S   S629      1.0  0.94843  0.11202  0.49801  1.0000
  H   H2487     1.0  0.97944  0.12729  0.77953  1.0000
  H   H2488     1.0  0.86059  0.02163  0.93084  1.0000
  H   H2489     1.0  0.92203  0.24391  0.84704  1.0000
  H   H2490     1.0  0.85644  0.19738  0.86154  1.0000
  C   C1551     1.0  0.89588  0.24340  0.51500  1.0000
  C   C1552     1.0  0.98401  0.20082  0.52739  1.0000
  H   H2491     1.0  0.83319  0.23163  0.67444  1.0000
  C   C1553     1.0  0.92036  0.01436  0.51052  1.0000
  C   C1554     1.0  0.93526  0.05243  0.93367  1.0000
  C   C1555     1.0  0.85100  0.22288  0.90031  1.0000
  C   C1556     1.0  0.98263  0.17435  0.51210  1.0000
  H   H2492     1.0  0.98628  0.05852  0.93552  1.0000
  S   S630      1.0  0.90418  0.02432  0.89991  1.0000
  N   N153      1.0  0.97649  0.19647  0.61544  1.0000
  S   S631      1.0  0.82714  0.22634  0.51069  1.0000
  H   H2493     1.0  0.93593  0.05286  0.95149  1.0000
  H   H2494     1.0  0.96843  0.23746  0.68381  1.0000
  H   H2495     1.0  0.91033  0.01393  0.55596  1.0000
  S   S632      1.0  0.87904  0.23171  0.50395  1.0000
  N   N154      1.0  0.93159  0.01914  0.52650  1.0000
  H   H2496     1.0  0.92512  0.99787  0.87905  1.0000
  H   H2497     1.0  0.81461  0.23375  0.66327  1.0000
  C   C1557     1.0  0.85853  0.03413  0.92240  1.0000
  C   C1558     1.0  0.96994  0.04622  0.82496  1.0000
  H   H2498     1.0  0.86289  0.19480  0.91084  1.0000
  C   C1559     1.0  0.79391  0.22044  0.90972  1.0000
  C   C1560     1.0  0.78627  0.20935  0.93186  1.0000
  C   C1561     1.0  0.77117  0.19585  0.93531  1.0000
  C   C1562     1.0  0.76352  0.19331  0.91660  1.0000
  C   C1563     1.0  0.77124  0.20430  0.89440  1.0000
  C   C1564     1.0  0.78640  0.21778  0.89093  1.0000
  H   H2499     1.0  0.79200  0.21131  0.94650  1.0000
  H   H2500     1.0  0.98183  0.06713  0.49116  1.0000
  H   H2501     1.0  0.76542  0.20244  0.87981  1.0000
  H   H2502     1.0  0.79214  0.22620  0.87380  1.0000
  C   C1565     1.0  0.88285  0.05086  0.93358  1.0000
  Fe  Fe316     1.0  0.96614  0.13799  0.47834  1.0000
  C   C1566     1.0  0.94719  0.06489  0.91516  1.0000
  H   H2503     1.0  0.86456  0.22657  0.90213  1.0000
  H   H2504     1.0  0.74728  0.22725  0.63928  1.0000
  H   H2505     1.0  0.86581  0.03749  0.90389  1.0000
  N   N155      1.0  0.86418  0.04790  0.93480  1.0000
  H   H2506     1.0  0.84073  0.19005  0.92585  1.0000
  H   H2507     1.0  0.81987  0.20089  0.90590  1.0000
  S   S633      1.0  0.95762  0.01965  0.80445  1.0000
  H   H2508     1.0  0.95987  0.21329  0.62096  1.0000
  H   H2509     1.0  0.90916  0.22314  0.51560  1.0000
  C   C1567     1.0  0.93327  0.05142  0.88775  1.0000
  C   C1568     1.0  0.92120  0.03912  0.90623  1.0000
  C   C1569     1.0  0.92242  0.03943  0.92922  1.0000
  H   H2510     1.0  0.93245  0.05120  0.86992  1.0000
  H   H2511     1.0  0.91333  0.02987  0.94360  1.0000
  S   S634      1.0  0.96261  0.08159  0.92120  1.0000
  H   H2512     1.0  0.95548  0.07366  0.87781  1.0000
  C   C1570     1.0  0.94634  0.06415  0.89218  1.0000
  C   C1571     1.0  0.92252  0.01024  0.55081  1.0000
  H   H2513     1.0  0.88272  0.12651  0.48044  1.0000
  C   C1572     1.0  0.92324  0.24482  0.52711  1.0000
  C   C1573     1.0  0.86068  0.06420  0.92369  1.0000
  H   H2514     1.0  0.86761  0.06863  0.90500  1.0000
  H   H2515     1.0  0.96519  0.21452  0.51988  1.0000
  C   C1574     1.0  0.85891  0.20926  0.86874  1.0000
  Fe  Fe317     1.0  0.82313  0.22524  0.47423  1.0000
  C   C1575     1.0  0.90764  0.15603  0.47582  1.0000
  H   H2516     1.0  0.86487  0.07490  0.93255  1.0000
  H   H2517     1.0  0.88592  0.03878  0.94171  1.0000
  H   H2518     1.0  0.85752  0.22024  0.85568  1.0000
  H   H2519     1.0  0.98522  0.03073  0.56551  1.0000
  H   H2520     1.0  0.84452  0.03154  0.92275  1.0000
  H   H2521     1.0  0.95662  0.04483  0.83292  1.0000
  C   C1576     1.0  0.96879  0.17694  0.50240  1.0000
  C   C1577     1.0  0.96256  0.19150  0.50542  1.0000
  H   H2522     1.0  0.93061  0.01356  0.56337  1.0000
  H   H2523     1.0  0.91480  0.11600  0.48951  1.0000
  N   N156      1.0  0.84711  0.20676  0.89159  1.0000
  C   C1578     1.0  0.91316  0.12888  0.49227  1.0000
  H   H2524     1.0  0.84657  0.17977  0.90243  1.0000
  C   C1579     1.0  0.97921  0.06491  0.52814  1.0000
  H   H2525     1.0  0.81345  0.23910  0.60187  1.0000
  S   S635      1.0  0.74430  0.17672  0.92009  1.0000
  Fe  Fe318     1.0  0.85534  0.23911  0.49403  1.0000
  H   H2526     1.0  0.97126  0.05662  0.96209  1.0000
  H   H2527     1.0  0.90818  0.01831  0.51454  1.0000
  S   S636      1.0  0.87483  0.00146  0.96546  1.0000
  C   C1580     1.0  0.74850  0.24129  0.63224  1.0000
  C   C1581     1.0  0.93597  0.03825  0.52427  1.0000
  H   H2528     1.0  0.95695  0.17906  0.60449  1.0000
  C   C1582     1.0  0.97010  0.20337  0.51782  1.0000
  C   C1583     1.0  0.84944  0.19217  0.90842  1.0000
  N   N157      1.0  0.74296  0.24411  0.60996  1.0000
  C   C1584     1.0  0.81929  0.23105  0.67965  1.0000
  C   C1585     1.0  0.97410  0.03521  0.81040  1.0000
  H   H2529     1.0  0.76536  0.18751  0.95247  1.0000
  Fe  Fe319     1.0  0.98536  0.09630  0.89168  1.0000
  H   H2530     1.0  0.90238  0.12630  0.50773  1.0000
  H   H2531     1.0  0.98368  0.04104  0.96032  1.0000
  C   C1586     1.0  0.96395  0.20248  0.63088  1.0000
  H   H2532     1.0  0.92508  0.13586  0.49680  1.0000
  H   H2533     1.0  0.82679  0.21371  0.87670  1.0000
  H   H2534     1.0  0.97970  0.06738  0.84070  1.0000
  C   C1587     1.0  0.98422  0.05510  0.95486  1.0000
  H   H2535     1.0  0.81626  0.22648  0.72608  1.0000
  H   H2536     1.0  0.93348  0.23883  0.53008  1.0000
  H   H2537     1.0  0.75047  0.24040  0.57519  1.0000
  H   H2538     1.0  0.96959  0.20769  0.64471  1.0000
  H   H2539     1.0  0.97691  0.05847  0.56534  1.0000
  C   C1588     1.0  0.96862  0.19014  0.59702  1.0000
  H   H2540     1.0  0.84231  0.22163  0.91748  1.0000
  H   H2541     1.0  0.74064  0.24595  0.64572  1.0000
  S   S637      1.0  0.96382  0.23922  0.57647  1.0000
  H   H2542     1.0  0.82564  0.19080  0.88221  1.0000
  C   C1589     1.0  0.82910  0.20280  0.88895  1.0000
  H   H2543     1.0  0.96476  0.20065  0.58610  1.0000
  H   H2544     1.0  0.81231  0.21745  0.68916  1.0000
  H   H2545     1.0  0.91681  0.99998  0.51193  1.0000
  S   S638      1.0  0.81308  0.23700  0.90651  1.0000
  H   H2546     1.0  0.89045  0.05486  0.91518  1.0000
  H   H2547     1.0  0.76779  0.24507  0.58968  1.0000
  H   H2548     1.0  0.92425  0.04292  0.52854  1.0000
  C   C1590     1.0  0.75398  0.23811  0.59243  1.0000
  C   C1591     1.0  0.90941  0.23594  0.51888  1.0000
  C   C1592     1.0  0.98158  0.18221  0.62926  1.0000
  H   H2549     1.0  0.85704  0.03003  0.96839  1.0000
  H   H2550     1.0  0.84668  0.06236  0.92438  1.0000
  H   H2551     1.0  0.88769  0.06115  0.94276  1.0000
  H   H2552     1.0  0.92757  0.01148  0.85086  1.0000
  C   C1593     1.0  0.98300  0.05899  0.82936  1.0000
  H   H2553     1.0  0.95598  0.01642  0.53272  1.0000
  S   S639      1.0  0.97508  0.08533  0.52850  1.0000
  H   H2554     1.0  0.85843  0.05238  0.96948  1.0000
  H   H2555     1.0  0.95507  0.02049  0.50251  1.0000
  H   H2556     1.0  0.97782  0.18572  0.58485  1.0000
  H   H2557     1.0  0.87263  0.21257  0.87004  1.0000
  H   H2558     1.0  0.94436  0.04223  0.53623  1.0000
  H   H2559     1.0  0.95186  0.19367  0.49802  1.0000
  H   H2560     1.0  0.84914  0.23398  0.88808  1.0000
  H   H2561     1.0  0.94301  0.04541  0.50621  1.0000
  C   C1594     1.0  0.85465  0.04231  0.95949  1.0000
  H   H2562     1.0  0.84048  0.03952  0.96101  1.0000
  H   H2563     1.0  0.97029  0.17090  0.63776  1.0000
  S   S640      1.0  0.95881  0.16242  0.48649  1.0000
  C   C1595     1.0  0.94754  0.01364  0.52044  1.0000
  C   C1596     1.0  0.97983  0.05437  0.54913  1.0000
  H   H2564     1.0  0.79045  0.22917  0.71106  1.0000
  H   H2565     1.0  0.91941  0.16365  0.48008  1.0000
  H   H2566     1.0  0.95217  0.19179  0.63956  1.0000
  H   H2567     1.0  0.81754  0.24303  0.55888  1.0000
  H   H2568     1.0  0.98115  0.09679  0.77926  1.0000
  Fe  Fe320     1.0  0.88667  0.00205  0.92843  1.0000
  C   C1597     1.0  0.98283  0.05942  0.50731  1.0000
  H   H2569     1.0  0.89666  0.15415  0.49080  1.0000
  H   H2570     1.0  0.98442  0.24591  0.71354  1.0000
  C   C1598     1.0  0.79787  0.24237  0.70053  1.0000
  Fe  Fe321     1.0  0.96642  0.99808  0.79077  1.0000
  S   S641      1.0  0.82764  0.99926  0.96669  1.0000
  C   C1599     1.0  0.98457  0.03870  0.54925  1.0000
  H   H2571     1.0  0.89617  0.00077  0.85408  1.0000
  H   H2572     1.0  0.94474  0.99938  0.52127  1.0000
  H   H2573     1.0  0.83699  0.24093  0.71135  1.0000
  H   H2574     1.0  0.79255  0.24492  0.68476  1.0000
  C   C1600     1.0  0.82294  0.23987  0.71550  1.0000
  H   H2575     1.0  0.98638  0.12566  0.80653  1.0000
  H   H2576     1.0  0.91741  0.99890  0.81958  1.0000
  N   N158      1.0  0.81648  0.24371  0.69406  1.0000
  C   C1601     1.0  0.92732  0.99811  0.86005  1.0000
  H   H2577     1.0  0.98555  0.08723  0.96152  1.0000
  Fe  Fe322     1.0  0.84701  0.26220  0.45409  1.0000
  S   S642      1.0  0.86019  0.28080  0.41932  1.0000
  C   C1602     1.0  0.77302  0.24882  0.08126  1.0000
  S   S643      1.0  0.91622  0.40039  0.99484  1.0000
  H   H2578     1.0  0.81182  0.30474  0.43040  1.0000
  Fe  Fe323     1.0  0.90136  0.37227  0.00797  1.0000
  S   S644      1.0  0.88853  0.35711  0.04507  1.0000
  H   H2579     1.0  0.77173  0.26004  0.06851  1.0000
  N   N159      1.0  0.90576  0.27120  0.44049  1.0000
  Fe  Fe324     1.0  0.89387  0.42188  0.36112  1.0000
  S   S645      1.0  0.91042  0.42129  0.32742  1.0000
  S   S646      1.0  0.89317  0.44879  0.36644  1.0000
  Fe  Fe325     1.0  0.88489  0.38252  0.37773  1.0000
  S   S647      1.0  0.90099  0.37878  0.34527  1.0000
  S   S648      1.0  0.87081  0.36189  0.41066  1.0000
  Fe  Fe326     1.0  0.92065  0.40214  0.34883  1.0000
  S   S649      1.0  0.94923  0.40397  0.34129  1.0000
  Fe  Fe327     1.0  0.88952  0.39828  0.32591  1.0000
  S   S650      1.0  0.88514  0.40047  0.28876  1.0000
  S   S651      1.0  0.90557  0.40426  0.38279  1.0000
  S   S652      1.0  0.87190  0.40050  0.35825  1.0000
  Fe  Fe328     1.0  0.79888  0.37060  0.19145  1.0000
  S   S653      1.0  0.82709  0.38086  0.18878  1.0000
  S   S654      1.0  0.78059  0.38586  0.20543  1.0000
  Fe  Fe329     1.0  0.80259  0.33512  0.18159  1.0000
  S   S655      1.0  0.83137  0.34316  0.17894  1.0000
  S   S656      1.0  0.79175  0.30675  0.17901  1.0000
  Fe  Fe330     1.0  0.82564  0.35464  0.21034  1.0000
  S   S657      1.0  0.83456  0.34968  0.24466  1.0000
  Fe  Fe331     1.0  0.83049  0.36876  0.15761  1.0000
  S   S658      1.0  0.85020  0.38605  0.12554  1.0000
  S   S659      1.0  0.79704  0.34469  0.21454  1.0000
  S   S660      1.0  0.80211  0.36038  0.15853  1.0000
  Fe  Fe332     1.0  0.77884  0.48453  0.17387  1.0000
  S   S661      1.0  0.79545  0.46712  0.16272  1.0000
  H   H2580     1.0  0.86255  0.30211  0.45366  1.0000
  C   C1603     1.0  0.78538  0.40859  0.19408  1.0000
  C   C1604     1.0  0.79817  0.41684  0.17389  1.0000
  C   C1605     1.0  0.80118  0.43482  0.16463  1.0000
  C   C1606     1.0  0.79152  0.44471  0.17550  1.0000
  C   C1607     1.0  0.77908  0.43658  0.19612  1.0000
  C   C1608     1.0  0.77595  0.41855  0.20531  1.0000
  H   H2581     1.0  0.80555  0.40933  0.16513  1.0000
  H   H2582     1.0  0.81094  0.44104  0.14878  1.0000
  H   H2583     1.0  0.77192  0.44422  0.20492  1.0000
  H   H2584     1.0  0.76615  0.41226  0.22107  1.0000
  C   C1609     1.0  0.77202  0.29446  0.17459  1.0000
  C   C1610     1.0  0.75879  0.30197  0.16996  1.0000
  C   C1611     1.0  0.75438  0.26613  0.17216  1.0000
  H   H2585     1.0  0.92860  0.26201  0.43816  1.0000
  H   H2586     1.0  0.83075  0.38409  0.04817  1.0000
  C   C1612     1.0  0.76970  0.27648  0.17559  1.0000
  H   H2587     1.0  0.76036  0.31576  0.16909  1.0000
  H   H2588     1.0  0.79278  0.26648  0.10564  1.0000
  C   C1613     1.0  0.89551  0.25560  0.43480  1.0000
  H   H2589     1.0  0.77981  0.27052  0.17929  1.0000
  C   C1614     1.0  0.87083  0.38615  0.27704  1.0000
  C   C1615     1.0  0.86934  0.39163  0.25393  1.0000
  C   C1616     1.0  0.85841  0.38066  0.24367  1.0000
  C   C1617     1.0  0.84892  0.36396  0.25638  1.0000
  C   C1618     1.0  0.85041  0.35848  0.27949  1.0000
  C   C1619     1.0  0.86122  0.36952  0.28982  1.0000
  H   H2590     1.0  0.87677  0.40444  0.24384  1.0000
  H   H2591     1.0  0.85753  0.38503  0.22584  1.0000
  H   H2592     1.0  0.84315  0.34558  0.28947  1.0000
  H   H2593     1.0  0.86228  0.36507  0.30755  1.0000
  C   C1620     1.0  0.89864  0.45935  0.43773  1.0000
  C   C1621     1.0  0.90593  0.47255  0.41753  1.0000
  C   C1622     1.0  0.90495  0.46900  0.39554  1.0000
  C   C1623     1.0  0.89656  0.45229  0.39370  1.0000
  C   C1624     1.0  0.88977  0.43895  0.41385  1.0000
  C   C1625     1.0  0.89079  0.44250  0.43582  1.0000
  H   H2594     1.0  0.91225  0.48549  0.41885  1.0000
  H   H2595     1.0  0.91063  0.47922  0.37994  1.0000
  H   H2596     1.0  0.88333  0.42602  0.41255  1.0000
  H   H2597     1.0  0.88527  0.43218  0.45138  1.0000
  C   C1626     1.0  0.87835  0.36533  0.06764  1.0000
  C   C1627     1.0  0.88329  0.38295  0.06826  1.0000
  C   C1628     1.0  0.87462  0.38907  0.08623  1.0000
  C   C1629     1.0  0.86116  0.37760  0.10394  1.0000
  C   C1630     1.0  0.85653  0.35990  0.10366  1.0000
  C   C1631     1.0  0.86515  0.35380  0.08560  1.0000
  H   H2598     1.0  0.89382  0.39185  0.05498  1.0000
  H   H2599     1.0  0.87837  0.40275  0.08654  1.0000
  H   H2600     1.0  0.84624  0.35094  0.11730  1.0000
  H   H2601     1.0  0.86143  0.34009  0.08544  1.0000
  H   H2602     1.0  0.86681  0.48547  0.35571  1.0000
  H   H2603     1.0  0.94947  0.35302  0.06359  1.0000
  C   C1632     1.0  0.93529  0.39594  0.29014  1.0000
  H   H2604     1.0  0.92061  0.29721  0.42270  1.0000
  H   H2605     1.0  0.74149  0.43246  0.21199  1.0000
  H   H2606     1.0  0.77804  0.27848  0.09694  1.0000
  H   H2607     1.0  0.82074  0.48369  0.25432  1.0000
  C   C1633     1.0  0.84493  0.38750  0.04637  1.0000
  C   C1634     1.0  0.96767  0.45078  0.35674  1.0000
  C   C1635     1.0  0.96282  0.42221  0.34741  1.0000
  C   C1636     1.0  0.95381  0.42505  0.28320  1.0000
  C   C1637     1.0  0.86500  0.30352  0.41688  1.0000
  C   C1638     1.0  0.86858  0.31470  0.39476  1.0000
  C   C1639     1.0  0.87122  0.33280  0.39245  1.0000
  C   C1640     1.0  0.87030  0.33978  0.41230  1.0000
  C   C1641     1.0  0.86748  0.32867  0.43431  1.0000
  C   C1642     1.0  0.86490  0.31058  0.43662  1.0000
  H   H2608     1.0  0.86881  0.30931  0.37940  1.0000
  H   H2609     1.0  0.87337  0.34128  0.37542  1.0000
  H   H2610     1.0  0.86709  0.33412  0.44962  1.0000
  N   N160      1.0  0.80309  0.38270  0.26419  1.0000
  C   C1643     1.0  0.81615  0.39099  0.24226  1.0000
  C   C1644     1.0  0.79133  0.39390  0.26810  1.0000
  C   C1645     1.0  0.81175  0.38042  0.28382  1.0000
  C   C1646     1.0  0.79315  0.36546  0.26242  1.0000
  H   H2611     1.0  0.82477  0.38254  0.23826  1.0000
  H   H2612     1.0  0.82441  0.40370  0.24319  1.0000
  H   H2613     1.0  0.81003  0.39342  0.22720  1.0000
  H   H2614     1.0  0.79844  0.40704  0.26938  1.0000
  H   H2615     1.0  0.81987  0.39307  0.28527  1.0000
  H   H2616     1.0  0.82038  0.37169  0.28144  1.0000
  H   H2617     1.0  0.80231  0.37447  0.30074  1.0000
  H   H2618     1.0  0.80166  0.35670  0.25932  1.0000
  H   H2619     1.0  0.78654  0.36667  0.24767  1.0000
  N   N161      1.0  0.85418  0.39740  0.02251  1.0000
  H   H2620     1.0  0.93599  0.43189  0.25015  1.0000
  C   C1647     1.0  0.84916  0.41388  0.01703  1.0000
  C   C1648     1.0  0.84989  0.38683  0.00549  1.0000
  C   C1649     1.0  0.87289  0.40142  0.02105  1.0000
  C   C1650     1.0  0.89461  0.27733  0.45762  1.0000
  H   H2621     1.0  0.83594  0.38394  0.00555  1.0000
  H   H2622     1.0  0.77534  0.26840  0.12704  1.0000
  H   H2623     1.0  0.85241  0.42226  0.02940  1.0000
  H   H2624     1.0  0.85600  0.42156  0.99905  1.0000
  H   H2625     1.0  0.83510  0.41141  0.01799  1.0000
  N   N162      1.0  0.98554  0.49446  0.41910  1.0000
  S   S662      1.0  0.89864  0.46361  0.46561  1.0000
  C   C1651     1.0  0.91984  0.26664  0.45061  1.0000
  S   S663      1.0  0.88614  0.37201  0.98024  1.0000
  H   H2626     1.0  0.82544  0.29233  0.44169  1.0000
  H   H2627     1.0  0.95466  0.42131  0.99763  1.0000
  N   N163      1.0  0.94609  0.37824  0.05021  1.0000
  C   C1652     1.0  0.94979  0.37660  0.02571  1.0000
  C   C1653     1.0  0.92727  0.37280  0.05965  1.0000
  C   C1654     1.0  0.95294  0.39660  0.05122  1.0000
  C   C1655     1.0  0.95433  0.36695  0.06413  1.0000
  H   H2628     1.0  0.94474  0.36296  0.02413  1.0000
  H   H2629     1.0  0.85317  0.37411  0.00946  1.0000
  H   H2630     1.0  0.97314  0.47317  0.40559  1.0000
  H   H2631     1.0  0.92383  0.37395  0.07807  1.0000
  H   H2632     1.0  0.92066  0.38092  0.04929  1.0000
  H   H2633     1.0  0.92162  0.35900  0.05912  1.0000
  C   C1656     1.0  0.98028  0.42299  0.34641  1.0000
  H   H2634     1.0  0.94674  0.40539  0.04118  1.0000
  H   H2635     1.0  0.94775  0.39930  0.24450  1.0000
  H   H2636     1.0  0.95173  0.36780  0.08277  1.0000
  H   H2637     1.0  0.95066  0.39831  0.06948  1.0000
  H   H2638     1.0  0.87729  0.38929  0.02368  1.0000
  S   S664      1.0  0.75978  0.49232  0.15395  1.0000
  H   H2639     1.0  0.85170  0.47228  0.39707  1.0000
  Fe  Fe333     1.0  0.74273  0.48897  0.18930  1.0000
  H   H2640     1.0  0.98522  0.41226  0.34236  1.0000
  S   S665      1.0  0.92161  0.36244  0.98803  1.0000
  H   H2641     1.0  0.91467  0.25599  0.46674  1.0000
  C   C1657     1.0  0.82143  0.30466  0.44143  1.0000
  H   H2642     1.0  0.92195  0.41017  0.25624  1.0000
  H   H2643     1.0  0.84787  0.39508  0.05972  1.0000
  H   H2644     1.0  0.85718  0.39370  0.98738  1.0000
  H   H2645     1.0  0.90347  0.25058  0.42187  1.0000
  S   S666      1.0  0.81838  0.25185  0.46726  1.0000
  H   H2646     1.0  0.97175  0.44128  0.01736  1.0000
  H   H2647     1.0  0.88403  0.28119  0.45039  1.0000
  C   C1658     1.0  0.81087  0.32361  0.46407  1.0000
  C   C1659     1.0  0.74349  0.29163  0.16641  1.0000
  H   H2648     1.0  0.92149  0.42262  0.27805  1.0000
  H   H2649     1.0  0.83290  0.31564  0.43236  1.0000
  C   C1660     1.0  0.97647  0.41383  0.98086  1.0000
  H   H2650     1.0  0.82282  0.33438  0.45618  1.0000
  H   H2651     1.0  0.87186  0.47286  0.40504  1.0000
  C   C1661     1.0  0.97812  0.43435  0.00619  1.0000
  H   H2652     1.0  0.96707  0.40129  0.04363  1.0000
  H   H2653     1.0  0.78468  0.39576  0.25343  1.0000
  H   H2654     1.0  0.78317  0.35878  0.27862  1.0000
  H   H2655     1.0  0.90193  0.28883  0.46284  1.0000
  H   H2656     1.0  0.96270  0.46154  0.36060  1.0000
  C   C1662     1.0  0.95655  0.43614  0.35270  1.0000
  H   H2657     1.0  0.75275  0.25231  0.17336  1.0000
  H   H2658     1.0  0.78837  0.29327  0.46549  1.0000
  C   C1663     1.0  0.73967  0.44731  0.16882  1.0000
  H   H2659     1.0  0.94378  0.38498  0.01471  1.0000
  H   H2660     1.0  0.85721  0.48307  0.41967  1.0000
  H   H2661     1.0  0.74531  0.25221  0.12867  1.0000
  C   C1664     1.0  0.74978  0.25139  0.11030  1.0000
  N   N164      1.0  0.81442  0.30634  0.46526  1.0000
  H   H2662     1.0  0.94492  0.39010  0.29732  1.0000
  H   H2663     1.0  0.81023  0.48477  0.19592  1.0000
  H   H2664     1.0  0.96386  0.41990  0.29027  1.0000
  H   H2665     1.0  0.96161  0.42096  0.23926  1.0000
  H   H2666     1.0  0.87653  0.40875  0.03431  1.0000
  H   H2667     1.0  0.79685  0.48810  0.22106  1.0000
  H   H2668     1.0  0.96028  0.43765  0.27050  1.0000
  H   H2669     1.0  0.96524  0.40328  0.25901  1.0000
  S   S667      1.0  0.76119  0.47927  0.20885  1.0000
  H   H2670     1.0  0.78662  0.24815  0.07699  1.0000
  H   H2671     1.0  0.83934  0.47868  0.22000  1.0000
  H   H2672     1.0  0.92767  0.27799  0.45556  1.0000
  H   H2673     1.0  0.96133  0.49558  0.43879  1.0000
  C   C1665     1.0  0.95507  0.40883  0.25291  1.0000
  H   H2674     1.0  0.92722  0.38610  0.28292  1.0000
  H   H2675     1.0  0.94558  0.42791  0.29821  1.0000
  H   H2676     1.0  0.92674  0.39824  0.30516  1.0000
  H   H2677     1.0  0.84867  0.37510  0.05108  1.0000
  H   H2678     1.0  0.74800  0.26299  0.09883  1.0000
  C   C1666     1.0  0.93025  0.41961  0.26376  1.0000
  H   H2679     1.0  0.94314  0.43570  0.35355  1.0000
  C   C1667     1.0  0.96839  0.42299  0.99512  1.0000
  H   H2680     1.0  0.96855  0.37076  0.05740  1.0000
  H   H2681     1.0  0.98563  0.49098  0.45565  1.0000
  N   N165      1.0  0.94361  0.41238  0.27249  1.0000
  C   C1668     1.0  0.86243  0.48062  0.40242  1.0000
  H   H2682     1.0  0.78123  0.38804  0.28445  1.0000
  Fe  Fe334     1.0  0.90906  0.49149  0.46781  1.0000
  C   C1669     1.0  0.98510  0.45156  0.35585  1.0000
  C   C1670     1.0  0.74116  0.27366  0.16751  1.0000
  H   H2683     1.0  0.80769  0.47111  0.22414  1.0000
  C   C1671     1.0  0.91292  0.28517  0.41903  1.0000
  H   H2684     1.0  0.88468  0.25855  0.42727  1.0000
  C   C1672     1.0  0.83988  0.49201  0.21042  1.0000
  H   H2685     1.0  0.75300  0.45042  0.17170  1.0000
  H   H2686     1.0  0.75075  0.41886  0.17894  1.0000
  N   N166      1.0  0.76788  0.25056  0.10555  1.0000
  H   H2687     1.0  0.73758  0.41582  0.15831  1.0000
  H   H2688     1.0  0.90245  0.28878  0.41114  1.0000
  H   H2689     1.0  0.96386  0.38067  0.01780  1.0000
  C   C1673     1.0  0.77902  0.26667  0.10891  1.0000
  H   H2690     1.0  0.74070  0.44787  0.14987  1.0000
  C   C1674     1.0  0.87725  0.49325  0.36221  1.0000
  H   H2691     1.0  0.88680  0.48546  0.36379  1.0000
  C   C1675     1.0  0.80906  0.48472  0.21479  1.0000
  C   C1676     1.0  0.97967  0.47559  0.42003  1.0000
  H   H2692     1.0  0.80139  0.32535  0.45319  1.0000
  H   H2693     1.0  0.92139  0.28103  0.40561  1.0000
  H   H2694     1.0  0.97047  0.46850  0.43682  1.0000
  H   H2695     1.0  0.88029  0.40959  0.00372  1.0000
  H   H2696     1.0  0.84184  0.49193  0.19150  1.0000
  C   C1677     1.0  0.73722  0.41640  0.17685  1.0000
  C   C1678     1.0  0.76036  0.48478  0.69294  1.0000
  H   H2697     1.0  0.88878  0.48780  0.70059  1.0000
  Fe  Fe335     1.0  0.86737  0.26465  0.84818  1.0000
  S   S668      1.0  0.86713  0.29027  0.82679  1.0000
  C   C1679     1.0  0.74754  0.45779  0.67221  1.0000
  S   S669      1.0  0.82657  0.28233  0.85459  1.0000
  Fe  Fe336     1.0  0.84109  0.27613  0.82265  1.0000
  S   S670      1.0  0.83830  0.28171  0.78485  1.0000
  Fe  Fe337     1.0  0.85280  0.29469  0.85999  1.0000
  S   S671      1.0  0.86039  0.32161  0.86791  1.0000
  S   S672      1.0  0.85502  0.27014  0.88166  1.0000
  H   H2698     1.0  0.81288  0.32656  0.76539  1.0000
  H   H2699     1.0  0.75981  0.40615  0.70015  1.0000
  Fe  Fe338     1.0  0.96354  0.26407  0.55273  1.0000
  S   S673      1.0  0.94107  0.27334  0.54147  1.0000
  C   C1680     1.0  0.79747  0.27486  0.56667  1.0000
  S   S674      1.0  0.96407  0.29115  0.78656  1.0000
  Fe  Fe339     1.0  0.90734  0.36404  0.95914  1.0000
  Fe  Fe340     1.0  0.78231  0.27088  0.65530  1.0000
  S   S675      1.0  0.76802  0.28957  0.64162  1.0000
  H   H2700     1.0  0.74032  0.26558  0.58507  1.0000
  Fe  Fe341     1.0  0.77042  0.27338  0.70572  1.0000
  S   S676      1.0  0.75462  0.29194  0.69587  1.0000
  C   C1681     1.0  0.88014  0.48666  0.77003  1.0000
  Fe  Fe342     1.0  0.74611  0.27432  0.67206  1.0000
  Fe  Fe343     1.0  0.77768  0.30545  0.66652  1.0000
  S   S677      1.0  0.79233  0.33426  0.65465  1.0000
  S   S678      1.0  0.88941  0.25204  0.84929  1.0000
  S   S679      1.0  0.79383  0.28771  0.67775  1.0000
  H   H2701     1.0  0.88874  0.46071  0.68661  1.0000
  C   C1682     1.0  0.96491  0.32641  0.50122  1.0000
  H   H2702     1.0  0.87901  0.46021  0.86074  1.0000
  S   S680      1.0  0.90267  0.33971  0.94416  1.0000
  H   H2703     1.0  0.78938  0.28128  0.59979  1.0000
  H   H2704     1.0  0.82413  0.33237  0.70091  1.0000
  S   S681      1.0  0.92284  0.39159  0.94187  1.0000
  H   H2705     1.0  0.75806  0.27081  0.59883  1.0000
  H   H2706     1.0  0.91053  0.28166  0.53082  1.0000
  Fe  Fe344     1.0  0.83987  0.45277  0.65553  1.0000
  S   S682      1.0  0.84029  0.43240  0.68631  1.0000
  S   S683      1.0  0.86204  0.45612  0.62481  1.0000
  Fe  Fe345     1.0  0.81011  0.46260  0.68342  1.0000
  S   S684      1.0  0.80915  0.44349  0.71626  1.0000
  S   S685      1.0  0.79326  0.48134  0.68503  1.0000
  Fe  Fe346     1.0  0.83809  0.45283  0.70710  1.0000
  S   S686      1.0  0.85804  0.45671  0.72951  1.0000
  Fe  Fe347     1.0  0.81152  0.42485  0.69250  1.0000
  S   S687      1.0  0.79303  0.39754  0.70558  1.0000
  S   S688      1.0  0.83889  0.47339  0.67601  1.0000
  S   S689      1.0  0.81103  0.44366  0.66003  1.0000
  C   C1683     1.0  0.77153  0.47575  0.68317  1.0000
  H   H2707     1.0  0.80761  0.35267  0.71064  1.0000
  C   C1684     1.0  0.79834  0.29242  0.47578  1.0000
  H   H2708     1.0  0.82227  0.31270  0.72165  1.0000
  C   C1685     1.0  0.89642  0.25998  0.51933  1.0000
  C   C1686     1.0  0.76514  0.46244  0.67240  1.0000
  C   C1687     1.0  0.76096  0.41971  0.70251  1.0000
  H   H2709     1.0  0.74946  0.44549  0.71923  1.0000
  C   C1688     1.0  0.98085  0.24693  0.67828  1.0000
  H   H2710     1.0  0.77376  0.45570  0.66433  1.0000
  C   C1689     1.0  0.86881  0.47391  0.60038  1.0000
  C   C1690     1.0  0.88416  0.47572  0.58420  1.0000
  H   H2711     1.0  0.98485  0.27415  0.72671  1.0000
  H   H2712     1.0  0.78997  0.32073  0.76794  1.0000
  S   S690      1.0  0.91727  0.47295  0.85736  1.0000
  N   N167      1.0  0.89231  0.48605  0.66459  1.0000
  H   H2713     1.0  0.89186  0.46664  0.58736  1.0000
  S   S691      1.0  0.96468  0.39853  0.96777  1.0000
  H   H2714     1.0  0.79302  0.28489  0.55689  1.0000
  C   C1691     1.0  0.86221  0.47282  0.74607  1.0000
  C   C1692     1.0  0.87646  0.47421  0.75650  1.0000
  H   H2715     1.0  0.88475  0.46566  0.75399  1.0000
  C   C1693     1.0  0.90975  0.45899  0.88530  1.0000
  C   C1694     1.0  0.91617  0.44440  0.89036  1.0000
  C   C1695     1.0  0.90991  0.43255  0.91211  1.0000
  C   C1696     1.0  0.89704  0.43511  0.92884  1.0000
  C   C1697     1.0  0.89050  0.44967  0.92373  1.0000
  C   C1698     1.0  0.89690  0.46165  0.90203  1.0000
  H   H2716     1.0  0.92606  0.44225  0.87744  1.0000
  H   H2717     1.0  0.91498  0.42137  0.91578  1.0000
  H   H2718     1.0  0.88054  0.45174  0.93660  1.0000
  H   H2719     1.0  0.89185  0.47287  0.89822  1.0000
  C   C1699     1.0  0.79165  0.35190  0.66855  1.0000
  C   C1700     1.0  0.80475  0.36755  0.65991  1.0000
  C   C1701     1.0  0.80518  0.38174  0.67077  1.0000
  C   C1702     1.0  0.79243  0.38045  0.69042  1.0000
  C   C1703     1.0  0.77915  0.36490  0.69890  1.0000
  C   C1704     1.0  0.77874  0.35069  0.68804  1.0000
  H   H2720     1.0  0.81474  0.36867  0.64478  1.0000
  H   H2721     1.0  0.81546  0.39361  0.66404  1.0000
  H   H2722     1.0  0.76916  0.36380  0.71401  1.0000
  H   H2723     1.0  0.76842  0.33884  0.69466  1.0000
  C   C1705     1.0  0.75664  0.43815  0.72962  1.0000
  S   S692      1.0  0.85225  0.26638  0.48850  1.0000
  C   C1706     1.0  0.87033  0.32621  0.89103  1.0000
  C   C1707     1.0  0.87366  0.31306  0.90683  1.0000
  C   C1708     1.0  0.88320  0.31741  0.92339  1.0000
  C   C1709     1.0  0.88913  0.33487  0.92477  1.0000
  C   C1710     1.0  0.88521  0.34796  0.90959  1.0000
  C   C1711     1.0  0.87594  0.34364  0.89272  1.0000
  H   H2724     1.0  0.86912  0.29957  0.90610  1.0000
  H   H2725     1.0  0.88608  0.30720  0.93517  1.0000
  H   H2726     1.0  0.88977  0.36146  0.91039  1.0000
  H   H2727     1.0  0.87337  0.35389  0.88065  1.0000
  C   C1712     1.0  0.81955  0.27604  0.77399  1.0000
  C   C1713     1.0  0.82102  0.28032  0.74974  1.0000
  C   C1714     1.0  0.80642  0.27676  0.74020  1.0000
  C   C1715     1.0  0.79020  0.26863  0.75481  1.0000
  H   H2728     1.0  0.79235  0.34781  0.73800  1.0000
  C   C1716     1.0  0.80335  0.26784  0.78864  1.0000
  H   H2729     1.0  0.83354  0.28664  0.73833  1.0000
  H   H2730     1.0  0.80768  0.28046  0.72159  1.0000
  H   H2731     1.0  0.87541  0.47348  0.49854  1.0000
  C   C1717     1.0  0.91265  0.27780  0.81394  1.0000
  C   C1718     1.0  0.92928  0.28632  0.80032  1.0000
  C   C1719     1.0  0.94333  0.27958  0.80343  1.0000
  H   H2732     1.0  0.77052  0.44535  0.72372  1.0000
  C   C1720     1.0  0.79104  0.31818  0.72344  1.0000
  H   H2733     1.0  0.90191  0.28303  0.81126  1.0000
  H   H2734     1.0  0.93128  0.29820  0.78731  1.0000
  H   H2735     1.0  0.87311  0.49020  0.64538  1.0000
  H   H2736     1.0  0.85057  0.44978  0.83562  1.0000
  H   H2737     1.0  0.85921  0.46032  0.56262  1.0000
  C   C1721     1.0  0.98233  0.30610  0.49826  1.0000
  H   H2738     1.0  0.79290  0.29306  0.49397  1.0000
  H   H2739     1.0  0.82104  0.26495  0.66435  1.0000
  Fe  Fe348     1.0  0.82987  0.25700  0.87408  1.0000
  C   C1722     1.0  0.92378  0.26137  0.53146  1.0000
  H   H2740     1.0  0.86595  0.47077  0.82709  1.0000
  C   C1723     1.0  0.91033  0.26891  0.52739  1.0000
  H   H2741     1.0  0.98565  0.32039  0.70828  1.0000
  H   H2742     1.0  0.83982  0.26295  0.67502  1.0000
  C   C1724     1.0  0.82577  0.26155  0.68051  1.0000
  H   H2743     1.0  0.87097  0.48993  0.68795  1.0000
  H   H2744     1.0  0.90135  0.49037  0.55138  1.0000
  C   C1725     1.0  0.88541  0.46687  0.67042  1.0000
  S   S693      1.0  0.76003  0.25478  0.68443  1.0000
  H   H2745     1.0  0.84083  0.48335  0.74112  1.0000
  H   H2746     1.0  0.88862  0.26692  0.47373  1.0000
  C   C1726     1.0  0.94062  0.26416  0.82016  1.0000
  H   H2747     1.0  0.84613  0.44090  0.51463  1.0000
  C   C1727     1.0  0.79531  0.27278  0.59102  1.0000
  H   H2748     1.0  0.76216  0.24851  0.63011  1.0000
  N   N168      1.0  0.86611  0.45328  0.52989  1.0000
  C   C1728     1.0  0.88343  0.45198  0.53255  1.0000
  C   C1729     1.0  0.85907  0.44013  0.51732  1.0000
  C   C1730     1.0  0.86732  0.47091  0.51643  1.0000
  C   C1731     1.0  0.85465  0.45014  0.55316  1.0000
  H   H2749     1.0  0.84132  0.45042  0.55184  1.0000
  H   H2750     1.0  0.88305  0.43886  0.54259  1.0000
  C   C1732     1.0  0.88733  0.49355  0.64318  1.0000
  H   H2751     1.0  0.96603  0.32945  0.48202  1.0000
  C   C1733     1.0  0.74276  0.48009  0.69284  1.0000
  H   H2752     1.0  0.85787  0.42666  0.52706  1.0000
  H   H2753     1.0  0.85446  0.47263  0.51471  1.0000
  C   C1734     1.0  0.85540  0.49652  0.76279  1.0000
  H   H2754     1.0  0.87324  0.48124  0.52486  1.0000
  H   H2755     1.0  0.96292  0.33806  0.50775  1.0000
  C   C1735     1.0  0.97185  0.27646  0.72917  1.0000
  H   H2756     1.0  0.85400  0.43730  0.56431  1.0000
  N   N169      1.0  0.91560  0.31228  0.85781  1.0000
  C   C1736     1.0  0.91613  0.32149  0.83389  1.0000
  C   C1737     1.0  0.93026  0.30437  0.85756  1.0000
  C   C1738     1.0  0.89931  0.29842  0.86666  1.0000
  C   C1739     1.0  0.91664  0.32484  0.87311  1.0000
  H   H2757     1.0  0.90513  0.32750  0.83358  1.0000
  H   H2758     1.0  0.91531  0.31241  0.82189  1.0000
  H   H2759     1.0  0.92824  0.33207  0.82659  1.0000
  H   H2760     1.0  0.94280  0.31440  0.85070  1.0000
  H   H2761     1.0  0.93022  0.29738  0.87540  1.0000
  H   H2762     1.0  0.92980  0.29471  0.84634  1.0000
  H   H2763     1.0  0.89798  0.29168  0.88508  1.0000
  H   H2764     1.0  0.89841  0.28833  0.85611  1.0000
  H   H2765     1.0  0.88800  0.30382  0.86594  1.0000
  H   H2766     1.0  0.91563  0.31831  0.89155  1.0000
  H   H2767     1.0  0.90604  0.33141  0.87314  1.0000
  H   H2768     1.0  0.92896  0.33524  0.86734  1.0000
  N   N170      1.0  0.87703  0.44889  0.83103  1.0000
  C   C1740     1.0  0.89410  0.45979  0.81735  1.0000
  C   C1741     1.0  0.86353  0.45711  0.82475  1.0000
  C   C1742     1.0  0.87648  0.44723  0.85621  1.0000
  C   C1743     1.0  0.87404  0.43137  0.82581  1.0000
  H   H2769     1.0  0.90466  0.45435  0.82231  1.0000
  H   H2770     1.0  0.89663  0.47326  0.82039  1.0000
  H   H2771     1.0  0.89522  0.46086  0.79830  1.0000
  H   H2772     1.0  0.86296  0.45768  0.80617  1.0000
  H   H2773     1.0  0.86379  0.43923  0.86720  1.0000
  H   H2774     1.0  0.86129  0.42278  0.83590  1.0000
  H   H2775     1.0  0.88406  0.42486  0.83033  1.0000
  H   H2776     1.0  0.87438  0.43212  0.80693  1.0000
  H   H2777     1.0  0.86757  0.44209  0.49976  1.0000
  C   C1744     1.0  0.85907  0.48584  0.59631  1.0000
  S   S694      1.0  0.98674  0.26424  0.52608  1.0000
  H   H2778     1.0  0.80229  0.30587  0.76093  1.0000
  Fe  Fe349     1.0  0.82394  0.25362  0.50261  1.0000
  H   H2779     1.0  0.74259  0.44737  0.66405  1.0000
  H   H2780     1.0  0.89026  0.46096  0.65597  1.0000
  H   H2781     1.0  0.91546  0.48502  0.67640  1.0000
  H   H2782     1.0  0.80204  0.26448  0.80734  1.0000
  H   H2783     1.0  0.96757  0.28166  0.68545  1.0000
  S   S695      1.0  0.97900  0.28080  0.57230  1.0000
  H   H2784     1.0  0.83263  0.33333  0.72662  1.0000
  C   C1745     1.0  0.80499  0.34626  0.72948  1.0000
  C   C1746     1.0  0.82178  0.32647  0.71992  1.0000
  H   H2785     1.0  0.79012  0.30397  0.72665  1.0000
  C   C1747     1.0  0.74454  0.26291  0.60174  1.0000
  H   H2786     1.0  0.96676  0.30660  0.54142  1.0000
  H   H2787     1.0  0.96301  0.26530  0.72518  1.0000
  H   H2788     1.0  0.97646  0.32916  0.54008  1.0000
  H   H2789     1.0  0.88649  0.44103  0.86152  1.0000
  S   S696      1.0  0.80750  0.26696  0.52438  1.0000
  H   H2790     1.0  0.77490  0.42668  0.69707  1.0000
  N   N171      1.0  0.75366  0.41993  0.72689  1.0000
  C   C1748     1.0  0.85178  0.48416  0.74911  1.0000
  H   H2791     1.0  0.79311  0.32303  0.70426  1.0000
  H   H2792     1.0  0.77829  0.31961  0.73171  1.0000
  H   H2793     1.0  0.88606  0.26585  0.51673  1.0000
  H   H2794     1.0  0.82080  0.24910  0.72686  1.0000
  C   C1749     1.0  0.95501  0.29657  0.71990  1.0000
  H   H2795     1.0  0.82408  0.27147  0.69082  1.0000
  H   H2796     1.0  0.81504  0.35372  0.73693  1.0000
  S   S697      1.0  0.79772  0.25619  0.63465  1.0000
  N   N172      1.0  0.80505  0.32769  0.73269  1.0000
  C   C1750     1.0  0.88950  0.48906  0.56373  1.0000
  C   C1751     1.0  0.90997  0.26256  0.83098  1.0000
  H   H2797     1.0  0.89129  0.48788  0.77758  1.0000
  H   H2798     1.0  0.97656  0.30496  0.67775  1.0000
  C   C1752     1.0  0.80244  0.31991  0.75783  1.0000
  H   H2799     1.0  0.79520  0.25190  0.71108  1.0000
  H   H2800     1.0  0.95136  0.25886  0.82272  1.0000
  N   N173      1.0  0.97215  0.29329  0.71435  1.0000
  H   H2801     1.0  0.77620  0.41630  0.73868  1.0000
  C   C1753     1.0  0.82706  0.30469  0.47984  1.0000
  H   H2802     1.0  0.87115  0.46307  0.67356  1.0000
  H   H2803     1.0  0.84725  0.48462  0.60869  1.0000
  H   H2804     1.0  0.76526  0.49516  0.70121  1.0000
  H   H2805     1.0  0.75429  0.42600  0.69017  1.0000
  C   C1754     1.0  0.80550  0.26417  0.55491  1.0000
  H   H2806     1.0  0.88921  0.46174  0.54183  1.0000
  H   H2807     1.0  0.75687  0.40997  0.76128  1.0000
  H   H2808     1.0  0.80564  0.32535  0.48176  1.0000
  S   S698      1.0  0.84251  0.24995  0.84180  1.0000
  Fe  Fe350     1.0  0.90254  0.39948  0.96521  1.0000
  H   H2809     1.0  0.80065  0.27926  0.47684  1.0000
  S   S699      1.0  0.77152  0.26400  0.74348  1.0000
  H   H2810     1.0  0.95471  0.30919  0.70911  1.0000
  C   C1755     1.0  0.80094  0.25980  0.60387  1.0000
  H   H2811     1.0  0.82186  0.30506  0.49823  1.0000
  C   C1756     1.0  0.91127  0.49050  0.66058  1.0000
  H   H2812     1.0  0.96756  0.27609  0.74800  1.0000
  S   S700      1.0  0.88865  0.42017  0.95606  1.0000
  C   C1757     1.0  0.78875  0.26409  0.77904  1.0000
  H   H2813     1.0  0.75231  0.43878  0.74810  1.0000
  H   H2814     1.0  0.89243  0.45440  0.51529  1.0000
  Fe  Fe351     1.0  0.98696  0.27943  0.78562  1.0000
  C   C1758     1.0  0.92399  0.25572  0.83393  1.0000
  Fe  Fe352     1.0  0.98154  0.25596  0.59370  1.0000
  C   C1759     1.0  0.76208  0.41026  0.74268  1.0000
  C   C1760     1.0  0.97665  0.29265  0.68948  1.0000
  H   H2815     1.0  0.95308  0.31550  0.50921  1.0000
  H   H2816     1.0  0.95138  0.29712  0.73861  1.0000
  H   H2817     1.0  0.94489  0.28604  0.71677  1.0000
  H   H2818     1.0  0.91699  0.48524  0.64594  1.0000
  H   H2819     1.0  0.97102  0.29469  0.50634  1.0000
  C   C1761     1.0  0.97818  0.31777  0.53273  1.0000
  H   H2820     1.0  0.77624  0.25777  0.79050  1.0000
  H   H2821     1.0  0.83053  0.29209  0.48044  1.0000
  N   N174      1.0  0.98031  0.32167  0.50711  1.0000
  C   C1762     1.0  0.88527  0.49323  0.68417  1.0000
  H   H2822     1.0  0.89252  0.48844  0.62807  1.0000
  H   H2823     1.0  0.98383  0.30849  0.47902  1.0000
  C   C1763     1.0  0.98516  0.30745  0.71895  1.0000
  H   H2824     1.0  0.98235  0.30813  0.73766  1.0000
  C   C1764     1.0  0.81134  0.25135  0.56773  1.0000
  H   H2825     1.0  0.76036  0.39653  0.74078  1.0000
  Fe  Fe353     1.0  0.93549  0.39063  0.97258  1.0000
  C   C1765     1.0  0.80901  0.24915  0.59211  1.0000
  S   S701      1.0  0.91955  0.49619  0.49907  1.0000
  H   H2826     1.0  0.83909  0.31539  0.47313  1.0000
  S   S702      1.0  0.97585  0.24724  0.63371  1.0000
  Fe  Fe354     1.0  0.86290  0.60561  0.32153  1.0000
  S   S703      1.0  0.86104  0.57812  0.31688  1.0000
  S   S704      1.0  0.89035  0.62342  0.30760  1.0000
  Fe  Fe355     1.0  0.82366  0.59652  0.34207  1.0000
  S   S705      1.0  0.81948  0.56862  0.33916  1.0000
  S   S706      1.0  0.80010  0.60679  0.35103  1.0000
  Fe  Fe356     1.0  0.84368  0.56997  0.35266  1.0000
  S   S707      1.0  0.84456  0.54796  0.38134  1.0000
  Fe  Fe357     1.0  0.83708  0.57919  0.30361  1.0000
  S   S708      1.0  0.83187  0.57360  0.26882  1.0000
  S   S709      1.0  0.84666  0.59722  0.35834  1.0000
  S   S710      1.0  0.84023  0.60728  0.30565  1.0000
  Fe  Fe358     1.0  0.84367  0.58426  0.00956  1.0000
  S   S711      1.0  0.83174  0.60660  0.00969  1.0000
  S   S712      1.0  0.83891  0.56174  0.04056  1.0000
  H   H2827     1.0  0.78429  0.58237  0.31295  1.0000
  S   S713      1.0  0.87054  0.60117  0.99341  1.0000
  Fe  Fe359     1.0  0.98476  0.72002  0.04876  1.0000
  H   H2828     1.0  0.96413  0.66636  0.02749  1.0000
  H   H2829     1.0  0.97448  0.51607  0.42113  1.0000
  H   H2830     1.0  0.96806  0.70622  0.21665  1.0000
  Fe  Fe360     1.0  0.96245  0.71246  0.30198  1.0000
  S   S714      1.0  0.93566  0.69507  0.32155  1.0000
  H   H2831     1.0  0.93055  0.63287  0.36883  1.0000
  S   S715      1.0  0.96378  0.72373  0.02999  1.0000
  Fe  Fe361     1.0  0.96195  0.71612  0.09735  1.0000
  S   S716      1.0  0.96717  0.69716  0.07561  1.0000
  S   S717      1.0  0.96150  0.70675  0.13617  1.0000
  Fe  Fe362     1.0  0.94592  0.70137  0.05787  1.0000
  S   S718      1.0  0.93218  0.67584  0.04906  1.0000
  S   S719      1.0  0.93894  0.71846  0.08218  1.0000
  H   H2832     1.0  0.88144  0.68113  0.01620  1.0000
  C   C1766     1.0  0.97921  0.67206  0.98191  1.0000
  Fe  Fe363     1.0  0.91402  0.53021  0.44783  1.0000
  S   S720      1.0  0.93056  0.51189  0.44238  1.0000
  S   S721      1.0  0.91378  0.54949  0.41536  1.0000
  C   C1767     1.0  0.78708  0.55592  0.98975  1.0000
  C   C1768     1.0  0.98179  0.73291  0.15225  1.0000
  H   H2833     1.0  0.79700  0.62843  0.28002  1.0000
  H   H2834     1.0  0.80898  0.61840  0.29820  1.0000
  C   C1769     1.0  0.80941  0.60507  0.25994  1.0000
  Fe  Fe364     1.0  0.77302  0.50737  0.20878  1.0000
  H   H2835     1.0  0.95598  0.69429  0.18569  1.0000
  S   S722      1.0  0.77984  0.51164  0.24332  1.0000
  Fe  Fe365     1.0  0.77154  0.51940  0.15779  1.0000
  S   S723      1.0  0.77664  0.54359  0.12883  1.0000
  S   S724      1.0  0.75313  0.51669  0.19205  1.0000
  H   H2836     1.0  0.79535  0.53191  0.01966  1.0000
  N   N175      1.0  0.78447  0.55391  0.01532  1.0000
  H   H2837     1.0  0.78617  0.61362  0.30762  1.0000
  H   H2838     1.0  0.88372  0.50543  0.34861  1.0000
  H   H2839     1.0  0.88026  0.51009  0.41005  1.0000
  H   H2840     1.0  0.81337  0.51887  0.21083  1.0000
  C   C1770     1.0  0.98397  0.73003  0.19325  1.0000
  S   S725      1.0  0.83777  0.57968  0.97550  1.0000
  H   H2841     1.0  0.80068  0.57933  0.01289  1.0000
  C   C1771     1.0  0.96992  0.71651  0.15778  1.0000
  S   S726      1.0  0.96872  0.52181  0.46998  1.0000
  Fe  Fe366     1.0  0.85839  0.62355  0.99158  1.0000
  H   H2842     1.0  0.76411  0.53031  0.02294  1.0000
  H   H2843     1.0  0.91151  0.63732  0.38395  1.0000
  C   C1772     1.0  0.82184  0.55722  0.06526  1.0000
  C   C1773     1.0  0.81098  0.56822  0.06770  1.0000
  C   C1774     1.0  0.79721  0.56393  0.08733  1.0000
  C   C1775     1.0  0.79423  0.54866  0.10467  1.0000
  C   C1776     1.0  0.80517  0.53773  0.10228  1.0000
  C   C1777     1.0  0.81893  0.54203  0.08265  1.0000
  H   H2844     1.0  0.81311  0.57995  0.05445  1.0000
  H   H2845     1.0  0.78878  0.57244  0.08915  1.0000
  H   H2846     1.0  0.80297  0.52593  0.11550  1.0000
  H   H2847     1.0  0.82728  0.53344  0.08085  1.0000
  C   C1778     1.0  0.88702  0.65643  0.01474  1.0000
  C   C1779     1.0  0.88998  0.67305  0.01994  1.0000
  C   C1780     1.0  0.90382  0.67936  0.03008  1.0000
  C   C1781     1.0  0.91481  0.66900  0.03548  1.0000
  C   C1782     1.0  0.91189  0.65238  0.03022  1.0000
  C   C1783     1.0  0.89821  0.64617  0.01977  1.0000
  H   H2848     1.0  0.90581  0.69215  0.03399  1.0000
  H   H2849     1.0  0.92028  0.64421  0.03428  1.0000
  H   H2850     1.0  0.89627  0.63342  0.01579  1.0000
  C   C1784     1.0  0.86376  0.54965  0.39122  1.0000
  C   C1785     1.0  0.87970  0.55814  0.37607  1.0000
  C   C1786     1.0  0.89495  0.55786  0.38369  1.0000
  C   C1787     1.0  0.89435  0.54945  0.40660  1.0000
  C   C1788     1.0  0.87841  0.54120  0.42186  1.0000
  C   C1789     1.0  0.86316  0.54116  0.41409  1.0000
  H   H2851     1.0  0.88027  0.56444  0.35828  1.0000
  H   H2852     1.0  0.90729  0.56400  0.37177  1.0000
  H   H2853     1.0  0.87782  0.53485  0.43962  1.0000
  H   H2854     1.0  0.85084  0.53459  0.42588  1.0000
  C   C1790     1.0  0.78675  0.60059  0.37958  1.0000
  C   C1791     1.0  0.77277  0.60783  0.38463  1.0000
  C   C1792     1.0  0.76182  0.60301  0.40712  1.0000
  C   C1793     1.0  0.76471  0.59078  0.42472  1.0000
  C   C1794     1.0  0.77871  0.58361  0.41962  1.0000
  C   C1795     1.0  0.78964  0.58844  0.39720  1.0000
  H   H2855     1.0  0.77054  0.61739  0.37118  1.0000
  N   N176      1.0  0.97508  0.68516  0.99481  1.0000
  H   H2856     1.0  0.78111  0.57422  0.43313  1.0000
  H   H2857     1.0  0.80036  0.58279  0.39360  1.0000
  C   C1796     1.0  0.81686  0.55647  0.26239  1.0000
  C   C1797     1.0  0.81507  0.55762  0.23920  1.0000
  C   C1798     1.0  0.80349  0.54430  0.23311  1.0000
  C   C1799     1.0  0.79368  0.52951  0.25015  1.0000
  C   C1800     1.0  0.79539  0.52842  0.27338  1.0000
  C   C1801     1.0  0.80683  0.54185  0.27952  1.0000
  H   H2858     1.0  0.82273  0.56890  0.22581  1.0000
  H   H2859     1.0  0.80224  0.54543  0.21521  1.0000
  H   H2860     1.0  0.78785  0.51707  0.28673  1.0000
  H   H2861     1.0  0.80804  0.54077  0.29742  1.0000
  C   C1802     1.0  0.90219  0.64404  0.31058  1.0000
  C   C1803     1.0  0.91957  0.65052  0.29857  1.0000
  C   C1804     1.0  0.92987  0.66628  0.30126  1.0000
  C   C1805     1.0  0.92297  0.67572  0.31624  1.0000
  C   C1806     1.0  0.90558  0.66925  0.32823  1.0000
  C   C1807     1.0  0.89520  0.65360  0.32532  1.0000
  H   H2862     1.0  0.92514  0.64329  0.28709  1.0000
  H   H2863     1.0  0.94321  0.67102  0.29195  1.0000
  H   H2864     1.0  0.90008  0.67645  0.33984  1.0000
  H   H2865     1.0  0.88186  0.64888  0.33462  1.0000
  N   N177      1.0  0.79485  0.60130  0.28030  1.0000
  N   N178      1.0  0.90703  0.61323  0.37239  1.0000
  C   C1808     1.0  0.91396  0.60654  0.35226  1.0000
  C   C1809     1.0  0.88861  0.61214  0.37358  1.0000
  C   C1810     1.0  0.90889  0.60263  0.39421  1.0000
  H   H2866     1.0  0.91350  0.61479  0.33546  1.0000
  H   H2867     1.0  0.90637  0.59310  0.35307  1.0000
  H   H2868     1.0  0.92760  0.60634  0.35141  1.0000
  H   H2869     1.0  0.88670  0.61986  0.35735  1.0000
  H   H2870     1.0  0.88099  0.59843  0.37578  1.0000
  H   H2871     1.0  0.88292  0.61720  0.38842  1.0000
  H   H2872     1.0  0.90417  0.60761  0.40966  1.0000
  H   H2873     1.0  0.92254  0.60260  0.39371  1.0000
  H   H2874     1.0  0.90137  0.58880  0.39733  1.0000
  N   N179      1.0  0.85203  0.61423  0.07150  1.0000
  C   C1811     1.0  0.84492  0.60032  0.09304  1.0000
  C   C1812     1.0  0.83795  0.62076  0.06391  1.0000
  C   C1813     1.0  0.86055  0.60706  0.05297  1.0000
  C   C1814     1.0  0.86470  0.62876  0.07599  1.0000
  H   H2875     1.0  0.85525  0.59518  0.09929  1.0000
  H   H2876     1.0  0.83548  0.58907  0.09009  1.0000
  H   H2877     1.0  0.83818  0.60515  0.10737  1.0000
  H   H2878     1.0  0.84286  0.63104  0.04737  1.0000
  H   H2879     1.0  0.82802  0.61011  0.06068  1.0000
  H   H2880     1.0  0.83144  0.62661  0.07724  1.0000
  H   H2881     1.0  0.86586  0.61713  0.03639  1.0000
  H   H2882     1.0  0.85141  0.59599  0.04924  1.0000
  H   H2883     1.0  0.87140  0.60217  0.05787  1.0000
  H   H2884     1.0  0.86978  0.63972  0.06027  1.0000
  H   H2885     1.0  0.87594  0.62458  0.08075  1.0000
  H   H2886     1.0  0.85888  0.63416  0.09038  1.0000
  C   C1815     1.0  0.77851  0.59864  0.27243  1.0000
  H   H2887     1.0  0.77671  0.58754  0.26357  1.0000
  H   H2888     1.0  0.77818  0.61045  0.25986  1.0000
  H   H2889     1.0  0.76728  0.59571  0.28741  1.0000
  H   H2890     1.0  0.80852  0.59402  0.25098  1.0000
  H   H2891     1.0  0.79298  0.57377  0.28888  1.0000
  H   H2892     1.0  0.98681  0.67678  0.02284  1.0000
  H   H2893     1.0  0.83258  0.50633  0.24742  1.0000
  S   S727      1.0  0.79205  0.51196  0.17476  1.0000
  H   H2894     1.0  0.91583  0.63989  0.35292  1.0000
  C   C1816     1.0  0.79680  0.61610  0.29195  1.0000
  C   C1817     1.0  0.95824  0.68791  0.99189  1.0000
  H   H2895     1.0  0.74267  0.58009  0.37332  1.0000
  H   H2896     1.0  0.86315  0.51967  0.36895  1.0000
  C   C1818     1.0  0.79679  0.54493  0.02397  1.0000
  H   H2897     1.0  0.75133  0.60892  0.41091  1.0000
  C   C1819     1.0  0.78729  0.57131  0.02088  1.0000
  C   C1820     1.0  0.79467  0.58531  0.29691  1.0000
  H   H2898     1.0  0.79496  0.54292  0.04327  1.0000
  S   S728      1.0  0.75115  0.58359  0.45315  1.0000
  C   C1821     1.0  0.82539  0.51490  0.20558  1.0000
  C   C1822     1.0  0.76670  0.54354  0.02674  1.0000
  C   C1823     1.0  0.85750  0.50700  0.38194  1.0000
  C   C1824     1.0  0.91665  0.63161  0.36947  1.0000
  S   S729      1.0  0.97925  0.72740  0.32213  1.0000
  C   C1825     1.0  0.97195  0.71375  0.19880  1.0000
  H   H2899     1.0  0.77864  0.57874  0.01390  1.0000
  H   H2900     1.0  0.89519  0.50110  0.39377  1.0000
  H   H2901     1.0  0.76433  0.54182  0.04607  1.0000
  S   S730      1.0  0.98436  0.70530  0.28058  1.0000
  S   S731      1.0  0.98075  0.73907  0.07139  1.0000
  Fe  Fe367     1.0  0.82752  0.60326  0.97415  1.0000
  S   S732      1.0  0.86858  0.64874  0.00348  1.0000
  S   S733      1.0  0.96460  0.73682  0.27523  1.0000
  H   H2902     1.0  0.78502  0.54309  0.98481  1.0000
  H   H2903     1.0  0.80700  0.58673  0.30258  1.0000
  H   H2904     1.0  0.78505  0.57035  0.04004  1.0000
  H   H2905     1.0  0.83610  0.52475  0.20877  1.0000
  H   H2906     1.0  0.82196  0.60714  0.26527  1.0000
  H   H2907     1.0  0.80995  0.61700  0.24694  1.0000
  H   H2908     1.0  0.81036  0.55263  0.01619  1.0000
  H   H2909     1.0  0.82758  0.51572  0.18643  1.0000
  C   C1826     1.0  0.96511  0.70701  0.18115  1.0000
  C   C1827     1.0  0.97053  0.50184  0.42170  1.0000
  H   H2910     1.0  0.94775  0.67560  0.99865  1.0000
  Fe  Fe368     1.0  0.95812  0.74077  0.05494  1.0000
  H   H2911     1.0  0.75711  0.55002  0.02063  1.0000
  H   H2912     1.0  0.96342  0.50001  0.40769  1.0000
  H   H2913     1.0  0.96926  0.65935  0.98847  1.0000
  H   H2914     1.0  0.85204  0.51011  0.39864  1.0000
  H   H2915     1.0  0.95456  0.69748  0.00177  1.0000
  H   H2916     1.0  0.74838  0.56949  0.39863  1.0000
  H   H2917     1.0  0.97116  0.68838  0.03004  1.0000
  H   H2918     1.0  0.98562  0.74043  0.13442  1.0000
  C   C1828     1.0  0.88474  0.50769  0.39252  1.0000
  H   H2919     1.0  0.80974  0.50048  0.25063  1.0000
  H   H2920     1.0  0.98596  0.71193  0.99517  1.0000
  H   H2921     1.0  0.89056  0.52065  0.38026  1.0000
  C   C1829     1.0  0.97429  0.67882  0.01985  1.0000
  H   H2922     1.0  0.74124  0.55708  0.37853  1.0000
  H   H2923     1.0  0.95833  0.69287  0.97327  1.0000
  H   H2924     1.0  0.80036  0.56375  0.98061  1.0000
  H   H2925     1.0  0.77817  0.56291  0.98259  1.0000
  C   C1830     1.0  0.73913  0.56783  0.38708  1.0000
  H   H2926     1.0  0.84658  0.49957  0.37595  1.0000
  H   H2927     1.0  0.85145  0.50120  0.21286  1.0000
  N   N180      1.0  0.87048  0.49714  0.38477  1.0000
  S   S734      1.0  0.89162  0.50918  0.47086  1.0000
  C   C1831     1.0  0.82172  0.49686  0.24386  1.0000
  N   N181      1.0  0.82402  0.49711  0.21868  1.0000
  H   H2928     1.0  0.85821  0.55326  0.85994  1.0000
  S   S735      1.0  0.85294  0.62249  0.95589  1.0000
  S   S736      1.0  0.74166  0.73337  0.55641  1.0000
  H   H2929     1.0  0.76133  0.73437  0.82444  1.0000
  H   H2930     1.0  0.89213  0.50803  0.63831  1.0000
  H   H2931     1.0  0.75988  0.49826  0.64296  1.0000
  H   H2932     1.0  0.84255  0.54465  0.84452  1.0000
  C   C1832     1.0  0.81527  0.55024  0.87175  1.0000
  C   C1833     1.0  0.77457  0.72214  0.78848  1.0000
  C   C1834     1.0  0.97615  0.55645  0.86623  1.0000
  H   H2933     1.0  0.84091  0.53447  0.87442  1.0000
  C   C1835     1.0  0.83874  0.57558  0.85237  1.0000
  S   S737      1.0  0.77507  0.57921  0.87820  1.0000
  S   S738      1.0  0.74593  0.59197  0.83412  1.0000
  H   H2934     1.0  0.81277  0.54766  0.85479  1.0000
  H   H2935     1.0  0.80282  0.72390  0.80578  1.0000
  H   H2936     1.0  0.74798  0.52228  0.59161  1.0000
  H   H2937     1.0  0.78499  0.73413  0.77932  1.0000
  S   S739      1.0  0.88106  0.49750  0.85218  1.0000
  H   H2938     1.0  0.81097  0.53755  0.88477  1.0000
  C   C1836     1.0  0.98117  0.53674  0.48284  1.0000
  C   C1837     1.0  0.76085  0.70084  0.82447  1.0000
  S   S740      1.0  0.92483  0.53823  0.47760  1.0000
  C   C1838     1.0  0.76094  0.50808  0.62675  1.0000
  H   H2939     1.0  0.97776  0.56421  0.51962  1.0000
  C   C1839     1.0  0.84425  0.54729  0.86175  1.0000
  Fe  Fe369     1.0  0.88743  0.52136  0.86670  1.0000
  S   S741      1.0  0.89519  0.53980  0.83168  1.0000
  S   S742      1.0  0.86806  0.52395  0.89701  1.0000
  N   N182      1.0  0.83366  0.55871  0.86960  1.0000
  S   S743      1.0  0.91808  0.51434  0.81391  1.0000
  Fe  Fe370     1.0  0.92189  0.53667  0.83214  1.0000
  S   S744      1.0  0.94491  0.56063  0.82054  1.0000
  Fe  Fe371     1.0  0.89065  0.51571  0.81686  1.0000
  H   H2940     1.0  0.77398  0.72706  0.84391  1.0000
  S   S745      1.0  0.91429  0.51977  0.86841  1.0000
  H   H2941     1.0  0.91691  0.50489  0.65611  1.0000
  H   H2942     1.0  0.75749  0.53540  0.64559  1.0000
  S   S746      1.0  0.73801  0.69073  0.78082  1.0000
  H   H2943     1.0  0.83099  0.58453  0.85770  1.0000
  H   H2944     1.0  0.97988  0.67641  0.96294  1.0000
  C   C1840     1.0  0.97589  0.57959  0.82581  1.0000
  Fe  Fe372     1.0  0.74878  0.57711  0.86849  1.0000
  H   H2945     1.0  0.85254  0.58235  0.85034  1.0000
  C   C1841     1.0  0.79175  0.71233  0.81427  1.0000
  C   C1842     1.0  0.77361  0.73076  0.82521  1.0000
  H   H2946     1.0  0.77556  0.71172  0.77872  1.0000
  H   H2947     1.0  0.84996  0.56883  0.89127  1.0000
  H   H2948     1.0  0.91364  0.57615  0.92253  1.0000
  C   C1843     1.0  0.96309  0.55226  0.85408  1.0000
  C   C1844     1.0  0.96261  0.56404  0.83415  1.0000
  H   H2949     1.0  0.76273  0.69458  0.58677  1.0000
  H   H2950     1.0  0.95312  0.54014  0.86051  1.0000
  H   H2951     1.0  0.74815  0.70346  0.82362  1.0000
  H   H2952     1.0  0.89007  0.50769  0.68040  1.0000
  C   C1845     1.0  0.74783  0.52856  0.60677  1.0000
  C   C1846     1.0  0.97355  0.54591  0.49758  1.0000
  H   H2953     1.0  0.83354  0.54923  0.90566  1.0000
  H   H2954     1.0  0.95975  0.54398  0.50124  1.0000
  N   N183      1.0  0.74612  0.51580  0.62867  1.0000
  H   H2955     1.0  0.97569  0.58876  0.81034  1.0000
  H   H2956     1.0  0.76078  0.69617  0.84316  1.0000
  H   H2957     1.0  0.79332  0.70166  0.80522  1.0000
  Fe  Fe373     1.0  0.90360  0.51543  0.50056  1.0000
  C   C1847     1.0  0.98379  0.55737  0.50798  1.0000
  C   C1848     1.0  0.87950  0.50068  0.55926  1.0000
  Fe  Fe374     1.0  0.93993  0.51838  0.47378  1.0000
  S   S747      1.0  0.88517  0.51684  0.53300  1.0000
  C   C1849     1.0  0.86947  0.49772  0.77354  1.0000
  C   C1850     1.0  0.87716  0.57601  0.91917  1.0000
  C   C1851     1.0  0.88501  0.57519  0.89669  1.0000
  C   C1852     1.0  0.88240  0.55922  0.88979  1.0000
  C   C1853     1.0  0.87178  0.54404  0.90529  1.0000
  C   C1854     1.0  0.86355  0.54493  0.92753  1.0000
  C   C1855     1.0  0.86632  0.56086  0.93453  1.0000
  H   H2958     1.0  0.89313  0.58694  0.88457  1.0000
  H   H2959     1.0  0.88853  0.55867  0.87245  1.0000
  H   H2960     1.0  0.85529  0.53320  0.93957  1.0000
  H   H2961     1.0  0.86040  0.56131  0.95199  1.0000
  C   C1856     1.0  0.79383  0.59530  0.94190  1.0000
  C   C1857     1.0  0.77643  0.59309  0.94089  1.0000
  C   C1858     1.0  0.77044  0.58830  0.92155  1.0000
  C   C1859     1.0  0.78183  0.58570  0.90288  1.0000
  C   C1860     1.0  0.79923  0.58798  0.90390  1.0000
  C   C1861     1.0  0.80520  0.59263  0.92329  1.0000
  H   H2962     1.0  0.76752  0.59521  0.95509  1.0000
  H   H2963     1.0  0.75703  0.58666  0.92104  1.0000
  H   H2964     1.0  0.80819  0.58647  0.88935  1.0000
  H   H2965     1.0  0.81865  0.59448  0.92366  1.0000
  S   S748      1.0  0.87322  0.51332  0.79093  1.0000
  Fe  Fe375     1.0  0.86340  0.59882  0.95917  1.0000
  S   S749      1.0  0.74624  0.73784  0.75278  1.0000
  S   S750      1.0  0.80068  0.60121  0.96680  1.0000
  H   H2966     1.0  0.75167  0.67109  0.62267  1.0000
  C   C1862     1.0  0.83640  0.56174  0.89251  1.0000
  H   H2967     1.0  0.83685  0.57378  0.83486  1.0000
  H   H2968     1.0  0.74493  0.66909  0.50308  1.0000
  H   H2969     1.0  0.82813  0.56971  0.89950  1.0000
  H   H2970     1.0  0.80687  0.55857  0.87736  1.0000
  N   N184      1.0  0.93597  0.57764  0.89625  1.0000
  C   C1863     1.0  0.94299  0.56617  0.91193  1.0000
  C   C1864     1.0  0.92576  0.56712  0.88311  1.0000
  C   C1865     1.0  0.95029  0.59122  0.87970  1.0000
  C   C1866     1.0  0.92487  0.58599  0.91026  1.0000
  H   H2971     1.0  0.95111  0.57370  0.92175  1.0000
  H   H2972     1.0  0.95122  0.55949  0.90192  1.0000
  H   H2973     1.0  0.93251  0.55587  0.92480  1.0000
  H   H2974     1.0  0.92035  0.57533  0.87095  1.0000
  H   H2975     1.0  0.93372  0.56070  0.87228  1.0000
  H   H2976     1.0  0.91493  0.55661  0.89502  1.0000
  H   H2977     1.0  0.94549  0.59996  0.86734  1.0000
  H   H2978     1.0  0.95892  0.58532  0.86901  1.0000
  H   H2979     1.0  0.95835  0.59941  0.88892  1.0000
  H   H2980     1.0  0.91962  0.59505  0.89899  1.0000
  H   H2981     1.0  0.93204  0.59372  0.92081  1.0000
  H   H2982     1.0  0.79266  0.70801  0.83266  1.0000
  S   S751      1.0  0.88172  0.59598  0.92779  1.0000
  H   H2983     1.0  0.75987  0.53927  0.60286  1.0000
  Fe  Fe376     1.0  0.90865  0.49763  0.85041  1.0000
  H   H2984     1.0  0.74907  0.69830  0.56709  1.0000
  H   H2985     1.0  0.74520  0.70385  0.59500  1.0000
  N   N185      1.0  0.77520  0.71651  0.81314  1.0000
  H   H2986     1.0  0.76162  0.68988  0.81563  1.0000
  H   H2987     1.0  0.74437  0.51546  0.66510  1.0000
  H   H2988     1.0  0.74796  0.65877  0.78458  1.0000
  H   H2989     1.0  0.77331  0.51820  0.62383  1.0000
  C   C1867     1.0  0.74561  0.52469  0.64829  1.0000
  H   H2990     1.0  0.75666  0.66355  0.58363  1.0000
  H   H2991     1.0  0.84717  0.50515  0.76516  1.0000
  H   H2992     1.0  0.76221  0.72525  0.78719  1.0000
  C   C1868     1.0  0.74918  0.69404  0.58582  1.0000
  H   H2993     1.0  0.97606  0.54751  0.88209  1.0000
  C   C1869     1.0  0.73769  0.65711  0.79959  1.0000
  H   H2994     1.0  0.73784  0.63060  0.81395  1.0000
  H   H2995     1.0  0.85670  0.50824  0.57254  1.0000
  H   H2996     1.0  0.76179  0.50133  0.61205  1.0000
  C   C1870     1.0  0.74322  0.66390  0.58308  1.0000
  C   C1871     1.0  0.86442  0.49919  0.57580  1.0000
  H   H2997     1.0  0.74276  0.66756  0.56432  1.0000
  H   H2998     1.0  0.78415  0.74285  0.81690  1.0000
  C   C1872     1.0  0.73839  0.67123  0.62089  1.0000
  N   N186      1.0  0.73767  0.67637  0.59614  1.0000
  H   H2999     1.0  0.78636  0.96733  0.11547  1.0000
  S   S752      1.0  0.96174  0.88424  0.42443  1.0000
  C   C1873     1.0  0.98062  0.94160  0.03506  1.0000
  H   H3000     1.0  0.97658  0.94876  0.04773  1.0000
  H   H3001     1.0  0.77594  0.97354  0.41802  1.0000
  C   C1874     1.0  0.97237  0.85114  0.06089  1.0000
  C   C1875     1.0  0.74935  0.95345  0.09799  1.0000
  N   N187      1.0  0.83578  0.80675  0.47016  1.0000
  H   H3002     1.0  0.77670  0.99205  0.43103  1.0000
  H   H3003     1.0  0.78487  0.98791  0.07995  1.0000
  C   C1876     1.0  0.80739  0.98861  0.98612  1.0000
  S   S753      1.0  0.89147  0.96615  0.00349  1.0000
  C   C1877     1.0  0.97489  0.78710  0.01034  1.0000
  Fe  Fe377     1.0  0.86590  0.86273  0.47058  1.0000
  C   C1878     1.0  0.96710  0.97029  0.99725  1.0000
  H   H3004     1.0  0.84829  0.96560  0.39609  1.0000
  Fe  Fe378     1.0  0.98063  0.87366  0.40244  1.0000
  H   H3005     1.0  0.82408  0.82578  0.45438  1.0000
  H   H3006     1.0  0.84579  0.97289  0.29551  1.0000
  S   S754      1.0  0.94882  0.76531  0.04691  1.0000
  H   H3007     1.0  0.84292  0.93360  0.40064  1.0000
  S   S755      1.0  0.83702  0.90564  0.44029  1.0000
  C   C1879     1.0  0.77862  0.98992  0.00474  1.0000
  C   C1880     1.0  0.84543  0.95382  0.45448  1.0000
  H   H3008     1.0  0.98233  0.85103  0.07138  1.0000
  C   C1881     1.0  0.77468  0.97244  0.01655  1.0000
  C   C1882     1.0  0.78724  0.96317  0.01324  1.0000
  C   C1883     1.0  0.80350  0.97119  0.99812  1.0000
  Fe  Fe379     1.0  0.98319  0.75104  0.29352  1.0000
  H   H3009     1.0  0.78433  0.94964  0.02226  1.0000
  H   H3010     1.0  0.92331  0.98762  0.30513  1.0000
  H   H3011     1.0  0.91624  0.90823  0.37794  1.0000
  H   H3012     1.0  0.96203  0.77242  0.25979  1.0000
  H   H3013     1.0  0.84586  0.95940  0.46961  1.0000
  C   C1884     1.0  0.91035  0.98118  0.00460  1.0000
  C   C1885     1.0  0.91925  0.97719  0.02200  1.0000
  H   H3014     1.0  0.94165  0.98554  0.03579  1.0000
  H   H3015     1.0  0.92095  0.88893  0.39235  1.0000
  C   C1886     1.0  0.96546  0.85055  0.02347  1.0000
  H   H3016     1.0  0.91413  0.96511  0.03512  1.0000
  H   H3017     1.0  0.94325  0.92748  0.38389  1.0000
  C   C1887     1.0  0.84188  0.92837  0.43756  1.0000
  H   H3018     1.0  0.94935  0.82192  0.99989  1.0000
  H   H3019     1.0  0.98605  0.94417  0.35257  1.0000
  H   H3020     1.0  0.84697  0.83051  0.44384  1.0000
  H   H3021     1.0  0.91780  0.89091  0.36312  1.0000
  C   C1888     1.0  0.80947  0.97473  0.41259  1.0000
  H   H3022     1.0  0.96512  0.89850  0.35573  1.0000
  H   H3023     1.0  0.91006  0.83948  0.42347  1.0000
  H   H3024     1.0  0.93654  0.79478  0.03093  1.0000
  H   H3025     1.0  0.81664  0.78616  0.46374  1.0000
  H   H3026     1.0  0.95619  0.92225  0.04344  1.0000
  H   H3027     1.0  0.81297  0.96384  0.99564  1.0000
  C   C1889     1.0  0.94935  0.79697  0.02040  1.0000
  N   N188      1.0  0.80142  0.98904  0.41598  1.0000
  C   C1890     1.0  0.91064  0.87284  0.45120  1.0000
  H   H3028     1.0  0.94003  0.91167  0.33008  1.0000
  C   C1891     1.0  0.90393  0.85804  0.44326  1.0000
  H   H3029     1.0  0.78040  0.94935  0.10196  1.0000
  C   C1892     1.0  0.92840  0.88063  0.44537  1.0000
  C   C1893     1.0  0.93964  0.87357  0.43182  1.0000
  C   C1894     1.0  0.93302  0.85871  0.42392  1.0000
  C   C1895     1.0  0.91516  0.85098  0.42960  1.0000
  C   C1896     1.0  0.96366  0.94700  0.97665  1.0000
  H   H3030     1.0  0.94163  0.85315  0.41349  1.0000
  C   C1897     1.0  0.98168  0.79964  0.20691  1.0000
  C   C1898     1.0  0.84728  0.96467  0.43256  1.0000
  C   C1899     1.0  0.84673  0.95737  0.41308  1.0000
  C   C1900     1.0  0.84374  0.93924  0.41567  1.0000
  N   N189      1.0  0.76392  0.96664  0.10127  1.0000
  H   H3031     1.0  0.74843  0.98427  0.10807  1.0000
  H   H3032     1.0  0.96110  0.83985  0.06970  1.0000
  C   C1901     1.0  0.84299  0.93572  0.45694  1.0000
  H   H3033     1.0  0.90215  0.87826  0.46193  1.0000
  C   C1902     1.0  0.75724  0.97761  0.11605  1.0000
  C   C1903     1.0  0.79366  0.99273  0.32197  1.0000
  H   H3034     1.0  0.97655  0.76710  0.19943  1.0000
  H   H3035     1.0  0.93831  0.92916  0.34451  1.0000
  H   H3036     1.0  0.77900  0.96977  0.06667  1.0000
  C   C1904     1.0  0.94490  0.91861  0.34308  1.0000
  C   C1905     1.0  0.77521  0.95776  0.11273  1.0000
  H   H3037     1.0  0.83705  0.98403  0.31625  1.0000
  H   H3038     1.0  0.93527  0.95733  0.99212  1.0000
  H   H3039     1.0  0.98049  0.96985  0.99799  1.0000
  H   H3040     1.0  0.96310  0.92142  0.37711  1.0000
  H   H3041     1.0  0.81060  0.99146  0.44720  1.0000
  N   N190      1.0  0.96237  0.96501  0.97628  1.0000
  C   C1906     1.0  0.94454  0.96580  0.97605  1.0000
  S   S756      1.0  0.95918  0.89894  0.01277  1.0000
  C   C1907     1.0  0.77382  0.97769  0.07828  1.0000
  H   H3042     1.0  0.74070  0.95978  0.08932  1.0000
  H   H3043     1.0  0.83567  0.99036  0.26483  1.0000
  H   H3044     1.0  0.95493  0.93761  0.99245  1.0000
  H   H3045     1.0  0.95839  0.96160  0.01359  1.0000
  C   C1908     1.0  0.96563  0.78462  0.24591  1.0000
  H   H3046     1.0  0.95401  0.83926  0.03123  1.0000
  H   H3047     1.0  0.79572  0.99280  0.38186  1.0000
  H   H3048     1.0  0.74136  0.94498  0.11494  1.0000
  H   H3049     1.0  0.84845  0.79243  0.44883  1.0000
  Fe  Fe380     1.0  0.84460  0.88872  0.46882  1.0000
  C   C1909     1.0  0.97316  0.81537  0.98924  1.0000
  S   S757      1.0  0.97632  0.98731  0.05601  1.0000
  H   H3050     1.0  0.97013  0.84992  0.00510  1.0000
  S   S758      1.0  0.76529  0.98811  0.30233  1.0000
  H   H3051     1.0  0.80284  0.96629  0.40230  1.0000
  H   H3052     1.0  0.97202  0.79525  0.25357  1.0000
  H   H3053     1.0  0.93342  0.89219  0.45137  1.0000
  H   H3054     1.0  0.86270  0.80934  0.45737  1.0000
  H   H3055     1.0  0.78193  0.97309  0.44562  1.0000
  H   H3056     1.0  0.83285  0.81376  0.43490  1.0000
  H   H3057     1.0  0.80938  0.96630  0.42957  1.0000
  H   H3058     1.0  0.98202  0.77742  0.01309  1.0000
  C   C1910     1.0  0.98466  0.80688  0.35573  1.0000
  S   S759      1.0  0.87249  0.89144  0.46945  1.0000
  C   C1911     1.0  0.95661  0.81241  0.00290  1.0000
  C   C1912     1.0  0.96913  0.92654  0.03268  1.0000
  H   H3059     1.0  0.94594  0.90779  0.40032  1.0000
  N   N191      1.0  0.94206  0.90651  0.36595  1.0000
  C   C1913     1.0  0.95107  0.89281  0.36307  1.0000
  C   C1914     1.0  0.94888  0.91627  0.38251  1.0000
  C   C1915     1.0  0.92344  0.89831  0.37521  1.0000
  H   H3060     1.0  0.97345  0.82220  0.04383  1.0000
  H   H3061     1.0  0.94958  0.88371  0.38007  1.0000
  H   H3062     1.0  0.95350  0.78730  0.24222  1.0000
  C   C1916     1.0  0.78317  0.98160  0.42822  1.0000
  C   C1917     1.0  0.97774  0.78035  0.34069  1.0000
  H   H3063     1.0  0.76780  0.98785  0.11883  1.0000
  C   C1918     1.0  0.97422  0.91716  0.01625  1.0000
  H   H3064     1.0  0.95884  0.92505  0.33569  1.0000
  S   S760      1.0  0.84909  0.98711  0.43024  1.0000
  C   C1919     1.0  0.93482  0.98872  0.02238  1.0000
  H   H3065     1.0  0.97187  0.76650  0.34381  1.0000
  H   H3066     1.0  0.79247  0.97906  0.32231  1.0000
  C   C1920     1.0  0.83486  0.81975  0.44992  1.0000
  C   C1921     1.0  0.95842  0.78423  0.02419  1.0000
  S   S761      1.0  0.97873  0.86539  0.36876  1.0000
  S   S762      1.0  0.75451  0.96155  0.03598  1.0000
  C   C1922     1.0  0.98451  0.83399  0.03647  1.0000
  C   C1923     1.0  0.97737  0.78879  0.35948  1.0000
  H   H3067     1.0  0.86657  0.98984  0.25881  1.0000
  H   H3068     1.0  0.96635  0.98385  0.99747  1.0000
  S   S763      1.0  0.94864  0.86439  0.97495  1.0000
  C   C1924     1.0  0.96819  0.76871  0.21534  1.0000
  N   N192      1.0  0.97910  0.85027  0.03662  1.0000
  H   H3069     1.0  0.75379  0.94498  0.08672  1.0000
  H   H3070     1.0  0.97135  0.78128  0.37705  1.0000
  H   H3071     1.0  0.95613  0.77087  0.21074  1.0000
  S   S764      1.0  0.98449  0.81665  0.38021  1.0000
  H   H3072     1.0  0.76561  0.98434  0.06893  1.0000
  S   S765      1.0  0.88159  0.84838  0.45014  1.0000
  Fe  Fe381     1.0  0.96522  0.88932  0.97980  1.0000
  H   H3073     1.0  0.94604  0.88490  0.35109  1.0000
  H   H3074     1.0  0.97003  0.80277  0.20202  1.0000
  H   H3075     1.0  0.96470  0.75598  0.22821  1.0000
  H   H3076     1.0  0.74966  0.96965  0.13351  1.0000
  H   H3077     1.0  0.76808  0.94926  0.13008  1.0000
  H   H3078     1.0  0.82318  0.97992  0.40315  1.0000
  H   H3079     1.0  0.97698  0.94596  0.97675  1.0000
  H   H3080     1.0  0.81588  0.99584  0.33747  1.0000
  S   S766      1.0  0.98639  0.77994  0.29357  1.0000
  H   H3081     1.0  0.85919  0.98369  0.31216  1.0000
  N   N193      1.0  0.97708  0.78311  0.22469  1.0000
  S   S767      1.0  0.83861  0.86034  0.46752  1.0000
  H   H3082     1.0  0.94323  0.97930  0.97513  1.0000
  H   H3083     1.0  0.96107  0.86268  0.02309  1.0000
  H   H3084     1.0  0.96812  0.86329  0.06142  1.0000
  C   C1925     1.0  0.98223  0.80262  0.99300  1.0000
  C   C1926     1.0  0.84864  0.98466  0.30290  1.0000
  C   C1927     1.0  0.85019  0.79908  0.46337  1.0000
  C   C1928     1.0  0.98544  0.78992  0.31788  1.0000
  Fe  Fe382     1.0  0.87970  0.97504  0.97373  1.0000
  Fe  Fe383     1.0  0.74277  0.99594  0.28898  1.0000
  H   H3085     1.0  0.94638  0.92614  0.47117  1.0000
  Fe  Fe384     1.0  0.86271  0.88352  0.50846  1.0000
  H   H3086     1.0  0.95383  0.93998  0.86507  1.0000
  S   S768      1.0  0.87549  0.89007  0.53759  1.0000
  Fe  Fe385     1.0  0.83158  0.85485  0.50658  1.0000
  H   H3087     1.0  0.82837  0.82178  0.49451  1.0000
  S   S769      1.0  0.81202  0.83234  0.53335  1.0000
  S   S770      1.0  0.96660  0.97604  0.81902  1.0000
  C   C1929     1.0  0.88287  0.90011  0.91279  1.0000
  C   C1930     1.0  0.76437  0.85786  0.90546  1.0000
  C   C1931     1.0  0.95975  0.96799  0.69828  1.0000
  S   S771      1.0  0.85854  0.85497  0.50944  1.0000
  S   S772      1.0  0.83518  0.88314  0.50790  1.0000
  S   S773      1.0  0.93233  0.88446  0.91558  1.0000
  Fe  Fe386     1.0  0.94352  0.96598  0.55405  1.0000
  S   S774      1.0  0.96924  0.97152  0.53009  1.0000
  S   S775      1.0  0.92187  0.96509  0.53498  1.0000
  Fe  Fe387     1.0  0.95932  0.96543  0.59684  1.0000
  H   H3088     1.0  0.79206  0.84583  0.90888  1.0000
  S   S776      1.0  0.94811  0.94435  0.57919  1.0000
  Fe  Fe388     1.0  0.95212  0.95898  0.79946  1.0000
  S   S777      1.0  0.93073  0.93933  0.82666  1.0000
  Fe  Fe389     1.0  0.86789  0.96419  0.93190  1.0000
  S   S778      1.0  0.87123  0.94707  0.90628  1.0000
  S   S779      1.0  0.89373  0.97696  0.93733  1.0000
  H   H3089     1.0  0.91948  0.89831  0.52779  1.0000
  Fe  Fe390     1.0  0.82928  0.86448  0.87919  1.0000
  S   S780      1.0  0.82573  0.86375  0.84298  1.0000
  S   S781      1.0  0.81642  0.87960  0.90197  1.0000
  Fe  Fe391     1.0  0.85278  0.83984  0.87812  1.0000
  S   S782      1.0  0.85015  0.83641  0.84217  1.0000
  S   S783      1.0  0.87027  0.82877  0.89865  1.0000
  Fe  Fe392     1.0  0.85402  0.86561  0.83439  1.0000
  S   S784      1.0  0.87344  0.88301  0.80237  1.0000
  Fe  Fe393     1.0  0.82184  0.83465  0.85406  1.0000
  S   S785      1.0  0.79601  0.81683  0.85250  1.0000
  S   S786      1.0  0.85773  0.86873  0.86978  1.0000
  S   S787      1.0  0.82432  0.83552  0.89096  1.0000
  H   H3090     1.0  0.85117  0.82562  0.48442  1.0000
  H   H3091     1.0  0.90724  0.97585  0.82491  1.0000
  H   H3092     1.0  0.79365  0.86688  0.87255  1.0000
  S   S788      1.0  0.77107  0.76796  0.78455  1.0000
  C   C1932     1.0  0.94505  0.92821  0.51603  1.0000
  H   H3093     1.0  0.78645  0.82805  0.89495  1.0000
  C   C1933     1.0  0.78108  0.83679  0.90491  1.0000
  H   H3094     1.0  0.86219  0.90982  0.94499  1.0000
  C   C1934     1.0  0.78943  0.80346  0.83315  1.0000
  C   C1935     1.0  0.80105  0.80117  0.81450  1.0000
  C   C1936     1.0  0.79516  0.79032  0.79985  1.0000
  C   C1937     1.0  0.77760  0.78171  0.80347  1.0000
  C   C1938     1.0  0.76597  0.78399  0.82212  1.0000
  C   C1939     1.0  0.77188  0.79476  0.83685  1.0000
  H   H3095     1.0  0.81458  0.80773  0.81138  1.0000
  H   H3096     1.0  0.80429  0.78867  0.78550  1.0000
  H   H3097     1.0  0.75245  0.77744  0.82523  1.0000
  H   H3098     1.0  0.76275  0.79636  0.85124  1.0000
  C   C1940     1.0  0.85442  0.93007  0.90382  1.0000
  C   C1941     1.0  0.85744  0.92175  0.88543  1.0000
  C   C1942     1.0  0.84542  0.90672  0.88432  1.0000
  C   C1943     1.0  0.83029  0.89982  0.90164  1.0000
  C   C1944     1.0  0.82678  0.90864  0.91944  1.0000
  C   C1945     1.0  0.83887  0.92378  0.92057  1.0000
  H   H3099     1.0  0.86930  0.92674  0.87219  1.0000
  H   H3100     1.0  0.84790  0.90045  0.87003  1.0000
  H   H3101     1.0  0.81500  0.90346  0.93278  1.0000
  H   H3102     1.0  0.83640  0.93021  0.93475  1.0000
  C   C1946     1.0  0.91442  0.92530  0.81817  1.0000
  C   C1947     1.0  0.89884  0.91741  0.83444  1.0000
  C   C1948     1.0  0.88583  0.90535  0.82898  1.0000
  C   C1949     1.0  0.88850  0.90048  0.80761  1.0000
  C   C1950     1.0  0.90392  0.90877  0.79097  1.0000
  C   C1951     1.0  0.91687  0.92126  0.79619  1.0000
  H   H3103     1.0  0.89676  0.92072  0.85130  1.0000
  H   H3104     1.0  0.87366  0.90002  0.84123  1.0000
  H   H3105     1.0  0.90600  0.90528  0.77423  1.0000
  H   H3106     1.0  0.92884  0.92742  0.78346  1.0000
  C   C1952     1.0  0.95143  0.96328  0.68073  1.0000
  N   N194      1.0  0.87588  0.89088  0.93751  1.0000
  H   H3107     1.0  0.89180  0.91045  0.95020  1.0000
  Fe  Fe394     1.0  0.97886  0.99036  0.55094  1.0000
  C   C1953     1.0  0.91678  0.86783  0.90969  1.0000
  C   C1954     1.0  0.91110  0.85090  0.92373  1.0000
  C   C1955     1.0  0.89706  0.83878  0.91996  1.0000
  C   C1956     1.0  0.88858  0.84361  0.90234  1.0000
  C   C1957     1.0  0.89480  0.86032  0.88787  1.0000
  C   C1958     1.0  0.90886  0.87231  0.89139  1.0000
  H   H3108     1.0  0.91716  0.84728  0.93788  1.0000
  H   H3109     1.0  0.89249  0.82579  0.93110  1.0000
  H   H3110     1.0  0.88882  0.86407  0.87389  1.0000
  H   H3111     1.0  0.91335  0.88528  0.88018  1.0000
  S   S789      1.0  0.97606  0.95522  0.77856  1.0000
  C   C1959     1.0  0.96054  0.96690  0.65737  1.0000
  H   H3112     1.0  0.95255  0.96512  0.71615  1.0000
  H   H3113     1.0  0.93812  0.93696  0.50740  1.0000
  H   H3114     1.0  0.93908  0.92467  0.53506  1.0000
  H   H3115     1.0  0.77569  0.86488  0.85888  1.0000
  C   C1960     1.0  0.79444  0.81777  0.52741  1.0000
  C   C1961     1.0  0.78956  0.82081  0.50609  1.0000
  C   C1962     1.0  0.77515  0.80919  0.50238  1.0000
  C   C1963     1.0  0.76561  0.79436  0.51981  1.0000
  C   C1964     1.0  0.77073  0.79114  0.54094  1.0000
  C   C1965     1.0  0.78503  0.80285  0.54473  1.0000
  H   H3116     1.0  0.79659  0.83232  0.49267  1.0000
  C   C1966     1.0  0.95300  0.91784  0.48124  1.0000
  H   H3117     1.0  0.76350  0.77980  0.55451  1.0000
  H   H3118     1.0  0.78869  0.80037  0.56129  1.0000
  C   C1967     1.0  0.90870  0.94432  0.53591  1.0000
  C   C1968     1.0  0.89980  0.94196  0.51817  1.0000
  C   C1969     1.0  0.88951  0.92539  0.51838  1.0000
  C   C1970     1.0  0.88790  0.91118  0.53658  1.0000
  C   C1971     1.0  0.89668  0.91360  0.55441  1.0000
  C   C1972     1.0  0.90711  0.93007  0.55401  1.0000
  H   H3119     1.0  0.90091  0.95296  0.50414  1.0000
  H   H3120     1.0  0.88275  0.92366  0.50459  1.0000
  H   H3121     1.0  0.89544  0.90268  0.56859  1.0000
  H   H3122     1.0  0.91369  0.93179  0.56795  1.0000
  S   S790      1.0  0.94935  0.96048  0.63611  1.0000
  H   H3123     1.0  0.75692  0.86546  0.89593  1.0000
  H   H3124     1.0  0.98482  0.93822  0.88725  1.0000
  N   N195      1.0  0.90801  0.85253  0.82038  1.0000
  C   C1973     1.0  0.92537  0.85068  0.81140  1.0000
  C   C1974     1.0  0.90952  0.86975  0.82629  1.0000
  C   C1975     1.0  0.89783  0.85115  0.80234  1.0000
  H   H3125     1.0  0.93223  0.86097  0.79538  1.0000
  H   H3126     1.0  0.93338  0.85178  0.82459  1.0000
  H   H3127     1.0  0.92471  0.83778  0.80690  1.0000
  H   H3128     1.0  0.91612  0.88059  0.81082  1.0000
  H   H3129     1.0  0.91689  0.87123  0.84011  1.0000
  H   H3130     1.0  0.89662  0.87166  0.83272  1.0000
  H   H3131     1.0  0.90350  0.86202  0.78658  1.0000
  H   H3132     1.0  0.88448  0.85189  0.80889  1.0000
  H   H3133     1.0  0.89686  0.83859  0.79679  1.0000
  N   N196      1.0  0.94440  0.91253  0.50629  1.0000
  H   H3134     1.0  0.94037  0.99632  0.85417  1.0000
  H   H3135     1.0  0.94033  0.96149  0.96082  1.0000
  S   S791      1.0  0.74714  0.78058  0.51464  1.0000
  H   H3136     1.0  0.92988  0.98343  0.82296  1.0000
  Fe  Fe395     1.0  0.84997  0.98703  0.95843  1.0000
  C   C1976     1.0  0.91405  0.96715  0.86716  1.0000
  C   C1977     1.0  0.85987  0.89548  0.94649  1.0000
  C   C1978     1.0  0.81940  0.79289  0.47790  1.0000
  H   H3137     1.0  0.96017  0.94251  0.96115  1.0000
  H   H3138     1.0  0.78806  0.84916  0.85845  1.0000
  S   S792      1.0  0.97495  0.87274  0.92341  1.0000
  S   S793      1.0  0.85401  0.96021  0.96942  1.0000
  C   C1979     1.0  0.92626  0.90287  0.50906  1.0000
  H   H3139     1.0  0.96573  0.91741  0.83309  1.0000
  Fe  Fe396     1.0  0.97464  0.95141  0.55640  1.0000
  S   S794      1.0  0.86170  0.98953  0.92048  1.0000
  Fe  Fe397     1.0  0.74462  0.75274  0.78128  1.0000
  Fe  Fe398     1.0  0.97599  0.97905  0.75248  1.0000
  H   H3140     1.0  0.88486  0.91448  0.91054  1.0000
  H   H3141     1.0  0.89401  0.98701  0.88207  1.0000
  C   C1980     1.0  0.89930  0.83860  0.84150  1.0000
  H   H3142     1.0  0.95285  0.88906  0.51227  1.0000
  H   H3143     1.0  0.95854  0.93595  0.51390  1.0000
  N   N197      1.0  0.91384  0.98468  0.85491  1.0000
  H   H3144     1.0  0.94748  0.89733  0.53792  1.0000
  H   H3145     1.0  0.76195  0.82524  0.87599  1.0000
  H   H3146     1.0  0.74810  0.82545  0.90282  1.0000
  H   H3147     1.0  0.97291  0.90645  0.89308  1.0000
  H   H3148     1.0  0.85141  0.78935  0.47827  1.0000
  C   C1981     1.0  0.75696  0.83394  0.88650  1.0000
  H   H3149     1.0  0.77501  0.86743  0.90943  1.0000
  H   H3150     1.0  0.94541  0.91688  0.86926  1.0000
  H   H3151     1.0  0.88627  0.83980  0.84893  1.0000
  H   H3152     1.0  0.74928  0.84076  0.87634  1.0000
  H   H3153     1.0  0.84147  0.92740  0.47390  1.0000
  N   N198      1.0  0.83512  0.85068  0.58620  1.0000
  C   C1982     1.0  0.83163  0.86288  0.56722  1.0000
  C   C1983     1.0  0.85383  0.85491  0.58504  1.0000
  C   C1984     1.0  0.82912  0.83263  0.58345  1.0000
  C   C1985     1.0  0.82591  0.85237  0.60894  1.0000
  H   H3154     1.0  0.81767  0.86002  0.56721  1.0000
  H   H3155     1.0  0.83845  0.86186  0.54996  1.0000
  H   H3156     1.0  0.83616  0.87671  0.56843  1.0000
  H   H3157     1.0  0.85703  0.84605  0.59912  1.0000
  H   H3158     1.0  0.86114  0.85383  0.56799  1.0000
  H   H3159     1.0  0.85885  0.86857  0.58665  1.0000
  H   H3160     1.0  0.83142  0.82298  0.59750  1.0000
  H   H3161     1.0  0.83582  0.83097  0.56638  1.0000
  H   H3162     1.0  0.81509  0.82911  0.58380  1.0000
  H   H3163     1.0  0.83014  0.86589  0.61147  1.0000
  H   H3164     1.0  0.82824  0.84335  0.62370  1.0000
  H   H3165     1.0  0.81176  0.84930  0.61028  1.0000
  H   H3166     1.0  0.96663  0.92545  0.47853  1.0000
  H   H3167     1.0  0.77291  0.82850  0.92180  1.0000
  C   C1986     1.0  0.95334  0.90119  0.51884  1.0000
  H   H3168     1.0  0.96713  0.90800  0.51677  1.0000
  H   H3169     1.0  0.90661  0.83913  0.85553  1.0000
  S   S795      1.0  0.96497  0.90484  0.94504  1.0000
  H   H3170     1.0  0.92525  0.89117  0.50140  1.0000
  H   H3171     1.0  0.77124  0.81182  0.48602  1.0000
  Fe  Fe399     1.0  0.95089  0.87955  0.93846  1.0000
  H   H3172     1.0  0.95324  0.92547  0.89214  1.0000
  H   H3173     1.0  0.89763  0.82539  0.83772  1.0000
  C   C1987     1.0  0.97735  0.97631  0.69266  1.0000
  C   C1988     1.0  0.97425  0.97700  0.95518  1.0000
  H   H3174     1.0  0.81964  0.78284  0.49314  1.0000
  H   H3175     1.0  0.87404  0.89569  0.90157  1.0000
  H   H3176     1.0  0.88395  0.86779  0.93389  1.0000
  H   H3177     1.0  0.85430  0.88895  0.96518  1.0000
  C   C1989     1.0  0.97814  0.97530  0.65171  1.0000
  C   C1990     1.0  0.78265  0.85733  0.86939  1.0000
  H   H3178     1.0  0.90095  0.89283  0.94490  1.0000
  N   N199      1.0  0.77124  0.84648  0.89158  1.0000
  H   H3179     1.0  0.89551  0.89786  0.90588  1.0000
  H   H3180     1.0  0.97106  0.97348  0.93899  1.0000
  H   H3181     1.0  0.88628  0.97764  0.85968  1.0000
  S   S796      1.0  0.98345  0.83509  0.96814  1.0000
  H   H3182     1.0  0.93782  0.95678  0.68527  1.0000
  C   C1991     1.0  0.95562  0.92710  0.87285  1.0000
  H   H3183     1.0  0.83898  0.80595  0.50531  1.0000
  H   H3184     1.0  0.86310  0.86749  0.92831  1.0000
  H   H3185     1.0  0.92667  0.96439  0.86143  1.0000
  S   S797      1.0  0.95258  0.98670  0.57309  1.0000
  Fe  Fe400     1.0  0.97409  0.85958  0.96033  1.0000
  C   C1992     1.0  0.89682  0.98767  0.86296  1.0000
  C   C1993     1.0  0.87206  0.87183  0.93944  1.0000
  H   H3186     1.0  0.88388  0.88940  0.97006  1.0000
  H   H3187     1.0  0.91898  0.91118  0.50036  1.0000
  H   H3188     1.0  0.86609  0.86443  0.95772  1.0000
  S   S798      1.0  0.95048  0.98123  0.77208  1.0000
  H   H3189     1.0  0.96490  0.89748  0.87062  1.0000
  H   H3190     1.0  0.75575  0.85015  0.92241  1.0000
  H   H3191     1.0  0.97425  0.94047  0.82911  1.0000
  H   H3192     1.0  0.90401  0.95675  0.86356  1.0000
  H   H3193     1.0  0.91140  0.96578  0.88642  1.0000
  C   C1994     1.0  0.88868  0.89613  0.95130  1.0000
  N   N200      1.0  0.97298  0.92557  0.86311  1.0000
  C   C1995     1.0  0.98616  0.93936  0.86814  1.0000
  C   C1996     1.0  0.97547  0.92753  0.83760  1.0000
  H   H3194     1.0  0.84994  0.89148  0.93655  1.0000
  C   C1997     1.0  0.91717  0.98575  0.82948  1.0000
  H   H3195     1.0  0.95315  0.90630  0.47344  1.0000
  H   H3196     1.0  0.80832  0.79831  0.48336  1.0000
  C   C1998     1.0  0.83871  0.81538  0.48946  1.0000
  C   C1999     1.0  0.97469  0.90826  0.87384  1.0000
  H   H3197     1.0  0.97365  0.99073  0.95451  1.0000
  H   H3198     1.0  0.98530  0.97814  0.63383  1.0000
  S   S799      1.0  0.98651  0.97065  0.57580  1.0000
  S   S800      1.0  0.98590  0.93261  0.53919  1.0000
  C   C2000     1.0  0.98650  0.97993  0.66930  1.0000
  H   H3199     1.0  0.98542  0.95263  0.86012  1.0000
  H   H3200     1.0  0.91918  0.99578  0.55316  1.0000
