data_image0
_chemical_formula_structural       FeH2FeCSFeH2SCHSHCHCSCHCFeHC2SH3CH5SFeHSH4CHCS2NC3H5FeHFeS2H5NSCFeHSC2HCH2C3SHCHC6H8C3HCH5C3HCH4C2HCHSHNHC6H7SFeH2SH2C2NHSNH2SH3CH3SCHNH2CH2SH2CH2C2HSCH3CHNHCFeNCH2CHC2H3CSHC3FeH6CH11NHFe2S2H9CSFeS2FeS2FeSFeS3CH3CSH2FeHFeS2H2FeS2HFeS2FeS2FeHFeHS2H2CHCH3CH2CSH4C3HCSH2C7H4CH4CH3NCHFeHSHC6H3C6H5NHC2H2C3SC7H3FeHC6H5CHCH2CHC2SNHC3HCH5CH2CHFeHNC4H12CSCFeCHCH2CHSC2NHCSHSCSH4CH3SH2CH2NC2H3CH3SNHCNH3CHFeC2H4C2SHC2H2C3HFeHNHSHCH2C3H2CHNH5CSHCH2SH4CH11SHCS2HSHSCFeS2FeSFeS3H2FeS2FeS2FeSFeCS2CSHSFeHC2HCH3S2C6H4C5H2C4H2C2H3CHC6H3SC6H5CHCSCSHCHCFeH2CHC2FeCSFeH4C2H2CHNHFe2CHFe2H2SC2NH5CNHSH2NHCH2SCHCHSHFeHSNC3H11CH4NC4H6CFeC2HSHCSH2CHFeH3NHCH3CHSHFeCH3C3HC2H2CH2C2HCH5C3H5SHSCH6C2FeH3CH2C2NH3CH2CH2NSFeS2NFe2S2FeSCSHC2SCSH5CFeSHFeS2FeSFeS2FeS2FeS2FeSFeS3HS2H3FeSCHFeH3C4H2C6H4C6H4SHFeNH3SH3CHCH2SCFeCH2SFeHC6H4C8H4C2SHC2H4CH2C2H2SFeCFeH4C2HC3H7CSHC3H8CH2CHC2HCNH2FeH2CH2CHCH3NC4H14C2HSCHNH4SHFeCNC4H13CSCH3NFeHCSH2NC3NHC3H4C2NHC2H2FeS2FeSHFeSFeS3FeS2C3FeCFeC2HS3H2S2FeS2FeS2FeSHFeSFeSHSHCHFeHNSHSFeSC6H4C6H4C2HC7H2C3H2NSH6CHSFeCH8C2SHC2H2CHC6H4C6H5C2H3CSCSH2NC3FeHCHCH4NC4H13FeH3SH4CH2FeH3SH4NH2C2SH2CH3C2S2CNH3SH2FeSFeH2CH2CSHSH2C3H5CH2CH5SH2CH3CFeCH3NHCH3C2FeS2FeS2FeSFeS3CFeH6FeS2FeHC2SFeHS2H3CSHFeS2FeHNSH2CS2H3CFeS2C2FeHNHSC3FeSFeCH2SHCHCH6C3HSHCHC7H2CH3NH3CH2FeHFeNCH2C2SHFeHSHS2CHSH2NH2CH4C2H2C2HCH5C3H3C6H4C6H4C6HCH2C3H6CH4NCHCH3FeCH2CHC2FeHC2H4SHSC3NCH5CH3SH3CHC2HSHNC3H6SHCH4SFeC2H3SFeCHSCH4CH3NCNC2H3SC2HCH2NC2HCH6CH2C2H3NHCH2SCHSH7FeH2FeHSFeSHCSC2H2FeS2C2FeS4C6H4SH2C3H2FeHCHCH2C3H3C2SH2CH4FeH5SH9NH4SHC3HFeHFeH2CHC2S2C6H5C5H2CH2CH4CHSCH3SNCHCH2CH2S2C2HC3HNC2H3NCH2C2H10SHNH5FeH2FeS2FeSFeSFeS3C2HSH5C2FeS2HSFeSHSCH2C2H2CSFeS2Fe2SFeS2Fe2SH2S2CS2CH3C6H5NSCHSHC6H5CSHNHCHSC6H4C6H4C6H6SH2CHFeH4CH2CHNCH3CH3C2HSCHNCHNC4H12NC2H2CH2CH2CHNHC2HC2NCHC2SCH3C3HNC2H3CH6FeH5FeH4CH2CHS2CH2C2FeHCH4C2H2FeH2SFeC2FeHCHSC3HCHSH3NH3CH10CH3NCSH2C5H5SCH3FeS2C2FeCS3FeS2FeSFeS2FeS2FeSFeCSFeS2FeS2FeSCSCHCHFeH4CNCH3SH5C2NHC2HC9H4C3HC6H8CH3C6H5C2H2CHC2H2CFe2C3H3CH2SC2H2C4HFeSCH2C2HSC2HCHCH4CHC3HCH3SH5SHCH3NC4H11C2HCHCSCH2S3HSFeSCHC2FeH2CH3N2CHCHFeSHNC2HSFeH2SHSH10NCHC2H4SHNCHNCHSH2CHC2H4SCH2CHCH3CHCH3CH3CHCSHSHCHS2HFeHSC2SCH2C2FeS2FeS2FeSFeS3CHSH4SH3FeS2FeS2C5H6CHCNC6H4C6HCH4CHCHSHFeH2SHSH2NHCH2NHFeC2H3C4H3C2HCH2SCHCSNH4SHC2HC2H2C2H2FeHCHCHC2HSCHCH5FeSCH2C2HCHNHFeHFeSHCHCH2CSCHNHCH2C2H2C2H10NCHCHCH2SH3FeCH11Fe2HCHSCSHCH3FeH3CHCH3SCFeS2H3FeHSHC2NSFeS2FeSFeSFeS5H2SHFeSFeSCHFeS2FeS2FeSFeS3H2SH2SCHC2H4C6H2CHC5FeCH3NHCH6FeHC6H4C6H4C6H7NH2C8H4C4HCH2CHSC2SH2C2SCH2CH2SCH2CNC4H18FeCH4CHC2H2CFeCH2CHFeH2CH3CH2CH3SFeHS2H5CHNH2NCSCH6CH2C2SFeS2FeS2FeSFe2S2H2CFeS2FeSFeCHSCH2Fe2HSFeS2H3CH3C2HCSHC2HC3HCH4C2H7C6NH4C2NC7H4C6H4C6H3CNH3S2H2SH2SC3NCHCH3CH4SCH3CHCH3S2CH2N2HC3H4SCH2CH3CHCH4SHCH3CH2C4HCHSH4NH5CH5CHCH10SH6CHSH2NFeSCH2FeSCFeS2FeSFeCS2FeS2FeS2FeSFeS4HSFe2SH2SFeS2NCH2C4SFeCSH2C3H5CSFeH2CSHC6H4C6H4C7H3C6H4CH4CH4FeHFeCFeH3CNC6H3C7H5SH2SH3SH2CH2CNHSFeH4CH3S2H5CH4FeH3CHCH3CHNC3H7CH3CSH4FeSH4NC4H5CH3C2NCH2CSH2C3H4CH6CHSH3SC2H3NCHNH4NH2SHSHSH2FeS2FeSFeSFeS4CSFeSHFeSFeS2CH4C6FeCH2C6H4C6H6CH3C6H4C6HSHCHCHNCHSC4H2CNH4CH2CH4CH2CFeCSH3C2H8CH3CH9CH3CH2CSNH2CH2CSH7CNH2CHCSH4NC3H2CNH8CHCSHNHFeH2C2SCHNHCH2CH2CHCH4FeHCHC3H2CHSH5SC2H2CHCS2FeCSFeS2FeSHFeSNFe2S3HFeS3FeSFeCSCH2CH3C2HFeS2CHC2SHCH2SHC6H2C6H4CH3C3H5C2H2CH2CHC5H2C6FeCNCHS2HC3HFeHCHC2NSCHFeHCH2CH2FeS2H4CH2SC2H2CNC2H4CHSH4C2HS2H3C2S2HNHCH4SFeH2SCH2FeNC4H12SHCSHC2SH2CSHFeSCH2FeCH4SCH3CHC2H4CHCH5NCH2CFeSC2HSCH4C2SCH2SNSC2H4CH3CSC2H4NH2NHSH3FeS2FeS2FeSFeS3C2HS2FeSCSH2SH2CH2SHFeSH2SH2SHSCSHC3HCH3CH3C6H4CHCH3CHCHCHCH2NH2NC6H4C6H2CHC6H4C6H5FeC2H4NC2H2SFeHFeSFeHCH3SCNCHC2HC2H2NC4N2H7C2H4SH7CH2SH2C2H3FeHCHSHC2H6CH3Fe2H6SHFeHFeCHCH2SH3CHFeSFe2SCHFeS2FeS2FeSFeS2FeSFeS3FeSFeS2CSCSCH2SFeHC6HFeH2C6H4C6H5SHSNH2C2H5C6HNH2C6FeH7NH3FeH2NHCHCH2CHNC4H13CH2CH4C3HCHCH2C2NHSHS3HSNHSCHCHSH3FeH4CH3C3HCH2SCHCHNH2C2H2CHCHSC3FeH3SNHSHCHCHCH4CH5CH4CHCSCSH2SHCHCHCH4C2H2C2SH4NHCH4CHCH2CFeHCHCSH4CH3CH3FeSFeSHSFeSFeS2CHC2HFeS2FeS2FeSFeS3FeS2NCH4CHSH2CSHS2FeS2FeS3HSCHCHC3HC2HCH2NH2FeHCH4C6H4C6H4C6H4FeHFeH3SCNCFeHFeCH2C6H4C2HCHC4HFeH2C4H2CH3SHCHCNC4H12NC4H12SH2SHCH2CSH3NCH2SHSHCNC3HSHFeNC4H13C2H3CH2C2H4FeHSCHCH4SFeH2FeHSHCS2HFeS2FeS2FeSH2S2CSCNH13NHC4H2CHCH2C6H4C2HSHCH2FeHCHC2SHC2NC4H6CHCH4SH2CHCH4CH3CH2C4NHFeH2SH3C2SCSH2SH2CH3CH2NHC3H2SHFeH3C4H2CHCH2C2H3NHFeH4C2H5C2H2CHCHCSH2CHCH4CFeS2Fe2H2FeS2FeS2FeS2FeSFeS3HC2SCFeS2FeS2FeSFeS4FeHFeS2HSFeCS4CHFeH5CSHC6H4C2H3C2H6C6H4C6H4C6H4C6H4NC4H12CH2CHCHCHNHC2HCSH2C2H8CHC2HNCHSHCSH2CH2FeH2CHC2H2CH2CH2CH2SH2CH2C2H3CH6SC2HC2HNHCHCHCFeNHNC4H16CNH2C3HCH2C2FeHCH2CH6CSNCH7C2H2C2SH2CH5SH2CHSHS2HFeHCFeS2FeSHS2HCNFe2NSH2CH2CHCH2CHCH2NS2H4C3NCHC8H3C2HFeH3C4SH2SCSHC2HC6H5C2H2CH2C3H4CFeC3H2CH3CHCHCH5SH4NHCHCH2C3H4S2CFeH4FeH9C2SH2NCH2CH2CH2NSH3CH2CH2FeH10SHFeSNH2FeSCHFeS2FeSHFeCFeSHSFeHSFeHSHC2NS2FeSFe2HSHFeS2FeS2FeSFeS3CH2C4HCHFeHSHSC6H5C4SH2SHC6H4C6H4C4H7C2H2CSH2CHSH5FeH2C6H4CHC3FeNCSC6H5C2HNHCHCSCSHSHNC5H2SH3CH4NHSCHSC2HCH4CH2FeH2CHFeCH2CNC4H12NC4H12CH2CHS2HCH2NSH6CH4CH2SH2SH6C2H3SC3HSHCNFeS2FeSFeHS2NH2SH2CFeSH2SHFeSFeHFeS2FeS2Fe2S3FeSHFeS2FeSHS2CHC7H4C6H4C3HCH2C6H3C6H3C7H3C6H4SH4CH3C3H2NHCSCFeH3CHSHC2HCH6C2H2CSHFeCH9FeC3HCH2C2NC2HCH3CH3CH2CNHNH7CHC2H2CHCH7SH2NCH4FeCHCH3SHSCNH2NC4H8C2HS2CNFeH5CH3CH10CNSH2CSH4CHC2H2NCSC2HCH2FeSH2CH4FeSHFeS2CFeHS2C2HFeCSH4CSH2SH3FeSHFeS2Fe2S5HSCFeC6H4SCHCH4C6H4SHSCH2SH3C5H3CHCHCHC6H6CH3CHSH3FeC3HCH2SC2HFeHS2H2SCHFeC2NC3H7CHFeH6CH2SHCHCSH2SCSNCFe2CNC4H12NC4H12CSHC2HCH2C2S2HSH3C2FeCHCHNFeSCH3SHFeNHC2FeCH3CHCHC2FeCH2CHSH2CHSH4NFeCH2CSHCSCSCFeSFeCHS2FeH2SHSHCHS2H2SHCHCFeS2H2FeSFeHS2FeS2HFeSFeSHCFeS2FeS2FeHFeS4CH2SH3C6H4FeCFeH2NC6H5CH4C6H3NH2SHCH5CH4NC3HNHC7H4C6H4C6H7C2H3NH4FeNC4H5SHCH4CH2C2H5CHCH2NC3HC4SCHCH2CHFeH2SH5SCH3C2H4C2FeSCHCHSCH6CHNH3CSFeH5SFeH4FeS3H3CFeCSHSCSCHSCHCHC2HFeHFeSHCH2CH2SCHC3H2FeH2CSHFeH2SHNH2C2H2C2HCHCHC7H2C2H2NHSH2NHCSH2C7H4S3FeSCHSHCHFeHCH2C2H4CH3CSCH6CSHCSHSC2HCH2CH4FeHC2H2FeC2H2CNHNHSCH2SCH2C3FeCNC2H5CHCH2CH3CHCHSCH2CH2CFeS2HNSC2H2CFeSCFeS2FeSFeS3FeSFeS2FeSFeS3HFeH3FeHS3CH3CHC6H2CHC6H2CHC2H3FeCHC6NCHFeHCSC6H3C2HCH3CHNHCNCHSH2C2H4CH4CH3CFe2H2FeH2CHSHSH3CH5FeC3H8NHC3HCFeH2SH4SHFeHSH2CHCHCNHCHSC2FeH2CH4SNS2H2CHSC2HCHCSH3C4H3CHS2H5NH2FeSHNC3SH2CHCSCHCHCH3C2H5CH3CHCH3NHCH2CH3CH6SHCH3NC3HC2HCH2SH4CSH3SH2CSCH3C2H2FeH2CFeS2FeS2FeSFeS3H2FeHC3FeSHS2CSCFeS2FeS2HSFe2S3HSCHSC6H5SH4CSC5H3CHFeCSH3C7H4C6H3C6H8SHSH4C2HC2H2SFeH6CH2FeHNHCH6C4H2CNHC3H2SH9NC4H12NCFeC2H2SCH3CHCH2CH2C3HFeNSC2HC2NH3SH4NH4CHCH8CHC2H5CHCHCSH4FeH2C2HCSCFeS2FeSHFe2SCSFeSFe2SCFeSFeS2HSH2S2HFeSCFeCFeH2CH2SH2S3C2HCHC6H4C2HCH4FeHC3HCH5C6NH5CH2CHCHC2H3NC2HNC5H2C2SH3SH3CH3SH3C2H2SH2SHCH3NC4H10FeSH2CHC5HCHCHCHC2FeCHS2C4H3CH2SCHFeSFeSH2CHC2SCH2C2HC2HNHCHCHSCH4C3HC2H3CHSH4C3HSH3FeHC3HNH4C3NH6SCH4CH2CSH2FeH2FeH2CS2C2H4C2SCHCHCSCH3NH3CSHCH4CH2NHNH10CH7CHCFeSCSFeH6S2CH4FeS2FeSHFeSFeS3FeHFeSFeS3FeS2FeHSFeSHSCHSFeH3C6H4C2HCSC2H4C2FeHCH2C6H4C6H6NSH3CHCH2CHSH2C7H4C6SC2HC2HCHCH2NHC2SH2CH3NC2HC2HN2H3NCH2CH4C2HC2H3C2H4C2H2S2C2HCNC4H15CFeHSHCH2CHSHNH3S2HCHCH5NCNH4FeHCH4CFeS2FeS2FeSFeS4FeS2CHFeCFeSCHSFeS2CSFeSFeS3H3SH3FeSH3CHNCFeSCHSC4H4C2H3CH5FeC6H4C2SC3SH3SC6H4C6H4C6H4C2SN2CHFeH2C2HCHCHCFeCH2NCH2CH2CFeHNC4H14FeC2SH2FeH2CSC2SH2NC4H12NC4H4CH12CH5C2HFeH2NH7SC2HSHSCH8SCNHCH3CH3C2SH3CHSHCSCHSCFeSCFeSFeSHS2H2CH4SC2H4FeSFeS2FeSFeS3HSFeSHFeSFeSH2NHC2HCH3SHC3H2CNHNC7HCH2C6H6CFeHCH4C7H4CSCH2CFeHCHC4H5CSC2H10CHCH3C2HSNHCHC4H4C2SHNC4H12CHNHCSCH4SHNHCHCH3CH2SCH4CSCHSH2SCH3SH2SHCH3CH3
_chemical_formula_sum              "Fe544 H4352 C2720 S1088 N272"
_cell_length_a       76.6086
_cell_length_b       77.0929
_cell_length_c       77.0492
_cell_angle_alpha    75.5105
_cell_angle_beta     75.5145
_cell_angle_gamma    75.6011

_space_group_name_H-M_alt    "P 1"
_space_group_IT_number       1

loop_
  _space_group_symop_operation_xyz
  'x, y, z'

loop_
  _atom_site_type_symbol
  _atom_site_label
  _atom_site_symmetry_multiplicity
  _atom_site_fract_x
  _atom_site_fract_y
  _atom_site_fract_z
  _atom_site_occupancy
  Fe  Fe1       1.0  0.07934  0.45428  0.99996  1.0000
  H   H1        1.0  0.15177  0.23226  0.98981  1.0000
  H   H2        1.0  0.14586  0.21536  0.98116  1.0000
  Fe  Fe2       1.0  0.10945  0.44562  0.02217  1.0000
  C   C1        1.0  0.01558  0.44104  0.03853  1.0000
  S   S1        1.0  0.14010  0.43706  0.02103  1.0000
  Fe  Fe3       1.0  0.07053  0.44198  0.04107  1.0000
  H   H3        1.0  0.03513  0.45037  0.00403  1.0000
  H   H4        1.0  0.14867  0.02163  0.10045  1.0000
  S   S2        1.0  0.09057  0.42897  0.01888  1.0000
  C   C2        1.0  0.22994  0.23531  0.08988  1.0000
  H   H5        1.0  0.20114  0.33886  0.17179  1.0000
  S   S3        1.0  0.22011  0.40575  0.07327  1.0000
  H   H6        1.0  0.00909  0.03415  0.00281  1.0000
  C   C3        1.0  0.19404  0.32894  0.20839  1.0000
  H   H7        1.0  0.19868  0.39313  0.15566  1.0000
  C   C4        1.0  0.03557  0.43930  0.07720  1.0000
  S   S4        1.0  0.18445  0.02851  0.11429  1.0000
  C   C5        1.0  0.20791  0.32475  0.17756  1.0000
  H   H8        1.0  0.16860  0.18678  0.97669  1.0000
  C   C6        1.0  0.17868  0.31620  0.19229  1.0000
  Fe  Fe4       1.0  0.17527  0.00163  0.12431  1.0000
  H   H9        1.0  0.18557  0.42069  0.06009  1.0000
  C   C7        1.0  0.11491  0.01999  0.17645  1.0000
  C   C8        1.0  0.00548  0.99882  0.01188  1.0000
  S   S5        1.0  0.16058  0.00866  0.00837  1.0000
  H   H10       1.0  0.22401  0.35091  0.03947  1.0000
  H   H11       1.0  0.02771  0.43522  0.99443  1.0000
  H   H12       1.0  0.14768  0.98964  0.10030  1.0000
  C   C9        1.0  0.19822  0.36837  0.06366  1.0000
  H   H13       1.0  0.99380  0.42911  0.02359  1.0000
  H   H14       1.0  0.99952  0.01383  0.96790  1.0000
  H   H15       1.0  0.18643  0.98736  0.98365  1.0000
  H   H16       1.0  0.04657  0.46375  0.06533  1.0000
  H   H17       1.0  0.14314  0.45473  0.06593  1.0000
  S   S6        1.0  0.20007  0.98744  0.13650  1.0000
  Fe  Fe5       1.0  0.19758  0.39802  0.09673  1.0000
  H   H18       1.0  0.12266  0.03402  0.06281  1.0000
  S   S7        1.0  0.16741  0.40323  0.09572  1.0000
  H   H19       1.0  0.11614  0.01842  0.21140  1.0000
  H   H20       1.0  0.12565  0.46685  0.08133  1.0000
  H   H21       1.0  0.21491  0.23609  0.09500  1.0000
  H   H22       1.0  0.23184  0.24824  0.07993  1.0000
  C   C10       1.0  0.01156  0.02688  0.99139  1.0000
  H   H23       1.0  0.01126  0.41163  0.01424  1.0000
  C   C11       1.0  0.06321  0.43824  0.96894  1.0000
  S   S8        1.0  0.20772  0.40750  0.11708  1.0000
  S   S9        1.0  0.21206  0.36880  0.10389  1.0000
  N   N1        1.0  0.00033  0.01268  0.99592  1.0000
  C   C12       1.0  0.21665  0.37065  0.16934  1.0000
  C   C13       1.0  0.06534  0.42080  0.98011  1.0000
  C   C14       1.0  0.20240  0.38605  0.16859  1.0000
  H   H24       1.0  0.16990  0.31057  0.20535  1.0000
  H   H25       1.0  0.18156  0.40400  0.18410  1.0000
  H   H26       1.0  0.99805  0.43617  0.11182  1.0000
  H   H27       1.0  0.14963  0.46837  0.03286  1.0000
  H   H28       1.0  0.17312  0.36554  0.04593  1.0000
  Fe  Fe6       1.0  0.15826  0.02679  0.98066  1.0000
  H   H29       1.0  0.17133  0.18239  0.00002  1.0000
  Fe  Fe7       1.0  0.21039  0.01380  0.12446  1.0000
  S   S10       1.0  0.22197  0.02342  0.14409  1.0000
  S   S11       1.0  0.10006  0.46995  0.00110  1.0000
  H   H30       1.0  0.20901  0.28923  0.19280  1.0000
  H   H31       1.0  0.07211  0.41806  0.99153  1.0000
  H   H32       1.0  0.11947  0.45818  0.06462  1.0000
  H   H33       1.0  0.00855  0.03725  0.97899  1.0000
  H   H34       1.0  0.05017  0.42498  0.02462  1.0000
  N   N2        1.0  0.19961  0.37162  0.04368  1.0000
  S   S12       1.0  0.07045  0.45636  0.97352  1.0000
  C   C15       1.0  0.11690  0.01504  0.09740  1.0000
  Fe  Fe8       1.0  0.21279  0.98066  0.10887  1.0000
  H   H35       1.0  0.14837  0.21074  0.00457  1.0000
  S   S13       1.0  0.09034  0.45636  0.04608  1.0000
  C   C16       1.0  0.14453  0.99456  0.08633  1.0000
  C   C17       1.0  0.13796  0.98114  0.14128  1.0000
  H   H36       1.0  0.99618  0.99244  0.98330  1.0000
  C   C18       1.0  0.20971  0.35479  0.03696  1.0000
  H   H37       1.0  0.22170  0.32560  0.17916  1.0000
  H   H38       1.0  0.18139  0.37985  0.02459  1.0000
  C   C19       1.0  0.10232  0.01942  0.20860  1.0000
  C   C20       1.0  0.20641  0.29856  0.20248  1.0000
  C   C21       1.0  0.18061  0.21842  0.96578  1.0000
  S   S14       1.0  0.18034  0.04267  0.96634  1.0000
  H   H39       1.0  0.04356  0.40876  0.01562  1.0000
  C   C22       1.0  0.17625  0.18963  0.98586  1.0000
  H   H40       1.0  0.09593  0.02656  0.96588  1.0000
  C   C23       1.0  0.18700  0.02799  0.04542  1.0000
  C   C24       1.0  0.18611  0.00956  0.04819  1.0000
  C   C25       1.0  0.17821  0.00370  0.03659  1.0000
  C   C26       1.0  0.17142  0.01618  0.02197  1.0000
  C   C27       1.0  0.17289  0.03448  0.01879  1.0000
  C   C28       1.0  0.18061  0.04036  0.03052  1.0000
  H   H41       1.0  0.19152  0.99980  0.05923  1.0000
  H   H42       1.0  0.17724  0.98949  0.03905  1.0000
  H   H43       1.0  0.16764  0.04424  0.00759  1.0000
  H   H44       1.0  0.18133  0.05462  0.02823  1.0000
  H   H45       1.0  0.21752  0.24873  0.12068  1.0000
  H   H46       1.0  0.17477  0.43324  0.03075  1.0000
  H   H47       1.0  0.18018  0.30737  0.18238  1.0000
  H   H48       1.0  0.20291  0.34300  0.04397  1.0000
  C   C29       1.0  0.23248  0.24763  0.11481  1.0000
  C   C30       1.0  0.19263  0.39213  0.18474  1.0000
  C   C31       1.0  0.11233  0.99125  0.19742  1.0000
  H   H49       1.0  0.12247  0.01081  0.06243  1.0000
  C   C32       1.0  0.11910  0.98087  0.14658  1.0000
  H   H50       1.0  0.10885  0.02930  0.09595  1.0000
  H   H51       1.0  0.17931  0.20636  0.01159  1.0000
  H   H52       1.0  0.12936  0.01826  0.17799  1.0000
  H   H53       1.0  0.10920  0.03490  0.17311  1.0000
  H   H54       1.0  0.00236  0.45087  0.03743  1.0000
  C   C33       1.0  0.20968  0.38660  0.03459  1.0000
  C   C34       1.0  0.02180  0.43160  0.09031  1.0000
  C   C35       1.0  0.14560  0.02559  0.08646  1.0000
  H   H55       1.0  0.14347  0.01923  0.05458  1.0000
  C   C36       1.0  0.01945  0.39619  0.21218  1.0000
  H   H56       1.0  0.22377  0.38325  0.03760  1.0000
  H   H57       1.0  0.99138  0.00752  0.19428  1.0000
  H   H58       1.0  0.19104  0.38088  0.06920  1.0000
  H   H59       1.0  0.22725  0.97697  0.00494  1.0000
  C   C37       1.0  0.08501  0.01252  0.18982  1.0000
  C   C38       1.0  0.18093  0.37671  0.03958  1.0000
  H   H60       1.0  0.17109  0.33004  0.18683  1.0000
  C   C39       1.0  0.03902  0.41752  0.02604  1.0000
  H   H61       1.0  0.99706  0.98804  0.01595  1.0000
  S   S15       1.0  0.22829  0.36159  0.14979  1.0000
  H   H62       1.0  0.09562  0.03413  0.20593  1.0000
  N   N3        1.0  0.21544  0.98543  0.98086  1.0000
  H   H63       1.0  0.19050  0.35735  0.07108  1.0000
  C   C40       1.0  0.14741  0.42795  0.04192  1.0000
  C   C41       1.0  0.13547  0.42101  0.05762  1.0000
  C   C42       1.0  0.14173  0.41361  0.07410  1.0000
  C   C43       1.0  0.15990  0.41320  0.07500  1.0000
  C   C44       1.0  0.17171  0.42053  0.05939  1.0000
  C   C45       1.0  0.16553  0.42772  0.04284  1.0000
  H   H64       1.0  0.12148  0.42111  0.05702  1.0000
  H   H65       1.0  0.13250  0.40803  0.08617  1.0000
  H   H66       1.0  0.01377  0.43200  0.05236  1.0000
  H   H67       1.0  0.02653  0.02082  0.98837  1.0000
  H   H68       1.0  0.15903  0.02471  0.07667  1.0000
  H   H69       1.0  0.07827  0.02707  0.18592  1.0000
  H   H70       1.0  0.08536  0.00541  0.17877  1.0000
  S   S16       1.0  0.05802  0.46611  0.02196  1.0000
  Fe  Fe9       1.0  0.19817  0.01808  0.08840  1.0000
  H   H71       1.0  0.15781  0.99301  0.07631  1.0000
  H   H72       1.0  0.13645  0.98520  0.08450  1.0000
  S   S17       1.0  0.18706  0.99238  0.09777  1.0000
  H   H73       1.0  0.20251  0.39951  0.03933  1.0000
  H   H74       1.0  0.21207  0.36422  0.06720  1.0000
  C   C46       1.0  0.21117  0.36731  0.20236  1.0000
  C   C47       1.0  0.21352  0.00508  0.98044  1.0000
  N   N4        1.0  0.13439  0.01373  0.08382  1.0000
  H   H75       1.0  0.21113  0.38939  0.01947  1.0000
  S   S18       1.0  0.22913  0.18795  0.96648  1.0000
  N   N5        1.0  0.02145  0.43033  0.02387  1.0000
  H   H76       1.0  0.10920  0.99337  0.14815  1.0000
  H   H77       1.0  0.06167  0.40660  0.19368  1.0000
  S   S19       1.0  0.14530  0.00190  0.13752  1.0000
  H   H78       1.0  0.04402  0.97751  0.98296  1.0000
  H   H79       1.0  0.00360  0.00501  0.02397  1.0000
  H   H80       1.0  0.03788  0.40837  0.03981  1.0000
  C   C48       1.0  0.18431  0.21258  0.99706  1.0000
  H   H81       1.0  0.20267  0.97968  0.00930  1.0000
  H   H82       1.0  0.13854  0.04020  0.08440  1.0000
  H   H83       1.0  0.01121  0.40932  0.20611  1.0000
  S   S20       1.0  0.22509  0.00576  0.09759  1.0000
  C   C49       1.0  0.22117  0.36150  0.18624  1.0000
  H   H84       1.0  0.12666  0.98945  0.19927  1.0000
  N   N6        1.0  0.10364  0.01080  0.19307  1.0000
  H   H85       1.0  0.03998  0.41842  0.18761  1.0000
  H   H86       1.0  0.19103  0.18331  0.98170  1.0000
  C   C50       1.0  0.19680  0.38258  0.20170  1.0000
  H   H87       1.0  0.19919  0.20638  0.99347  1.0000
  H   H88       1.0  0.21072  0.35659  0.02198  1.0000
  S   S21       1.0  0.19512  0.03614  0.06080  1.0000
  H   H89       1.0  0.02140  0.41738  0.09172  1.0000
  H   H90       1.0  0.04902  0.39524  0.18477  1.0000
  C   C51       1.0  0.00726  0.41987  0.02513  1.0000
  H   H91       1.0  0.22219  0.21501  0.12369  1.0000
  H   H92       1.0  0.10456  0.98411  0.21035  1.0000
  C   C52       1.0  0.15407  0.21730  0.99036  1.0000
  C   C53       1.0  0.05874  0.40688  0.97642  1.0000
  H   H93       1.0  0.11944  0.01065  0.11163  1.0000
  S   S22       1.0  0.05188  0.42585  0.06288  1.0000
  C   C54       1.0  0.00854  0.44224  0.10170  1.0000
  H   H94       1.0  0.02602  0.44900  0.03809  1.0000
  H   H95       1.0  0.21015  0.31632  0.16712  1.0000
  H   H96       1.0  0.17280  0.38904  0.04498  1.0000
  C   C55       1.0  0.00910  0.46058  0.10010  1.0000
  H   H97       1.0  0.02012  0.38603  0.20389  1.0000
  N   N7        1.0  0.19677  0.31710  0.19516  1.0000
  H   H98       1.0  0.10815  0.00614  0.09591  1.0000
  C   C56       1.0  0.02394  0.44282  0.00581  1.0000
  Fe  Fe10      1.0  0.22420  0.37892  0.12223  1.0000
  N   N8        1.0  0.17380  0.20949  0.98479  1.0000
  C   C57       1.0  0.02284  0.46828  0.08692  1.0000
  H   H99       1.0  0.06038  0.39342  0.98511  1.0000
  H   H100      1.0  0.01118  0.45314  0.00391  1.0000
  C   C58       1.0  0.19975  0.98261  0.97470  1.0000
  H   H101      1.0  0.18335  0.22741  0.99616  1.0000
  C   C59       1.0  0.03600  0.45770  0.07542  1.0000
  C   C60       1.0  0.04760  0.40493  0.19383  1.0000
  H   H102      1.0  0.05021  0.37004  0.21207  1.0000
  H   H103      1.0  0.02014  0.99176  0.00879  1.0000
  H   H104      1.0  0.99295  0.45360  0.21437  1.0000
  C   C61       1.0  0.13053  0.01970  0.06513  1.0000
  S   S23       1.0  0.13508  0.04912  0.97179  1.0000
  H   H105      1.0  0.07591  0.00638  0.20231  1.0000
  C   C62       1.0  0.23276  0.97905  0.96849  1.0000
  C   C63       1.0  0.00367  0.00387  0.98009  1.0000
  C   C64       1.0  0.21566  0.97506  0.99977  1.0000
  Fe  Fe11      1.0  0.23166  0.41277  0.09418  1.0000
  H   H106      1.0  0.20043  0.01043  0.98937  1.0000
  H   H107      1.0  0.11554  0.01425  0.16439  1.0000
  H   H108      1.0  0.22496  0.00772  0.98526  1.0000
  H   H109      1.0  0.20738  0.32964  0.21121  1.0000
  H   H110      1.0  0.11293  0.98409  0.18632  1.0000
  H   H111      1.0  0.21355  0.01331  0.96632  1.0000
  C   C65       1.0  0.12983  0.46474  0.06698  1.0000
  H   H112      1.0  0.21993  0.29889  0.20523  1.0000
  H   H113      1.0  0.01850  0.99805  0.97586  1.0000
  H   H114      1.0  0.18704  0.34317  0.20331  1.0000
  H   H115      1.0  0.23302  0.33663  0.08795  1.0000
  H   H116      1.0  0.99151  0.97835  0.18782  1.0000
  H   H117      1.0  0.23153  0.30439  0.09018  1.0000
  H   H118      1.0  0.06323  0.02298  0.97297  1.0000
  H   H119      1.0  0.00512  0.41027  0.03859  1.0000
  H   H120      1.0  0.23237  0.34976  0.18690  1.0000
  H   H121      1.0  0.21466  0.35992  0.21525  1.0000
  H   H122      1.0  0.22100  0.40345  0.21265  1.0000
  N   N9        1.0  0.03798  0.39830  0.21262  1.0000
  H   H123      1.0  0.23438  0.26094  0.10542  1.0000
  Fe  Fe12      1.0  0.01156  0.00268  0.28589  1.0000
  Fe  Fe13      1.0  0.03771  0.02637  0.28649  1.0000
  S   S24       1.0  0.04057  0.05508  0.28587  1.0000
  S   S25       1.0  0.01959  0.01009  0.30893  1.0000
  H   H124      1.0  0.21173  0.28855  0.28530  1.0000
  H   H125      1.0  0.10148  0.37368  0.31811  1.0000
  H   H126      1.0  0.99599  0.12324  0.34669  1.0000
  H   H127      1.0  0.99762  0.97417  0.31958  1.0000
  H   H128      1.0  0.09693  0.04175  0.44532  1.0000
  H   H129      1.0  0.18060  0.16214  0.39612  1.0000
  H   H130      1.0  0.19473  0.14235  0.30282  1.0000
  H   H131      1.0  0.21832  0.24027  0.31126  1.0000
  H   H132      1.0  0.18695  0.12426  0.42071  1.0000
  C   C66       1.0  0.03555  0.44842  0.35357  1.0000
  S   S26       1.0  0.22577  0.43241  0.30354  1.0000
  Fe  Fe14      1.0  0.08308  0.09389  0.34487  1.0000
  S   S27       1.0  0.06151  0.11296  0.36049  1.0000
  S   S28       1.0  0.08058  0.06557  0.34418  1.0000
  Fe  Fe15      1.0  0.10986  0.11976  0.33238  1.0000
  S   S29       1.0  0.09074  0.14152  0.34654  1.0000
  S   S30       1.0  0.13725  0.12115  0.31329  1.0000
  Fe  Fe16      1.0  0.08501  0.11804  0.36973  1.0000
  S   S31       1.0  0.08033  0.12046  0.39904  1.0000
  Fe  Fe17      1.0  0.06871  0.13488  0.33628  1.0000
  S   S32       1.0  0.04783  0.15674  0.32312  1.0000
  S   S33       1.0  0.10607  0.09677  0.35654  1.0000
  S   S34       1.0  0.08830  0.11539  0.31977  1.0000
  C   C67       1.0  0.22546  0.28273  0.28892  1.0000
  H   H133      1.0  0.15336  0.07834  0.29167  1.0000
  H   H134      1.0  0.03341  0.44020  0.30642  1.0000
  H   H135      1.0  0.21760  0.23659  0.25372  1.0000
  C   C68       1.0  0.17989  0.15002  0.39115  1.0000
  S   S35       1.0  0.15267  0.11503  0.42697  1.0000
  H   H136      1.0  0.21137  0.11888  0.41315  1.0000
  H   H137      1.0  0.02633  0.42291  0.36481  1.0000
  Fe  Fe18      1.0  0.00538  0.41277  0.27343  1.0000
  H   H138      1.0  0.23145  0.43487  0.41985  1.0000
  Fe  Fe19      1.0  0.03809  0.38206  0.27828  1.0000
  S   S36       1.0  0.02708  0.37229  0.30812  1.0000
  S   S37       1.0  0.06491  0.37255  0.26002  1.0000
  H   H139      1.0  0.00496  0.11523  0.29928  1.0000
  H   H140      1.0  0.06383  0.40862  0.33730  1.0000
  Fe  Fe20      1.0  0.01937  0.40219  0.30937  1.0000
  S   S38       1.0  0.01168  0.38384  0.26965  1.0000
  S   S39       1.0  0.03262  0.41150  0.28016  1.0000
  H   H141      1.0  0.11555  0.07855  0.28503  1.0000
  Fe  Fe21      1.0  0.19568  0.32637  0.25885  1.0000
  S   S40       1.0  0.21071  0.34929  0.25290  1.0000
  S   S41       1.0  0.21179  0.30224  0.24639  1.0000
  Fe  Fe22      1.0  0.16150  0.34705  0.28023  1.0000
  S   S42       1.0  0.17359  0.37195  0.27569  1.0000
  S   S43       1.0  0.13361  0.34514  0.29827  1.0000
  Fe  Fe23      1.0  0.18425  0.36721  0.24695  1.0000
  H   H142      1.0  0.02940  0.12254  0.34044  1.0000
  Fe  Fe24      1.0  0.19905  0.35183  0.28196  1.0000
  H   H143      1.0  0.01977  0.09628  0.31062  1.0000
  S   S44       1.0  0.16982  0.34412  0.25083  1.0000
  S   S45       1.0  0.18633  0.32706  0.28868  1.0000
  H   H144      1.0  0.22770  0.12504  0.23560  1.0000
  H   H145      1.0  0.22577  0.13247  0.38158  1.0000
  C   C69       1.0  0.99968  0.32671  0.30649  1.0000
  H   H146      1.0  0.20022  0.14141  0.41712  1.0000
  C   C70       1.0  0.22405  0.46567  0.38021  1.0000
  H   H147      1.0  0.10765  0.38811  0.29634  1.0000
  H   H148      1.0  0.19695  0.27845  0.31701  1.0000
  H   H149      1.0  0.21456  0.15497  0.38554  1.0000
  C   C71       1.0  0.07746  0.39943  0.33436  1.0000
  H   H150      1.0  0.08707  0.40348  0.34060  1.0000
  H   H151      1.0  0.16792  0.20252  0.30542  1.0000
  C   C72       1.0  0.20709  0.39105  0.29507  1.0000
  S   S46       1.0  0.02375  0.40896  0.33477  1.0000
  H   H152      1.0  0.14913  0.19729  0.32374  1.0000
  H   H153      1.0  0.14186  0.16617  0.31084  1.0000
  H   H154      1.0  0.19566  0.38963  0.29006  1.0000
  H   H155      1.0  0.19870  0.42036  0.29218  1.0000
  C   C73       1.0  0.01780  0.46998  0.45794  1.0000
  C   C74       1.0  0.98643  0.43047  0.23538  1.0000
  C   C75       1.0  0.20330  0.28197  0.25431  1.0000
  H   H156      1.0  0.20988  0.26195  0.33254  1.0000
  C   C76       1.0  0.16014  0.18646  0.28165  1.0000
  S   S47       1.0  0.02767  0.02092  0.26358  1.0000
  H   H157      1.0  0.21462  0.28465  0.32436  1.0000
  H   H158      1.0  0.99885  0.14570  0.30730  1.0000
  C   C77       1.0  0.03033  0.97571  0.21955  1.0000
  C   C78       1.0  0.08399  0.36437  0.27061  1.0000
  C   C79       1.0  0.08185  0.35618  0.28917  1.0000
  C   C80       1.0  0.09725  0.34989  0.29744  1.0000
  C   C81       1.0  0.11480  0.35197  0.28723  1.0000
  C   C82       1.0  0.11693  0.36014  0.26866  1.0000
  C   C83       1.0  0.10156  0.36616  0.26033  1.0000
  H   H159      1.0  0.06836  0.35449  0.29710  1.0000
  H   H160      1.0  0.09557  0.34345  0.31178  1.0000
  H   H161      1.0  0.13037  0.36198  0.26075  1.0000
  H   H162      1.0  0.10327  0.37248  0.24595  1.0000
  C   C84       1.0  0.00941  0.44042  0.46458  1.0000
  H   H163      1.0  0.07425  0.45569  0.42253  1.0000
  H   H164      1.0  0.09396  0.01269  0.22139  1.0000
  H   H165      1.0  0.20545  0.45258  0.40260  1.0000
  H   H166      1.0  0.04336  0.11914  0.31873  1.0000
  C   C85       1.0  0.01721  0.11141  0.30575  1.0000
  H   H167      1.0  0.09604  0.42403  0.31082  1.0000
  H   H168      1.0  0.13039  0.03590  0.43168  1.0000
  H   H169      1.0  0.20725  0.10871  0.38655  1.0000
  N   N10       1.0  0.08423  0.40048  0.31447  1.0000
  C   C86       1.0  0.02919  0.42968  0.33548  1.0000
  H   H170      1.0  0.12224  0.07744  0.41525  1.0000
  Fe  Fe25      1.0  0.04343  0.98656  0.30583  1.0000
  H   H171      1.0  0.23219  0.37929  0.25823  1.0000
  S   S48       1.0  0.06224  0.00336  0.28514  1.0000
  H   H172      1.0  0.17015  0.19562  0.27492  1.0000
  C   C87       1.0  0.17930  0.14329  0.33018  1.0000
  C   C88       1.0  0.16340  0.13943  0.34293  1.0000
  C   C89       1.0  0.15044  0.13244  0.33798  1.0000
  C   C90       1.0  0.15351  0.12901  0.32035  1.0000
  C   C91       1.0  0.16955  0.13257  0.30776  1.0000
  C   C92       1.0  0.18235  0.13978  0.31262  1.0000
  H   H173      1.0  0.16093  0.14214  0.35654  1.0000
  H   H174      1.0  0.13808  0.12975  0.34777  1.0000
  H   H175      1.0  0.17203  0.12988  0.29413  1.0000
  C   C93       1.0  0.10045  0.11972  0.40638  1.0000
  C   C94       1.0  0.09929  0.12081  0.42450  1.0000
  C   C95       1.0  0.11526  0.11971  0.43081  1.0000
  C   C96       1.0  0.13244  0.11738  0.41906  1.0000
  C   C97       1.0  0.13358  0.11661  0.40081  1.0000
  C   C98       1.0  0.11758  0.11774  0.39447  1.0000
  H   H176      1.0  0.08605  0.12245  0.43373  1.0000
  H   H177      1.0  0.04359  0.46782  0.30831  1.0000
  H   H178      1.0  0.14683  0.11492  0.39162  1.0000
  H   H179      1.0  0.11855  0.11699  0.38043  1.0000
  H   H180      1.0  0.19316  0.12387  0.37129  1.0000
  N   N11       1.0  0.22621  0.40424  0.23862  1.0000
  H   H181      1.0  0.09102  0.42073  0.29040  1.0000
  C   C99       1.0  0.21254  0.46393  0.39756  1.0000
  C   C100      1.0  0.08611  0.41944  0.30545  1.0000
  H   H182      1.0  0.11280  0.39194  0.31640  1.0000
  H   H183      1.0  0.01107  0.33375  0.30090  1.0000
  C   C101      1.0  0.20866  0.24911  0.25693  1.0000
  C   C102      1.0  0.21480  0.26565  0.25035  1.0000
  C   C103      1.0  0.10231  0.38806  0.31120  1.0000
  S   S49       1.0  0.18405  0.38979  0.22196  1.0000
  C   C104      1.0  0.22924  0.39515  0.22304  1.0000
  C   C105      1.0  0.03633  0.41164  0.22408  1.0000
  C   C106      1.0  0.00887  0.16645  0.36793  1.0000
  C   C107      1.0  0.02366  0.15788  0.35606  1.0000
  C   C108      1.0  0.02969  0.16736  0.33840  1.0000
  C   C109      1.0  0.02084  0.18539  0.33265  1.0000
  C   C110      1.0  0.00633  0.19411  0.34469  1.0000
  H   H184      1.0  0.99139  0.29375  0.39500  1.0000
  H   H185      1.0  0.03020  0.14389  0.36053  1.0000
  H   H186      1.0  0.02541  0.19277  0.31897  1.0000
  Fe  Fe26      1.0  0.20620  0.20509  0.28455  1.0000
  H   H187      1.0  0.12632  0.17959  0.29639  1.0000
  C   C111      1.0  0.05220  0.05761  0.30183  1.0000
  C   C112      1.0  0.05612  0.07473  0.30076  1.0000
  C   C113      1.0  0.06471  0.07736  0.31375  1.0000
  C   C114      1.0  0.06961  0.06280  0.32778  1.0000
  C   C115      1.0  0.06608  0.04558  0.32861  1.0000
  C   C116      1.0  0.05733  0.04299  0.31571  1.0000
  H   H188      1.0  0.05253  0.08592  0.28979  1.0000
  H   H189      1.0  0.06762  0.09059  0.31282  1.0000
  H   H190      1.0  0.06992  0.03423  0.33937  1.0000
  H   H191      1.0  0.05441  0.02972  0.31658  1.0000
  H   H192      1.0  0.04153  0.37501  0.23456  1.0000
  C   C117      1.0  0.03105  0.11550  0.32899  1.0000
  H   H193      1.0  0.15256  0.18612  0.27120  1.0000
  C   C118      1.0  0.01403  0.45593  0.45186  1.0000
  H   H194      1.0  0.12054  0.09368  0.29676  1.0000
  H   H195      1.0  0.16820  0.17243  0.28555  1.0000
  C   C119      1.0  0.03395  0.44246  0.31956  1.0000
  H   H196      1.0  0.07567  0.38535  0.34157  1.0000
  C   C120      1.0  0.21899  0.25229  0.29973  1.0000
  C   C121      1.0  0.15819  0.19298  0.31121  1.0000
  S   S50       1.0  0.20749  0.19947  0.31415  1.0000
  N   N12       1.0  0.13082  0.06512  0.30630  1.0000
  H   H197      1.0  0.12760  0.21679  0.30378  1.0000
  C   C122      1.0  0.12526  0.04747  0.30877  1.0000
  C   C123      1.0  0.13216  0.06787  0.32420  1.0000
  C   C124      1.0  0.14887  0.06515  0.29368  1.0000
  H   H198      1.0  0.10314  0.08031  0.30773  1.0000
  C   C125      1.0  0.19893  0.12982  0.41166  1.0000
  H   H199      1.0  0.11165  0.04710  0.31828  1.0000
  H   H200      1.0  0.12392  0.04500  0.29557  1.0000
  H   H201      1.0  0.13538  0.03581  0.31462  1.0000
  H   H202      1.0  0.11885  0.06759  0.33414  1.0000
  H   H203      1.0  0.13586  0.08130  0.32293  1.0000
  C   C126      1.0  0.22012  0.37560  0.30043  1.0000
  H   H204      1.0  0.15972  0.05401  0.29906  1.0000
  H   H205      1.0  0.14406  0.05218  0.43078  1.0000
  C   C127      1.0  0.13207  0.04602  0.43890  1.0000
  H   H206      1.0  0.03412  0.10049  0.33445  1.0000
  Fe  Fe27      1.0  0.21178  0.16996  0.31263  1.0000
  H   H207      1.0  0.02922  0.11470  0.29485  1.0000
  N   N13       1.0  0.04377  0.17073  0.40049  1.0000
  C   C128      1.0  0.05023  0.18799  0.39748  1.0000
  C   C129      1.0  0.02344  0.17448  0.40434  1.0000
  C   C130      1.0  0.05054  0.15772  0.41620  1.0000
  C   C131      1.0  0.05093  0.16274  0.38391  1.0000
  H   H208      1.0  0.04510  0.19439  0.40973  1.0000
  H   H209      1.0  0.04532  0.19810  0.38571  1.0000
  H   H210      1.0  0.06553  0.18566  0.39450  1.0000
  H   H211      1.0  0.01806  0.16179  0.40652  1.0000
  H   H212      1.0  0.01753  0.18044  0.41681  1.0000
  H   H213      1.0  0.01785  0.18437  0.39281  1.0000
  H   H214      1.0  0.04527  0.16313  0.42904  1.0000
  H   H215      1.0  0.06585  0.15471  0.41380  1.0000
  H   H216      1.0  0.04625  0.14438  0.41860  1.0000
  H   H217      1.0  0.04637  0.14965  0.38572  1.0000
  H   H218      1.0  0.06625  0.15961  0.38071  1.0000
  H   H219      1.0  0.04615  0.17217  0.37174  1.0000
  C   C132      1.0  0.21090  0.27331  0.32036  1.0000
  S   S51       1.0  0.19476  0.15320  0.33620  1.0000
  C   C133      1.0  0.13715  0.21148  0.29195  1.0000
  Fe  Fe28      1.0  0.05079  0.99644  0.26420  1.0000
  C   C134      1.0  0.07096  0.39504  0.30686  1.0000
  H   H220      1.0  0.00403  0.15898  0.38148  1.0000
  C   C135      1.0  0.02996  0.43276  0.35245  1.0000
  H   H221      1.0  0.17785  0.15475  0.37676  1.0000
  H   H222      1.0  0.12971  0.07990  0.44368  1.0000
  C   C136      1.0  0.99136  0.30432  0.35911  1.0000
  H   H223      1.0  0.16738  0.14489  0.39954  1.0000
  S   S52       1.0  0.20830  0.17579  0.28346  1.0000
  C   C137      1.0  0.01109  0.14101  0.31382  1.0000
  C   C138      1.0  0.21288  0.14296  0.38100  1.0000
  N   N14       1.0  0.11518  0.06019  0.44156  1.0000
  H   H224      1.0  0.01629  0.30001  0.30400  1.0000
  C   C139      1.0  0.22352  0.41040  0.30295  1.0000
  S   S53       1.0  0.21894  0.35376  0.29818  1.0000
  H   H225      1.0  0.19830  0.29237  0.21572  1.0000
  S   S54       1.0  0.05781  0.46594  0.38984  1.0000
  C   C140      1.0  0.19088  0.24884  0.26727  1.0000
  S   S55       1.0  0.99606  0.43609  0.25119  1.0000
  H   H226      1.0  0.17653  0.29440  0.26766  1.0000
  H   H227      1.0  0.06854  0.38111  0.31389  1.0000
  H   H228      1.0  0.07271  0.42916  0.30779  1.0000
  H   H229      1.0  0.00055  0.10122  0.34068  1.0000
  C   C141      1.0  0.99844  0.11621  0.33505  1.0000
  H   H230      1.0  0.00509  0.30244  0.36247  1.0000
  H   H231      1.0  0.13570  0.03836  0.45228  1.0000
  H   H232      1.0  0.05738  0.40453  0.30854  1.0000
  S   S56       1.0  0.99219  0.27434  0.31950  1.0000
  H   H233      1.0  0.02904  0.40719  0.23832  1.0000
  H   H234      1.0  0.02312  0.14521  0.30346  1.0000
  C   C142      1.0  0.00260  0.30763  0.30830  1.0000
  H   H235      1.0  0.99995  0.20819  0.34032  1.0000
  H   H236      1.0  0.09962  0.44955  0.45930  1.0000
  N   N15       1.0  0.14748  0.19281  0.29776  1.0000
  C   C143      1.0  0.05837  0.97868  0.22680  1.0000
  C   C144      1.0  0.11096  0.07034  0.42360  1.0000
  H   H237      1.0  0.01672  0.97800  0.34452  1.0000
  H   H238      1.0  0.07587  0.39500  0.29199  1.0000
  H   H239      1.0  0.03612  0.45059  0.36674  1.0000
  C   C145      1.0  0.04852  0.38044  0.22040  1.0000
  H   H240      1.0  0.16657  0.17925  0.31549  1.0000
  H   H241      1.0  0.12465  0.18467  0.31838  1.0000
  H   H242      1.0  0.19786  0.41575  0.23707  1.0000
  S   S57       1.0  0.03404  0.97771  0.28473  1.0000
  N   N16       1.0  0.19666  0.13567  0.39241  1.0000
  H   H243      1.0  0.14274  0.05701  0.33032  1.0000
  C   C146      1.0  0.17919  0.26524  0.27089  1.0000
  N   N17       1.0  0.01444  0.12103  0.32089  1.0000
  H   H244      1.0  0.14836  0.06323  0.27998  1.0000
  H   H245      1.0  0.12889  0.21186  0.28181  1.0000
  H   H246      1.0  0.14662  0.22122  0.28541  1.0000
  C   C147      1.0  0.18548  0.28180  0.26460  1.0000
  H   H247      1.0  0.02445  0.97333  0.40298  1.0000
  Fe  Fe29      1.0  0.14956  0.10829  0.45777  1.0000
  C   C148      1.0  0.11693  0.08010  0.29858  1.0000
  C   C149      1.0  0.13447  0.18031  0.30621  1.0000
  H   H248      1.0  0.20154  0.39424  0.25251  1.0000
  H   H249      1.0  0.10890  0.06109  0.41559  1.0000
  H   H250      1.0  0.22435  0.43115  0.22168  1.0000
  H   H251      1.0  0.11422  0.12087  0.44474  1.0000
  C   C150      1.0  0.20881  0.40842  0.29631  1.0000
  C   C151      1.0  0.23219  0.42197  0.23201  1.0000
  S   S58       1.0  0.18337  0.22804  0.27605  1.0000
  H   H252      1.0  0.22499  0.38169  0.22762  1.0000
  C   C152      1.0  0.19490  0.11988  0.38579  1.0000
  C   C153      1.0  0.09966  0.05144  0.45240  1.0000
  H   H253      1.0  0.16541  0.26510  0.27887  1.0000
  H   H254      1.0  0.22899  0.24733  0.28791  1.0000
  C   C154      1.0  0.03972  0.45807  0.32067  1.0000
  C   C155      1.0  0.00030  0.18465  0.36235  1.0000
  C   C156      1.0  0.04060  0.46104  0.33767  1.0000
  H   H255      1.0  0.21167  0.14749  0.36638  1.0000
  Fe  Fe30      1.0  0.99995  0.37691  0.29973  1.0000
  H   H256      1.0  0.09818  0.08103  0.42521  1.0000
  N   N18       1.0  0.07415  0.45184  0.45113  1.0000
  H   H257      1.0  0.03111  0.98872  0.24104  1.0000
  S   S59       1.0  0.01594  0.45692  0.42844  1.0000
  H   H258      1.0  0.22859  0.26575  0.24234  1.0000
  C   C157      1.0  0.11808  0.07302  0.45144  1.0000
  H   H259      1.0  0.20352  0.41452  0.25872  1.0000
  H   H260      1.0  0.08677  0.06175  0.45508  1.0000
  C   C158      1.0  0.20643  0.40737  0.24713  1.0000
  C   C159      1.0  0.03916  0.98167  0.23025  1.0000
  C   C160      1.0  0.06794  0.44812  0.43598  1.0000
  H   H261      1.0  0.01167  0.39154  0.22619  1.0000
  H   H262      1.0  0.99093  0.31499  0.34640  1.0000
  C   C161      1.0  0.06822  0.47151  0.45165  1.0000
  H   H263      1.0  0.10562  0.08388  0.45388  1.0000
  N   N19       1.0  0.22455  0.26719  0.30467  1.0000
  H   H264      1.0  0.09943  0.43208  0.44762  1.0000
  H   H265      1.0  0.05275  0.45237  0.43733  1.0000
  H   H266      1.0  0.00869  0.14868  0.32496  1.0000
  H   H267      1.0  0.20527  0.25685  0.29588  1.0000
  H   H268      1.0  0.07163  0.43334  0.43546  1.0000
  C   C162      1.0  0.98669  0.44171  0.21796  1.0000
  S   S60       1.0  0.99143  0.40626  0.30293  1.0000
  H   H269      1.0  0.18273  0.11410  0.39412  1.0000
  C   C163      1.0  0.98800  0.29836  0.31613  1.0000
  H   H270      1.0  0.98786  0.99995  0.21869  1.0000
  H   H271      1.0  0.10090  0.45479  0.43503  1.0000
  S   S61       1.0  0.06967  0.98708  0.23925  1.0000
  H   H272      1.0  0.99048  0.29130  0.35586  1.0000
  H   H273      1.0  0.00640  0.42955  0.45992  1.0000
  H   H274      1.0  0.22561  0.45585  0.37185  1.0000
  H   H275      1.0  0.99147  0.02433  0.25444  1.0000
  C   C164      1.0  0.09443  0.44680  0.44819  1.0000
  H   H276      1.0  0.18557  0.32358  0.22175  1.0000
  H   H277      1.0  0.99080  0.32682  0.38095  1.0000
  H   H278      1.0  0.23006  0.42919  0.24346  1.0000
  H   H279      1.0  0.06250  0.38152  0.22128  1.0000
  H   H280      1.0  0.02839  0.42530  0.21870  1.0000
  H   H281      1.0  0.23165  0.14306  0.25655  1.0000
  H   H282      1.0  0.05006  0.41338  0.22498  1.0000
  H   H283      1.0  0.23016  0.29404  0.29190  1.0000
  H   H284      1.0  0.01551  0.97796  0.22232  1.0000
  H   H285      1.0  0.98565  0.12021  0.32941  1.0000
  H   H286      1.0  0.12144  0.06582  0.46499  1.0000
  S   S62       1.0  0.11119  0.40556  0.67208  1.0000
  H   H287      1.0  0.18948  0.21725  0.65048  1.0000
  C   C165      1.0  0.11117  0.12282  0.54174  1.0000
  S   S63       1.0  0.14748  0.04571  0.49314  1.0000
  S   S64       1.0  0.10445  0.13426  0.50670  1.0000
  H   H288      1.0  0.14176  0.46776  0.56725  1.0000
  S   S65       1.0  0.14814  0.09158  0.51031  1.0000
  H   H289      1.0  0.04919  0.39443  0.63658  1.0000
  S   S66       1.0  0.12129  0.30069  0.68948  1.0000
  C   C166      1.0  0.03497  0.43794  0.61751  1.0000
  Fe  Fe31      1.0  0.09302  0.27009  0.67934  1.0000
  S   S67       1.0  0.10343  0.29280  0.65789  1.0000
  S   S68       1.0  0.07451  0.25222  0.67769  1.0000
  Fe  Fe32      1.0  0.12958  0.28288  0.66864  1.0000
  S   S69       1.0  0.15675  0.28338  0.64890  1.0000
  Fe  Fe33      1.0  0.09436  0.30911  0.68007  1.0000
  S   S70       1.0  0.07905  0.33781  0.67095  1.0000
  S   S71       1.0  0.12010  0.25849  0.68792  1.0000
  S   S72       1.0  0.08168  0.28716  0.70086  1.0000
  H   H290      1.0  0.22778  0.15445  0.47122  1.0000
  H   H291      1.0  0.16444  0.16137  0.56616  1.0000
  Fe  Fe34      1.0  0.07249  0.16692  0.59476  1.0000
  S   S73       1.0  0.06867  0.17499  0.62169  1.0000
  S   S74       1.0  0.09102  0.14040  0.58952  1.0000
  Fe  Fe35      1.0  0.04864  0.20239  0.57889  1.0000
  S   S75       1.0  0.04307  0.21375  0.60427  1.0000
  S   S76       1.0  0.03785  0.21656  0.55323  1.0000
  Fe  Fe36      1.0  0.07305  0.20237  0.60464  1.0000
  S   S77       1.0  0.09425  0.21649  0.60775  1.0000
  Fe  Fe37      1.0  0.03918  0.18536  0.61892  1.0000
  C   C167      1.0  0.14145  0.35927  0.64007  1.0000
  S   S78       1.0  0.07898  0.19349  0.57782  1.0000
  S   S79       1.0  0.04266  0.17483  0.59340  1.0000
  C   C168      1.0  0.01457  0.22721  0.55601  1.0000
  S   S80       1.0  0.10512  0.44272  0.62771  1.0000
  H   H292      1.0  0.19433  0.23854  0.63623  1.0000
  S   S81       1.0  0.99739  0.41926  0.60190  1.0000
  Fe  Fe38      1.0  0.08392  0.97977  0.51068  1.0000
  H   H293      1.0  0.01882  0.39182  0.65457  1.0000
  C   C169      1.0  0.01544  0.12913  0.63920  1.0000
  C   C170      1.0  0.02060  0.14595  0.63683  1.0000
  H   H294      1.0  0.02689  0.13165  0.69381  1.0000
  C   C171      1.0  0.04855  0.43999  0.60160  1.0000
  H   H295      1.0  0.13106  0.14617  0.56627  1.0000
  H   H296      1.0  0.02521  0.11800  0.63380  1.0000
  H   H297      1.0  0.03433  0.14770  0.62971  1.0000
  S   S82       1.0  0.01590  0.44963  0.51187  1.0000
  S   S83       1.0  0.15178  0.12686  0.47500  1.0000
  C   C172      1.0  0.08012  0.24250  0.65811  1.0000
  C   C173      1.0  0.06833  0.23237  0.65571  1.0000
  C   C174      1.0  0.07251  0.22441  0.64024  1.0000
  C   C175      1.0  0.08859  0.22648  0.62715  1.0000
  C   C176      1.0  0.10042  0.23657  0.62958  1.0000
  C   C177      1.0  0.09619  0.24462  0.64500  1.0000
  H   H298      1.0  0.05589  0.23070  0.66581  1.0000
  H   H299      1.0  0.06333  0.21664  0.63848  1.0000
  H   H300      1.0  0.11287  0.23821  0.61948  1.0000
  H   H301      1.0  0.10536  0.25238  0.64677  1.0000
  C   C178      1.0  0.10106  0.13572  0.52975  1.0000
  C   C179      1.0  0.10783  0.12413  0.56019  1.0000
  C   C180      1.0  0.09457  0.13847  0.56661  1.0000
  C   C181      1.0  0.08463  0.15150  0.55458  1.0000
  C   C182      1.0  0.08778  0.15003  0.53623  1.0000
  H   H302      1.0  0.07440  0.16263  0.55942  1.0000
  H   H303      1.0  0.07993  0.16004  0.52700  1.0000
  C   C183      1.0  0.09687  0.02087  0.50211  1.0000
  C   C184      1.0  0.12762  0.03710  0.49563  1.0000
  C   C185      1.0  0.12970  0.01970  0.49200  1.0000
  C   C186      1.0  0.11443  0.01152  0.49541  1.0000
  H   H304      1.0  0.14325  0.01238  0.48678  1.0000
  H   H305      1.0  0.11626  0.99796  0.49286  1.0000
  C   C187      1.0  0.09465  0.03862  0.50505  1.0000
  C   C188      1.0  0.99557  0.18712  0.57540  1.0000
  H   H306      1.0  0.01990  0.35891  0.62599  1.0000
  H   H307      1.0  0.00244  0.01655  0.65397  1.0000
  H   H308      1.0  0.23064  0.11434  0.53530  1.0000
  C   C189      1.0  0.99477  0.16174  0.60124  1.0000
  H   H309      1.0  0.11556  0.11404  0.56946  1.0000
  C   C190      1.0  0.20744  0.25738  0.67415  1.0000
  C   C191      1.0  0.18989  0.25550  0.68449  1.0000
  C   C192      1.0  0.17417  0.26390  0.67703  1.0000
  C   C193      1.0  0.17599  0.27401  0.65910  1.0000
  C   C194      1.0  0.19345  0.27632  0.64893  1.0000
  C   C195      1.0  0.20912  0.26823  0.65652  1.0000
  H   H310      1.0  0.18848  0.24721  0.69817  1.0000
  H   H311      1.0  0.16070  0.26215  0.68502  1.0000
  H   H312      1.0  0.19490  0.28428  0.63511  1.0000
  S   S84       1.0  0.17036  0.08529  0.46933  1.0000
  C   C196      1.0  0.10210  0.38674  0.67210  1.0000
  C   C197      1.0  0.09040  0.38830  0.66025  1.0000
  C   C198      1.0  0.08341  0.37318  0.66013  1.0000
  C   C199      1.0  0.08813  0.35637  0.67174  1.0000
  C   C200      1.0  0.10010  0.35463  0.68340  1.0000
  C   C201      1.0  0.10706  0.36983  0.68360  1.0000
  H   H313      1.0  0.08688  0.40113  0.65102  1.0000
  H   H314      1.0  0.07451  0.37449  0.65083  1.0000
  H   H315      1.0  0.10370  0.34172  0.69250  1.0000
  H   H316      1.0  0.11614  0.36856  0.69277  1.0000
  H   H317      1.0  0.13546  0.97805  0.52066  1.0000
  C   C202      1.0  0.02744  0.27042  0.53512  1.0000
  H   H318      1.0  0.12902  0.46504  0.59049  1.0000
  C   C203      1.0  0.02998  0.43075  0.58531  1.0000
  S   S85       1.0  0.07765  0.01061  0.50682  1.0000
  C   C204      1.0  0.21910  0.20965  0.62456  1.0000
  S   S86       1.0  0.06640  0.43739  0.65719  1.0000
  H   H319      1.0  0.12173  0.01484  0.53147  1.0000
  C   C205      1.0  0.98528  0.14101  0.65564  1.0000
  H   H320      1.0  0.10909  0.44839  0.58278  1.0000
  C   C206      1.0  0.98786  0.24221  0.54239  1.0000
  Fe  Fe39      1.0  0.99212  0.41781  0.57471  1.0000
  H   H321      1.0  0.22665  0.19124  0.48052  1.0000
  H   H322      1.0  0.02691  0.30256  0.51151  1.0000
  C   C207      1.0  0.01332  0.30003  0.51982  1.0000
  H   H323      1.0  0.13821  0.33533  0.67220  1.0000
  C   C208      1.0  0.04147  0.35998  0.64828  1.0000
  C   C209      1.0  0.00448  0.23080  0.57299  1.0000
  Fe  Fe40      1.0  0.00126  0.42940  0.53342  1.0000
  C   C210      1.0  0.02285  0.29699  0.54823  1.0000
  S   S87       1.0  0.01430  0.18137  0.64130  1.0000
  Fe  Fe41      1.0  0.23215  0.13757  0.56119  1.0000
  H   H324      1.0  0.21428  0.22034  0.61314  1.0000
  H   H325      1.0  0.02823  0.42789  0.57288  1.0000
  H   H326      1.0  0.14988  0.99455  0.51561  1.0000
  H   H327      1.0  0.03192  0.35034  0.65470  1.0000
  C   C211      1.0  0.99680  0.28473  0.54815  1.0000
  C   C212      1.0  0.16214  0.33336  0.62895  1.0000
  H   H328      1.0  0.01052  0.13412  0.67991  1.0000
  H   H329      1.0  0.00343  0.19227  0.60543  1.0000
  C   C213      1.0  0.10994  0.45773  0.56910  1.0000
  H   H330      1.0  0.01397  0.31043  0.55036  1.0000
  N   N20       1.0  0.21831  0.21756  0.64042  1.0000
  H   H331      1.0  0.14239  0.00141  0.56268  1.0000
  Fe  Fe42      1.0  0.17045  0.10281  0.48855  1.0000
  Fe  Fe43      1.0  0.07496  0.44993  0.62750  1.0000
  C   C214      1.0  0.14505  0.98305  0.52613  1.0000
  H   H332      1.0  0.15941  0.33873  0.61487  1.0000
  Fe  Fe44      1.0  0.09645  0.43242  0.65780  1.0000
  Fe  Fe45      1.0  0.14640  0.07596  0.48985  1.0000
  H   H333      1.0  0.01041  0.18690  0.57429  1.0000
  H   H334      1.0  0.01251  0.16274  0.70021  1.0000
  S   S88       1.0  0.19816  0.10460  0.49259  1.0000
  C   C215      1.0  0.22442  0.20292  0.65543  1.0000
  C   C216      1.0  0.99214  0.03201  0.62172  1.0000
  N   N21       1.0  0.01511  0.28805  0.53783  1.0000
  H   H335      1.0  0.11147  0.00650  0.55470  1.0000
  H   H336      1.0  0.20853  0.16740  0.48449  1.0000
  H   H337      1.0  0.03675  0.29956  0.54092  1.0000
  H   H338      1.0  0.23117  0.23625  0.64685  1.0000
  H   H339      1.0  0.22391  0.20854  0.66760  1.0000
  C   C217      1.0  0.00618  0.23274  0.54079  1.0000
  N   N22       1.0  0.98643  0.18099  0.59455  1.0000
  H   H340      1.0  0.12455  0.97633  0.57116  1.0000
  S   S89       1.0  0.99194  0.10519  0.65199  1.0000
  H   H341      1.0  0.19801  0.23224  0.65921  1.0000
  H   H342      1.0  0.15204  0.00939  0.53908  1.0000
  N   N23       1.0  0.13608  0.98873  0.54373  1.0000
  H   H343      1.0  0.21561  0.19246  0.65989  1.0000
  C   C218      1.0  0.19921  0.22678  0.64682  1.0000
  H   H344      1.0  0.23338  0.20293  0.61913  1.0000
  H   H345      1.0  0.12152  0.45113  0.55942  1.0000
  S   S90       1.0  0.99487  0.36163  0.55200  1.0000
  C   C219      1.0  0.15014  0.33133  0.66132  1.0000
  H   H346      1.0  0.04150  0.27227  0.52764  1.0000
  C   C220      1.0  0.13007  0.33241  0.64122  1.0000
  H   H347      1.0  0.16205  0.33607  0.66310  1.0000
  S   S91       1.0  0.20350  0.13630  0.55909  1.0000
  H   H348      1.0  0.15363  0.31610  0.66387  1.0000
  Fe  Fe46      1.0  0.10116  0.46998  0.63494  1.0000
  H   H349      1.0  0.02227  0.99062  0.57657  1.0000
  S   S92       1.0  0.12551  0.09796  0.47708  1.0000
  N   N24       1.0  0.13621  0.16440  0.58063  1.0000
  C   C221      1.0  0.12550  0.15644  0.59836  1.0000
  C   C222      1.0  0.13379  0.18431  0.57927  1.0000
  C   C223      1.0  0.12959  0.16107  0.56553  1.0000
  H   H350      1.0  0.11064  0.16298  0.59987  1.0000
  H   H351      1.0  0.13034  0.15833  0.61010  1.0000
  H   H352      1.0  0.12641  0.14154  0.59965  1.0000
  H   H353      1.0  0.11904  0.19120  0.58022  1.0000
  H   H354      1.0  0.13844  0.18733  0.59059  1.0000
  H   H355      1.0  0.14162  0.19085  0.56608  1.0000
  H   H356      1.0  0.13732  0.16683  0.55191  1.0000
  H   H357      1.0  0.11474  0.16727  0.56607  1.0000
  H   H358      1.0  0.16146  0.15793  0.59055  1.0000
  H   H359      1.0  0.04265  0.36043  0.61286  1.0000
  H   H360      1.0  0.00711  0.29387  0.51177  1.0000
  C   C224      1.0  0.01386  0.45231  0.48913  1.0000
  H   H361      1.0  0.02213  0.26344  0.52710  1.0000
  H   H362      1.0  0.03680  0.44075  0.62994  1.0000
  H   H363      1.0  0.99689  0.99970  0.64492  1.0000
  H   H364      1.0  0.00640  0.42628  0.49279  1.0000
  N   N25       1.0  0.03373  0.37535  0.63472  1.0000
  C   C225      1.0  0.01642  0.38570  0.64393  1.0000
  C   C226      1.0  0.04707  0.38753  0.62639  1.0000
  C   C227      1.0  0.02988  0.36820  0.62024  1.0000
  C   C228      1.0  0.00933  0.43859  0.48320  1.0000
  H   H365      1.0  0.21915  0.46640  0.53851  1.0000
  H   H366      1.0  0.00992  0.39706  0.63401  1.0000
  H   H367      1.0  0.09691  0.45871  0.56463  1.0000
  H   H368      1.0  0.04229  0.39844  0.61512  1.0000
  H   H369      1.0  0.98914  0.20137  0.56972  1.0000
  H   H370      1.0  0.06071  0.37990  0.62044  1.0000
  C   C229      1.0  0.18465  0.12843  0.53693  1.0000
  Fe  Fe47      1.0  0.06578  0.46488  0.66280  1.0000
  C   C230      1.0  0.99041  0.15784  0.65327  1.0000
  C   C231      1.0  0.15590  0.15577  0.57939  1.0000
  H   H371      1.0  0.22829  0.10250  0.50908  1.0000
  S   S93       1.0  0.09535  0.45924  0.66532  1.0000
  H   H372      1.0  0.17245  0.13573  0.54460  1.0000
  C   C232      1.0  0.20181  0.12620  0.54153  1.0000
  S   S94       1.0  0.99967  0.98186  0.61231  1.0000
  H   H373      1.0  0.10831  0.06017  0.50473  1.0000
  H   H374      1.0  0.99478  0.17827  0.56634  1.0000
  C   C233      1.0  0.99892  0.15984  0.70041  1.0000
  H   H375      1.0  0.12906  0.36401  0.65012  1.0000
  Fe  Fe48      1.0  0.99180  0.39185  0.55084  1.0000
  H   H376      1.0  0.05470  0.35193  0.64195  1.0000
  H   H377      1.0  0.04433  0.36489  0.65953  1.0000
  H   H378      1.0  0.08107  0.04594  0.51018  1.0000
  N   N26       1.0  0.14595  0.33910  0.64288  1.0000
  H   H379      1.0  0.02382  0.37953  0.60990  1.0000
  C   C234      1.0  0.01288  0.12972  0.69416  1.0000
  H   H380      1.0  0.12614  0.33835  0.62769  1.0000
  H   H381      1.0  0.13847  0.36563  0.62621  1.0000
  H   H382      1.0  0.05635  0.43817  0.57313  1.0000
  C   C235      1.0  0.14865  0.99705  0.54939  1.0000
  H   H383      1.0  0.15290  0.36484  0.64171  1.0000
  S   S95       1.0  0.06910  0.44653  0.60134  1.0000
  H   H384      1.0  0.01091  0.22665  0.58476  1.0000
  Fe  Fe49      1.0  0.12927  0.11462  0.49548  1.0000
  C   C236      1.0  0.11002  0.04672  0.50188  1.0000
  H   H385      1.0  0.01394  0.22987  0.52765  1.0000
  H   H386      1.0  0.21746  0.14407  0.49376  1.0000
  H   H387      1.0  0.12137  0.11171  0.53687  1.0000
  C   C237      1.0  0.19901  0.11224  0.51202  1.0000
  C   C238      1.0  0.99784  0.12655  0.64877  1.0000
  C   C239      1.0  0.01652  0.42842  0.60126  1.0000
  H   H388      1.0  0.23449  0.17053  0.51803  1.0000
  C   C240      1.0  0.18324  0.12143  0.52223  1.0000
  C   C241      1.0  0.02627  0.97614  0.58186  1.0000
  H   H389      1.0  0.22180  0.15310  0.52094  1.0000
  H   H390      1.0  0.10929  0.99671  0.53670  1.0000
  C   C242      1.0  0.04593  0.43652  0.58550  1.0000
  H   H391      1.0  0.00846  0.43073  0.62962  1.0000
  H   H392      1.0  0.11780  0.33591  0.65192  1.0000
  C   C243      1.0  0.01894  0.43227  0.61730  1.0000
  C   C244      1.0  0.21609  0.10977  0.51682  1.0000
  H   H393      1.0  0.98731  0.29755  0.55117  1.0000
  C   C245      1.0  0.23055  0.23093  0.63493  1.0000
  H   H394      1.0  0.16185  0.98728  0.55092  1.0000
  H   H395      1.0  0.00384  0.03718  0.62339  1.0000
  H   H396      1.0  0.15820  0.14073  0.58035  1.0000
  H   H397      1.0  0.00963  0.16010  0.60112  1.0000
  H   H398      1.0  0.00618  0.37684  0.65066  1.0000
  C   C246      1.0  0.00811  0.16029  0.64396  1.0000
  C   C247      1.0  0.11890  0.00226  0.54158  1.0000
  C   C248      1.0  0.22146  0.15700  0.48525  1.0000
  H   H399      1.0  0.02887  0.26085  0.54841  1.0000
  H   H400      1.0  0.17001  0.12336  0.51863  1.0000
  H   H401      1.0  0.99017  0.27878  0.54035  1.0000
  H   H402      1.0  0.06962  0.44402  0.48053  1.0000
  H   H403      1.0  0.00436  0.31357  0.52130  1.0000
  S   S96       1.0  0.01377  0.40548  0.55319  1.0000
  H   H404      1.0  0.16595  0.31817  0.63084  1.0000
  S   S97       1.0  0.22695  0.24463  0.68291  1.0000
  C   C249      1.0  0.21746  0.11660  0.53159  1.0000
  H   H405      1.0  0.17437  0.33820  0.62978  1.0000
  H   H406      1.0  0.13309  0.31730  0.64281  1.0000
  H   H407      1.0  0.22248  0.27013  0.64860  1.0000
  H   H408      1.0  0.02421  0.28835  0.56196  1.0000
  H   H409      1.0  0.21044  0.19910  0.62828  1.0000
  H   H410      1.0  0.21239  0.17634  0.51183  1.0000
  C   C250      1.0  0.01781  0.46813  0.47653  1.0000
  C   C251      1.0  0.98866  0.19262  0.60615  1.0000
  Fe  Fe50      1.0  0.10952  0.27703  0.70815  1.0000
  H   H411      1.0  0.01287  0.11480  0.69834  1.0000
  H   H412      1.0  0.99360  0.15256  0.59268  1.0000
  H   H413      1.0  0.99770  0.27507  0.56147  1.0000
  C   C252      1.0  0.22533  0.16588  0.51175  1.0000
  H   H414      1.0  0.22581  0.24281  0.62442  1.0000
  H   H415      1.0  0.98824  0.16809  0.70948  1.0000
  C   C253      1.0  0.99089  0.01188  0.65136  1.0000
  C   C254      1.0  0.06604  0.44093  0.46864  1.0000
  N   N27       1.0  0.99868  0.14013  0.70668  1.0000
  H   H416      1.0  0.07077  0.42600  0.46899  1.0000
  H   H417      1.0  0.99629  0.16494  0.68625  1.0000
  H   H418      1.0  0.05079  0.44376  0.47080  1.0000
  C   C255      1.0  0.13177  0.97257  0.55779  1.0000
  H   H419      1.0  0.05655  0.25810  0.71495  1.0000
  H   H420      1.0  0.99808  0.02024  0.61464  1.0000
  C   C256      1.0  0.98610  0.24018  0.57462  1.0000
  H   H421      1.0  0.98804  0.15660  0.61556  1.0000
  H   H422      1.0  0.10254  0.04352  0.46593  1.0000
  N   N28       1.0  0.23425  0.16294  0.49305  1.0000
  S   S98       1.0  0.03827  0.02494  0.94921  1.0000
  Fe  Fe51      1.0  0.04559  0.01032  0.88725  1.0000
  S   S99       1.0  0.05104  0.02920  0.85985  1.0000
  S   S100      1.0  0.01904  0.01978  0.90572  1.0000
  N   N29       1.0  0.23044  0.01030  0.85514  1.0000
  Fe  Fe52      1.0  0.01614  0.99059  0.91072  1.0000
  Fe  Fe53      1.0  0.21367  0.16563  0.91755  1.0000
  S   S101      1.0  0.19580  0.17727  0.94140  1.0000
  S   S102      1.0  0.21665  0.13751  0.91210  1.0000
  Fe  Fe54      1.0  0.18757  0.20200  0.92033  1.0000
  S   S103      1.0  0.15726  0.21455  0.92456  1.0000
  C   C257      1.0  0.09836  0.25516  0.77201  1.0000
  S   S104      1.0  0.20395  0.18951  0.89644  1.0000
  H   H423      1.0  0.16836  0.16308  0.88627  1.0000
  C   C258      1.0  0.09758  0.03364  0.93671  1.0000
  C   C259      1.0  0.18645  0.13139  0.93926  1.0000
  S   S105      1.0  0.16130  0.01263  0.95757  1.0000
  C   C260      1.0  0.05011  0.41029  0.96148  1.0000
  S   S106      1.0  0.12141  0.03340  0.93034  1.0000
  H   H424      1.0  0.10647  0.99801  0.91749  1.0000
  H   H425      1.0  0.17901  0.23343  0.96438  1.0000
  H   H426      1.0  0.13829  0.97641  0.94960  1.0000
  H   H427      1.0  0.04166  0.43040  0.93860  1.0000
  H   H428      1.0  0.01484  0.30758  0.87654  1.0000
  C   C261      1.0  0.00960  0.46923  0.76380  1.0000
  Fe  Fe55      1.0  0.02983  0.39888  0.93180  1.0000
  S   S107      1.0  0.00793  0.42231  0.92234  1.0000
  H   H429      1.0  0.09294  0.98047  0.92491  1.0000
  Fe  Fe56      1.0  0.03532  0.38177  0.89880  1.0000
  S   S108      1.0  0.01406  0.40359  0.88624  1.0000
  S   S109      1.0  0.05472  0.36058  0.88384  1.0000
  Fe  Fe57      1.0  0.02614  0.42326  0.89440  1.0000
  S   S110      1.0  0.03450  0.44846  0.87521  1.0000
  Fe  Fe58      1.0  0.99734  0.40087  0.91493  1.0000
  S   S111      1.0  0.04891  0.40173  0.90452  1.0000
  S   S112      1.0  0.01760  0.37725  0.92687  1.0000
  Fe  Fe59      1.0  0.05164  0.23021  0.86224  1.0000
  S   S113      1.0  0.07545  0.23330  0.83862  1.0000
  S   S114      1.0  0.03460  0.20834  0.86948  1.0000
  Fe  Fe60      1.0  0.05417  0.26374  0.87516  1.0000
  S   S115      1.0  0.07810  0.26963  0.85249  1.0000
  S   S116      1.0  0.04021  0.28048  0.89703  1.0000
  Fe  Fe61      1.0  0.06269  0.26318  0.83445  1.0000
  S   S117      1.0  0.05951  0.28230  0.80746  1.0000
  Fe  Fe62      1.0  0.08899  0.23939  0.85863  1.0000
  S   S118      1.0  0.11968  0.22894  0.85628  1.0000
  S   S119      1.0  0.03774  0.25975  0.85663  1.0000
  S   S120      1.0  0.06624  0.23375  0.88277  1.0000
  H   H430      1.0  0.09811  0.37277  0.93143  1.0000
  S   S121      1.0  0.01008  0.12462  0.81696  1.0000
  S   S122      1.0  0.99214  0.10202  0.86686  1.0000
  H   H431      1.0  0.01770  0.01996  0.85996  1.0000
  H   H432      1.0  0.05387  0.44584  0.75860  1.0000
  H   H433      1.0  0.01594  0.13667  0.72601  1.0000
  Fe  Fe63      1.0  0.00125  0.15489  0.81542  1.0000
  S   S123      1.0  0.02342  0.17168  0.80899  1.0000
  C   C262      1.0  0.10109  0.98793  0.92952  1.0000
  H   H434      1.0  0.10504  0.36120  0.90232  1.0000
  Fe  Fe64      1.0  0.15774  0.06403  0.95557  1.0000
  H   H435      1.0  0.99534  0.32214  0.91189  1.0000
  H   H436      1.0  0.09473  0.04049  0.90856  1.0000
  H   H437      1.0  0.12790  0.16423  0.93576  1.0000
  C   C263      1.0  0.08788  0.03686  0.92267  1.0000
  C   C264      1.0  0.07376  0.27608  0.78736  1.0000
  C   C265      1.0  0.08404  0.36997  0.93396  1.0000
  C   C266      1.0  0.08593  0.25921  0.78792  1.0000
  H   H438      1.0  0.09139  0.99588  0.93947  1.0000
  H   H439      1.0  0.08596  0.24941  0.80065  1.0000
  C   C267      1.0  0.03084  0.19966  0.85190  1.0000
  C   C268      1.0  0.04287  0.20046  0.83488  1.0000
  C   C269      1.0  0.04021  0.19220  0.82165  1.0000
  C   C270      1.0  0.02535  0.18336  0.82523  1.0000
  C   C271      1.0  0.01296  0.18316  0.84201  1.0000
  C   C272      1.0  0.01588  0.19099  0.85540  1.0000
  H   H440      1.0  0.05447  0.20706  0.83208  1.0000
  H   H441      1.0  0.04983  0.19246  0.80869  1.0000
  H   H442      1.0  0.00123  0.17681  0.84478  1.0000
  H   H443      1.0  0.00646  0.19044  0.86850  1.0000
  C   C273      1.0  0.05014  0.33854  0.88771  1.0000
  C   C274      1.0  0.03854  0.33147  0.90366  1.0000
  C   C275      1.0  0.03603  0.31341  0.90667  1.0000
  C   C276      1.0  0.04465  0.30258  0.89353  1.0000
  C   C277      1.0  0.05601  0.30981  0.87752  1.0000
  C   C278      1.0  0.05894  0.32763  0.87474  1.0000
  H   H444      1.0  0.03177  0.33976  0.91379  1.0000
  H   H445      1.0  0.02736  0.30782  0.91918  1.0000
  H   H446      1.0  0.06253  0.30172  0.86722  1.0000
  H   H447      1.0  0.06791  0.33306  0.86238  1.0000
  S   S124      1.0  0.21008  0.01692  0.92847  1.0000
  H   H448      1.0  0.04425  0.25699  0.75575  1.0000
  Fe  Fe65      1.0  0.98871  0.12744  0.80061  1.0000
  N   N30       1.0  0.11609  0.97514  0.93774  1.0000
  H   H449      1.0  0.09092  0.33413  0.94894  1.0000
  H   H450      1.0  0.19545  0.21289  0.96122  1.0000
  H   H451      1.0  0.99950  0.44492  0.86968  1.0000
  S   S125      1.0  0.98943  0.98254  0.91205  1.0000
  H   H452      1.0  0.21010  0.99895  0.84916  1.0000
  H   H453      1.0  0.14842  0.13957  0.89750  1.0000
  H   H454      1.0  0.07871  0.36726  0.94903  1.0000
  C   C279      1.0  0.05356  0.24509  0.72420  1.0000
  H   H455      1.0  0.00313  0.11901  0.73027  1.0000
  C   C280      1.0  0.07353  0.28856  0.77065  1.0000
  H   H456      1.0  0.18126  0.00188  0.92276  1.0000
  H   H457      1.0  0.16565  0.18018  0.89938  1.0000
  S   S126      1.0  0.99567  0.11072  0.77871  1.0000
  C   C281      1.0  0.17259  0.10478  0.94508  1.0000
  Fe  Fe66      1.0  0.18206  0.02989  0.94265  1.0000
  C   C282      1.0  0.18644  0.09779  0.93148  1.0000
  H   H458      1.0  0.11024  0.33971  0.93134  1.0000
  H   H459      1.0  0.18266  0.97576  0.90876  1.0000
  S   S127      1.0  0.04168  0.39269  0.95735  1.0000
  Fe  Fe67      1.0  0.14042  0.03653  0.94711  1.0000
  H   H460      1.0  0.15599  0.13371  0.91877  1.0000
  C   C283      1.0  0.14687  0.21976  0.90534  1.0000
  C   C284      1.0  0.12766  0.22497  0.90754  1.0000
  C   C285      1.0  0.11909  0.22822  0.89253  1.0000
  C   C286      1.0  0.12974  0.22615  0.87527  1.0000
  C   C287      1.0  0.14894  0.22118  0.87305  1.0000
  C   C288      1.0  0.15747  0.21816  0.88798  1.0000
  H   H461      1.0  0.11934  0.22636  0.92091  1.0000
  H   H462      1.0  0.10427  0.23211  0.89436  1.0000
  H   H463      1.0  0.15726  0.21968  0.85971  1.0000
  H   H464      1.0  0.17227  0.21463  0.88598  1.0000
  C   C289      1.0  0.20014  0.10776  0.92161  1.0000
  C   C290      1.0  0.04032  0.45241  0.75474  1.0000
  C   C291      1.0  0.01000  0.08298  0.86391  1.0000
  C   C292      1.0  0.01632  0.07746  0.84705  1.0000
  C   C293      1.0  0.02977  0.06143  0.84550  1.0000
  C   C294      1.0  0.03684  0.05089  0.86082  1.0000
  C   C295      1.0  0.03125  0.05703  0.87733  1.0000
  C   C296      1.0  0.01773  0.07289  0.87893  1.0000
  H   H465      1.0  0.01041  0.08516  0.83537  1.0000
  H   H466      1.0  0.03419  0.05685  0.83263  1.0000
  H   H467      1.0  0.03721  0.04942  0.88899  1.0000
  H   H468      1.0  0.01307  0.07721  0.89194  1.0000
  C   C297      1.0  0.06058  0.02969  0.94471  1.0000
  C   C298      1.0  0.06944  0.03515  0.92666  1.0000
  S   S128      1.0  0.02912  0.98320  0.93515  1.0000
  H   H469      1.0  0.06211  0.03794  0.91564  1.0000
  C   C299      1.0  0.22765  0.98711  0.91325  1.0000
  C   C300      1.0  0.98982  0.03870  0.84362  1.0000
  H   H470      1.0  0.04835  0.46858  0.77812  1.0000
  H   H471      1.0  0.06283  0.21116  0.74345  1.0000
  H   H472      1.0  0.23341  0.98772  0.84227  1.0000
  H   H473      1.0  0.17541  0.15686  0.90789  1.0000
  C   C301      1.0  0.14555  0.14312  0.91121  1.0000
  H   H474      1.0  0.16210  0.12686  0.95966  1.0000
  H   H475      1.0  0.06408  0.30163  0.77016  1.0000
  C   C302      1.0  0.99642  0.46207  0.84333  1.0000
  C   C303      1.0  0.06489  0.35148  0.92955  1.0000
  H   H476      1.0  0.00207  0.32532  0.86198  1.0000
  H   H477      1.0  0.09240  0.23254  0.74185  1.0000
  S   S129      1.0  0.16166  0.05295  0.93029  1.0000
  Fe  Fe68      1.0  0.03595  0.01105  0.92752  1.0000
  C   C304      1.0  0.98657  0.97310  0.89447  1.0000
  Fe  Fe69      1.0  0.05540  0.97568  0.91556  1.0000
  H   H478      1.0  0.00077  0.29863  0.90975  1.0000
  H   H479      1.0  0.05577  0.36361  0.92309  1.0000
  H   H480      1.0  0.04288  0.46296  0.74202  1.0000
  H   H481      1.0  0.23258  0.25263  0.95796  1.0000
  C   C305      1.0  0.03149  0.46806  0.84099  1.0000
  C   C306      1.0  0.09845  0.26782  0.75542  1.0000
  H   H482      1.0  0.13409  0.97338  0.91164  1.0000
  C   C307      1.0  0.09581  0.33786  0.93386  1.0000
  C   C308      1.0  0.19442  0.99353  0.91819  1.0000
  C   C309      1.0  0.00590  0.45356  0.85763  1.0000
  H   H483      1.0  0.10796  0.24219  0.77255  1.0000
  H   H484      1.0  0.14200  0.18122  0.92759  1.0000
  H   H485      1.0  0.18636  0.14422  0.94245  1.0000
  H   H486      1.0  0.20336  0.02512  0.86475  1.0000
  H   H487      1.0  0.99068  0.28959  0.88594  1.0000
  H   H488      1.0  0.01428  0.45208  0.79767  1.0000
  H   H489      1.0  0.05891  0.34886  0.94448  1.0000
  C   C310      1.0  0.23281  0.02334  0.83744  1.0000
  S   S130      1.0  0.11487  0.26257  0.73613  1.0000
  H   H490      1.0  0.18639  0.08487  0.92835  1.0000
  C   C311      1.0  0.07001  0.02709  0.95894  1.0000
  C   C312      1.0  0.02331  0.45684  0.85661  1.0000
  C   C313      1.0  0.21064  0.99780  0.91963  1.0000
  H   H491      1.0  0.06663  0.25020  0.76138  1.0000
  H   H492      1.0  0.99169  0.14094  0.73540  1.0000
  H   H493      1.0  0.13243  0.18911  0.89787  1.0000
  H   H494      1.0  0.06296  0.26709  0.74120  1.0000
  H   H495      1.0  0.01844  0.43542  0.78373  1.0000
  H   H496      1.0  0.06423  0.33977  0.92387  1.0000
  H   H497      1.0  0.23286  0.98674  0.95413  1.0000
  H   H498      1.0  0.22436  0.22687  0.94979  1.0000
  C   C314      1.0  0.14178  0.16667  0.92823  1.0000
  H   H499      1.0  0.19913  0.99030  0.96051  1.0000
  H   H500      1.0  0.99069  0.08895  0.75584  1.0000
  C   C315      1.0  0.05924  0.25409  0.74981  1.0000
  H   H501      1.0  0.99845  0.04674  0.87228  1.0000
  C   C316      1.0  0.20008  0.12466  0.92539  1.0000
  C   C317      1.0  0.08581  0.28442  0.75464  1.0000
  H   H502      1.0  0.06721  0.21779  0.76249  1.0000
  C   C318      1.0  0.00521  0.01384  0.86396  1.0000
  N   N31       1.0  0.14611  0.16248  0.90974  1.0000
  H   H503      1.0  0.09020  0.34788  0.89911  1.0000
  H   H504      1.0  0.13351  0.99486  0.93085  1.0000
  Fe  Fe70      1.0  0.21942  0.19003  0.94055  1.0000
  H   H505      1.0  0.11832  0.99435  0.95270  1.0000
  H   H506      1.0  0.00479  0.00585  0.87818  1.0000
  C   C319      1.0  0.00419  0.32039  0.87630  1.0000
  H   H507      1.0  0.06483  0.97622  0.95303  1.0000
  H   H508      1.0  0.04453  0.22417  0.75752  1.0000
  C   C320      1.0  0.13243  0.17442  0.89912  1.0000
  H   H509      1.0  0.22166  0.03090  0.87163  1.0000
  C   C321      1.0  0.17273  0.12151  0.94904  1.0000
  H   H510      1.0  0.00334  0.45910  0.76066  1.0000
  H   H511      1.0  0.07509  0.38281  0.92824  1.0000
  H   H512      1.0  0.17312  0.21626  0.95606  1.0000
  N   N32       1.0  0.04141  0.12841  0.85605  1.0000
  C   C322      1.0  0.04621  0.11603  0.84296  1.0000
  C   C323      1.0  0.05311  0.14231  0.84963  1.0000
  C   C324      1.0  0.04422  0.11770  0.87429  1.0000
  C   C325      1.0  0.02193  0.13766  0.85730  1.0000
  H   H513      1.0  0.03711  0.10583  0.84704  1.0000
  H   H514      1.0  0.06065  0.10835  0.84205  1.0000
  H   H515      1.0  0.04466  0.12377  0.82894  1.0000
  H   H516      1.0  0.06793  0.13593  0.84874  1.0000
  H   H517      1.0  0.05134  0.15042  0.83578  1.0000
  H   H518      1.0  0.04948  0.15225  0.85890  1.0000
  H   H519      1.0  0.04054  0.12663  0.88453  1.0000
  H   H520      1.0  0.05878  0.11050  0.87393  1.0000
  H   H521      1.0  0.03550  0.10712  0.87938  1.0000
  H   H522      1.0  0.01795  0.14772  0.86643  1.0000
  H   H523      1.0  0.01260  0.12777  0.86280  1.0000
  H   H524      1.0  0.01917  0.14507  0.84361  1.0000
  H   H525      1.0  0.03719  0.43960  0.79122  1.0000
  H   H526      1.0  0.11824  0.17229  0.90573  1.0000
  C   C326      1.0  0.08853  0.02909  0.95495  1.0000
  C   C327      1.0  0.02419  0.44626  0.78625  1.0000
  H   H527      1.0  0.08201  0.37162  0.89927  1.0000
  S   S131      1.0  0.15413  0.09380  0.95640  1.0000
  C   C328      1.0  0.19523  0.97881  0.91014  1.0000
  H   H528      1.0  0.08582  0.29424  0.74185  1.0000
  N   N33       1.0  0.08387  0.35458  0.92579  1.0000
  H   H529      1.0  0.01004  0.33071  0.87970  1.0000
  H   H530      1.0  0.08811  0.22576  0.72275  1.0000
  H   H531      1.0  0.13535  0.17188  0.88497  1.0000
  H   H532      1.0  0.05314  0.45499  0.94517  1.0000
  S   S132      1.0  0.04189  0.98134  0.89136  1.0000
  H   H533      1.0  0.21069  0.10241  0.91094  1.0000
  Fe  Fe71      1.0  0.22688  0.20110  0.89952  1.0000
  C   C329      1.0  0.04822  0.42764  0.95018  1.0000
  N   N34       1.0  0.12722  0.26825  0.80841  1.0000
  C   C330      1.0  0.14422  0.27044  0.79459  1.0000
  C   C331      1.0  0.12346  0.24993  0.81015  1.0000
  C   C332      1.0  0.11166  0.28241  0.80262  1.0000
  C   C333      1.0  0.12956  0.27016  0.82628  1.0000
  H   H534      1.0  0.14750  0.28411  0.79291  1.0000
  H   H535      1.0  0.14287  0.26906  0.78094  1.0000
  H   H536      1.0  0.15622  0.25990  0.79850  1.0000
  H   H537      1.0  0.11034  0.24808  0.81995  1.0000
  H   H538      1.0  0.12240  0.24766  0.79680  1.0000
  H   H539      1.0  0.13448  0.23889  0.81536  1.0000
  H   H540      1.0  0.11366  0.29642  0.80179  1.0000
  H   H541      1.0  0.09841  0.28075  0.81233  1.0000
  H   H542      1.0  0.10989  0.28175  0.78890  1.0000
  H   H543      1.0  0.11699  0.26849  0.83701  1.0000
  H   H544      1.0  0.13246  0.28378  0.82558  1.0000
  H   H545      1.0  0.14101  0.25949  0.83121  1.0000
  H   H546      1.0  0.09597  0.32603  0.92793  1.0000
  C   C334      1.0  0.05946  0.22241  0.75116  1.0000
  S   S133      1.0  0.20966  0.21591  0.92160  1.0000
  C   C335      1.0  0.16469  0.16579  0.90039  1.0000
  H   H547      1.0  0.03498  0.44182  0.75124  1.0000
  H   H548      1.0  0.15190  0.15803  0.93658  1.0000
  H   H549      1.0  0.13190  0.13995  0.91867  1.0000
  N   N35       1.0  0.02728  0.46058  0.76963  1.0000
  Fe  Fe72      1.0  0.98692  0.12230  0.84112  1.0000
  H   H550      1.0  0.00707  0.00399  0.85495  1.0000
  C   C336      1.0  0.09066  0.35898  0.90578  1.0000
  S   S134      1.0  0.06263  0.00327  0.90870  1.0000
  H   H551      1.0  0.03847  0.24719  0.72964  1.0000
  H   H552      1.0  0.00191  0.04547  0.83951  1.0000
  N   N36       1.0  0.06405  0.23953  0.73907  1.0000
  C   C337      1.0  0.12704  0.98558  0.94300  1.0000
  C   C338      1.0  0.00254  0.13396  0.72537  1.0000
  C   C339      1.0  0.23086  0.22437  0.96135  1.0000
  N   N37       1.0  0.98836  0.02804  0.86258  1.0000
  H   H553      1.0  0.21970  0.02838  0.83238  1.0000
  C   C340      1.0  0.99025  0.31153  0.90814  1.0000
  C   C341      1.0  0.05475  0.44156  0.95392  1.0000
  C   C342      1.0  0.22381  0.99464  0.85303  1.0000
  H   H554      1.0  0.21424  0.00980  0.88227  1.0000
  H   H555      1.0  0.22255  0.98416  0.86591  1.0000
  H   H556      1.0  0.99145  0.02983  0.83370  1.0000
  H   H557      1.0  0.08791  0.24918  0.72187  1.0000
  C   C343      1.0  0.98622  0.04037  0.87522  1.0000
  C   C344      1.0  0.08397  0.23655  0.73109  1.0000
  N   N38       1.0  0.98690  0.31724  0.88926  1.0000
  H   H558      1.0  0.04511  0.47032  0.84006  1.0000
  C   C345      1.0  0.21684  0.01949  0.86901  1.0000
  C   C346      1.0  0.22845  0.97243  0.90513  1.0000
  H   H559      1.0  0.98455  0.03289  0.88972  1.0000
  H   H560      1.0  0.05719  0.23465  0.71548  1.0000
  Fe  Fe73      1.0  0.05696  0.93362  0.13508  1.0000
  S   S135      1.0  0.07992  0.91000  0.14105  1.0000
  S   S136      1.0  0.04850  0.94305  0.10778  1.0000
  Fe  Fe74      1.0  0.04869  0.94211  0.17297  1.0000
  S   S137      1.0  0.07089  0.91915  0.18231  1.0000
  H   H561      1.0  0.01839  0.66521  0.04872  1.0000
  Fe  Fe75      1.0  0.08805  0.92842  0.15483  1.0000
  S   S138      1.0  0.11838  0.92725  0.15202  1.0000
  Fe  Fe76      1.0  0.06093  0.90272  0.16790  1.0000
  S   S139      1.0  0.05620  0.87459  0.18282  1.0000
  S   S140      1.0  0.06663  0.95287  0.14655  1.0000
  S   S141      1.0  0.03714  0.92494  0.16080  1.0000
  Fe  Fe77      1.0  0.01720  0.89728  0.05180  1.0000
  S   S142      1.0  0.02437  0.90206  0.02117  1.0000
  S   S143      1.0  0.03649  0.88340  0.07125  1.0000
  C   C347      1.0  0.01719  0.63024  0.06660  1.0000
  C   C348      1.0  0.13097  0.64066  0.04013  1.0000
  C   C349      1.0  0.09775  0.57734  0.96813  1.0000
  Fe  Fe78      1.0  0.07965  0.47955  0.02482  1.0000
  C   C350      1.0  0.15141  0.66025  0.03942  1.0000
  Fe  Fe79      1.0  0.00783  0.93021  0.02223  1.0000
  C   C351      1.0  0.13654  0.47858  0.03490  1.0000
  C   C352      1.0  0.04065  0.96679  0.20537  1.0000
  H   H562      1.0  0.03115  0.62340  0.06031  1.0000
  S   S144      1.0  0.22829  0.95332  0.10289  1.0000
  S   S145      1.0  0.07198  0.50839  0.02968  1.0000
  S   S146      1.0  0.10711  0.73628  0.14797  1.0000
  H   H563      1.0  0.99053  0.65967  0.07208  1.0000
  H   H564      1.0  0.05310  0.90348  0.11948  1.0000
  S   S147      1.0  0.13595  0.75767  0.16650  1.0000
  S   S148      1.0  0.11895  0.80776  0.16354  1.0000
  Fe  Fe80      1.0  0.10252  0.61687  0.02244  1.0000
  S   S149      1.0  0.08507  0.62141  0.04988  1.0000
  S   S150      1.0  0.13083  0.59930  0.02144  1.0000
  Fe  Fe81      1.0  0.02382  0.71449  0.12563  1.0000
  S   S151      1.0  0.03806  0.68849  0.11572  1.0000
  S   S152      1.0  0.02849  0.72234  0.15026  1.0000
  Fe  Fe82      1.0  0.99747  0.72534  0.09916  1.0000
  S   S153      1.0  0.00924  0.70025  0.08717  1.0000
  H   H565      1.0  0.13838  0.49126  0.02452  1.0000
  Fe  Fe83      1.0  0.00969  0.68519  0.11606  1.0000
  S   S154      1.0  0.00351  0.65680  0.12570  1.0000
  Fe  Fe84      1.0  0.03659  0.70549  0.08767  1.0000
  S   S155      1.0  0.05867  0.70262  0.06241  1.0000
  H   H566      1.0  0.12112  0.88898  0.20562  1.0000
  S   S156      1.0  0.02484  0.73202  0.09741  1.0000
  H   H567      1.0  0.20324  0.70483  0.12890  1.0000
  C   C353      1.0  0.19182  0.63764  0.00666  1.0000
  H   H568      1.0  0.99328  0.63009  0.21461  1.0000
  Fe  Fe85      1.0  0.12354  0.58725  0.00115  1.0000
  H   H569      1.0  0.10844  0.90268  0.18856  1.0000
  N   N39       1.0  0.12070  0.87534  0.18455  1.0000
  S   S157      1.0  0.02936  0.95987  0.19181  1.0000
  H   H570      1.0  0.12581  0.47307  0.03175  1.0000
  S   S158      1.0  0.99471  0.87953  0.00288  1.0000
  Fe  Fe86      1.0  0.13942  0.62078  0.99726  1.0000
  S   S159      1.0  0.11664  0.72826  0.19916  1.0000
  C   C354      1.0  0.07836  0.64408  0.05309  1.0000
  C   C355      1.0  0.07291  0.64740  0.07091  1.0000
  C   C356      1.0  0.06657  0.66534  0.07387  1.0000
  C   C357      1.0  0.06618  0.68008  0.05899  1.0000
  C   C358      1.0  0.07204  0.67679  0.04116  1.0000
  C   C359      1.0  0.07791  0.65881  0.03821  1.0000
  H   H571      1.0  0.07355  0.63607  0.08249  1.0000
  H   H572      1.0  0.06234  0.66779  0.08767  1.0000
  H   H573      1.0  0.07166  0.68817  0.02961  1.0000
  H   H574      1.0  0.08168  0.65639  0.02442  1.0000
  C   C360      1.0  0.08533  0.73204  0.14896  1.0000
  C   C361      1.0  0.08197  0.72720  0.13390  1.0000
  C   C362      1.0  0.06455  0.72420  0.13414  1.0000
  C   C363      1.0  0.05043  0.72606  0.14947  1.0000
  C   C364      1.0  0.05377  0.73100  0.16451  1.0000
  C   C365      1.0  0.07120  0.73399  0.16427  1.0000
  H   H575      1.0  0.06204  0.72040  0.12251  1.0000
  H   H576      1.0  0.04283  0.73249  0.17634  1.0000
  H   H577      1.0  0.07370  0.73774  0.17591  1.0000
  H   H578      1.0  0.19482  0.64765  0.99426  1.0000
  C   C366      1.0  0.05985  0.96363  0.20205  1.0000
  C   C367      1.0  0.21581  0.70809  0.11885  1.0000
  H   H579      1.0  0.15694  0.65033  0.05096  1.0000
  C   C368      1.0  0.02680  0.65920  0.05942  1.0000
  C   C369      1.0  0.08890  0.52179  0.02137  1.0000
  C   C370      1.0  0.08518  0.53932  0.02523  1.0000
  C   C371      1.0  0.09854  0.55026  0.01889  1.0000
  C   C372      1.0  0.11569  0.54367  0.00868  1.0000
  C   C373      1.0  0.11948  0.52607  0.00497  1.0000
  C   C374      1.0  0.10607  0.51518  0.01121  1.0000
  H   H580      1.0  0.09561  0.56372  0.02203  1.0000
  H   H581      1.0  0.10903  0.50170  0.00814  1.0000
  C   C375      1.0  0.19735  0.62223  0.03695  1.0000
  C   C376      1.0  0.17405  0.61508  0.02490  1.0000
  C   C377      1.0  0.18369  0.61230  0.03896  1.0000
  H   H582      1.0  0.16355  0.60737  0.02662  1.0000
  H   H583      1.0  0.18044  0.60252  0.05148  1.0000
  N   N40       1.0  0.01824  0.64567  0.07420  1.0000
  S   S160      1.0  0.09139  0.76797  0.18403  1.0000
  H   H584      1.0  0.10567  0.66478  0.05768  1.0000
  H   H585      1.0  0.03470  0.92407  0.98611  1.0000
  H   H586      1.0  0.12065  0.67946  0.05715  1.0000
  H   H587      1.0  0.12665  0.68631  0.02317  1.0000
  H   H588      1.0  0.09286  0.72572  0.12201  1.0000
  H   H589      1.0  0.13295  0.89809  0.18306  1.0000
  C   C378      1.0  0.04164  0.93522  0.97921  1.0000
  H   H590      1.0  0.15433  0.93594  0.14074  1.0000
  S   S161      1.0  0.99161  0.88720  0.05360  1.0000
  Fe  Fe87      1.0  0.99703  0.89525  0.02297  1.0000
  C   C379      1.0  0.13734  0.86141  0.18774  1.0000
  H   H591      1.0  0.99018  0.50937  0.12599  1.0000
  H   H592      1.0  0.04637  0.71796  0.21485  1.0000
  H   H593      1.0  0.00335  0.93562  0.08929  1.0000
  H   H594      1.0  0.14736  0.50307  0.04716  1.0000
  H   H595      1.0  0.99986  0.66618  0.08806  1.0000
  H   H596      1.0  0.23314  0.55964  0.04789  1.0000
  H   H597      1.0  0.07126  0.56237  0.99265  1.0000
  H   H598      1.0  0.04250  0.94483  0.07225  1.0000
  C   C380      1.0  0.12046  0.88004  0.16479  1.0000
  C   C381      1.0  0.17783  0.62801  0.00885  1.0000
  S   S162      1.0  0.99543  0.70977  0.12822  1.0000
  H   H599      1.0  0.09762  0.54132  0.97854  1.0000
  C   C382      1.0  0.21961  0.73062  0.18213  1.0000
  C   C383      1.0  0.06820  0.56859  0.97876  1.0000
  H   H600      1.0  0.09136  0.59201  0.96801  1.0000
  H   H601      1.0  0.21805  0.57828  0.05744  1.0000
  C   C384      1.0  0.06869  0.96951  0.21278  1.0000
  H   H602      1.0  0.11656  0.63944  0.04131  1.0000
  C   C385      1.0  0.07273  0.85573  0.17654  1.0000
  C   C386      1.0  0.07275  0.83843  0.18800  1.0000
  C   C387      1.0  0.08674  0.82346  0.18401  1.0000
  C   C388      1.0  0.10073  0.82582  0.16853  1.0000
  C   C389      1.0  0.10041  0.84296  0.15680  1.0000
  C   C390      1.0  0.08641  0.85788  0.16077  1.0000
  H   H603      1.0  0.06213  0.83671  0.20020  1.0000
  H   H604      1.0  0.08688  0.81022  0.19307  1.0000
  H   H605      1.0  0.11108  0.84473  0.14466  1.0000
  H   H606      1.0  0.08630  0.87105  0.15169  1.0000
  C   C391      1.0  0.04785  0.92577  0.09693  1.0000
  C   C392      1.0  0.04390  0.93070  0.07936  1.0000
  C   C393      1.0  0.04153  0.91749  0.07100  1.0000
  C   C394      1.0  0.04277  0.89930  0.08027  1.0000
  C   C395      1.0  0.04743  0.89418  0.09759  1.0000
  C   C396      1.0  0.05003  0.90739  0.10591  1.0000
  H   H607      1.0  0.16519  0.96503  0.13494  1.0000
  H   H608      1.0  0.03877  0.92141  0.05733  1.0000
  H   H609      1.0  0.04846  0.88010  0.10481  1.0000
  H   H610      1.0  0.98660  0.63927  0.17593  1.0000
  H   H611      1.0  0.20640  0.74450  0.11399  1.0000
  C   C397      1.0  0.20353  0.72471  0.19264  1.0000
  C   C398      1.0  0.12027  0.66522  0.05679  1.0000
  H   H612      1.0  0.13270  0.52098  0.99696  1.0000
  H   H613      1.0  0.01444  0.90918  0.97621  1.0000
  H   H614      1.0  0.13796  0.85749  0.20252  1.0000
  C   C399      1.0  0.20096  0.75726  0.16660  1.0000
  S   S163      1.0  0.09438  0.60285  0.00428  1.0000
  C   C400      1.0  0.14446  0.94847  0.14237  1.0000
  S   S164      1.0  0.99297  0.47421  0.11443  1.0000
  H   H615      1.0  0.23039  0.56804  0.09409  1.0000
  H   H616      1.0  0.21213  0.64246  0.01904  1.0000
  N   N41       1.0  0.13143  0.48209  0.05370  1.0000
  C   C401      1.0  0.18491  0.75131  0.17704  1.0000
  C   C402      1.0  0.99250  0.90384  0.10438  1.0000
  C   C403      1.0  0.12562  0.94817  0.14770  1.0000
  Fe  Fe88      1.0  0.10577  0.62396  0.98129  1.0000
  H   H617      1.0  0.10344  0.86492  0.20982  1.0000
  C   C404      1.0  0.21114  0.73747  0.12696  1.0000
  H   H618      1.0  0.10141  0.57143  0.98175  1.0000
  C   C405      1.0  0.99952  0.65443  0.08233  1.0000
  H   H619      1.0  0.02854  0.67069  0.06478  1.0000
  H   H620      1.0  0.13631  0.63068  0.05171  1.0000
  H   H621      1.0  0.01320  0.91859  0.11806  1.0000
  H   H622      1.0  0.10782  0.89011  0.16198  1.0000
  N   N42       1.0  0.08755  0.79423  0.12931  1.0000
  C   C406      1.0  0.07581  0.78037  0.13542  1.0000
  C   C407      1.0  0.08094  0.80801  0.14105  1.0000
  C   C408      1.0  0.08678  0.80331  0.11012  1.0000
  C   C409      1.0  0.10674  0.78522  0.13061  1.0000
  H   H623      1.0  0.08055  0.76966  0.12695  1.0000
  H   H624      1.0  0.06121  0.78657  0.13463  1.0000
  H   H625      1.0  0.07616  0.77316  0.14982  1.0000
  H   H626      1.0  0.08149  0.80168  0.15561  1.0000
  H   H627      1.0  0.08957  0.81863  0.13683  1.0000
  H   H628      1.0  0.06648  0.81511  0.14049  1.0000
  H   H629      1.0  0.09554  0.81382  0.10506  1.0000
  H   H630      1.0  0.07248  0.81029  0.10863  1.0000
  H   H631      1.0  0.09166  0.79327  0.10090  1.0000
  H   H632      1.0  0.11603  0.79524  0.12635  1.0000
  H   H633      1.0  0.11220  0.77460  0.12207  1.0000
  H   H634      1.0  0.10776  0.77820  0.14488  1.0000
  H   H635      1.0  0.12455  0.65610  0.06934  1.0000
  Fe  Fe89      1.0  0.13964  0.74311  0.19468  1.0000
  H   H636      1.0  0.23297  0.72259  0.18412  1.0000
  H   H637      1.0  0.13897  0.63633  0.02724  1.0000
  H   H638      1.0  0.98616  0.62623  0.14299  1.0000
  S   S165      1.0  0.16620  0.72730  0.20325  1.0000
  H   H639      1.0  0.19990  0.76990  0.15654  1.0000
  H   H640      1.0  0.09128  0.87783  0.19209  1.0000
  H   H641      1.0  0.99017  0.73014  0.05992  1.0000
  H   H642      1.0  0.04069  0.65287  0.05259  1.0000
  C   C410      1.0  0.02950  0.63877  0.08844  1.0000
  H   H643      1.0  0.23391  0.89969  0.13569  1.0000
  H   H644      1.0  0.06106  0.58304  0.97887  1.0000
  Fe  Fe90      1.0  0.23195  0.63343  0.05074  1.0000
  H   H645      1.0  0.00043  0.94077  0.98082  1.0000
  H   H646      1.0  0.05842  0.56118  0.97659  1.0000
  H   H647      1.0  0.00880  0.63493  0.05580  1.0000
  S   S166      1.0  0.12242  0.76622  0.20797  1.0000
  H   H648      1.0  0.00703  0.90217  0.09693  1.0000
  H   H649      1.0  0.06790  0.95675  0.19114  1.0000
  H   H650      1.0  0.01092  0.61974  0.07746  1.0000
  H   H651      1.0  0.22145  0.55575  0.07146  1.0000
  N   N43       1.0  0.13216  0.65952  0.04004  1.0000
  H   H652      1.0  0.16054  0.65687  0.02653  1.0000
  H   H653      1.0  0.11155  0.67164  0.02370  1.0000
  C   C411      1.0  0.18616  0.73501  0.19005  1.0000
  C   C412      1.0  0.12599  0.67192  0.02373  1.0000
  S   S167      1.0  0.20847  0.61895  0.05523  1.0000
  H   H654      1.0  0.04319  0.63076  0.08317  1.0000
  H   H655      1.0  0.15941  0.48045  0.05535  1.0000
  C   C413      1.0  0.98886  0.93670  0.09704  1.0000
  H   H656      1.0  0.10897  0.49762  0.07012  1.0000
  H   H657      1.0  0.21180  0.71452  0.10542  1.0000
  H   H658      1.0  0.15007  0.86653  0.18012  1.0000
  C   C414      1.0  0.20158  0.63476  0.02069  1.0000
  C   C415      1.0  0.03730  0.95120  0.98626  1.0000
  S   S168      1.0  0.16428  0.63362  0.99205  1.0000
  S   S169      1.0  0.00252  0.92607  0.05279  1.0000
  C   C416      1.0  0.11362  0.49511  0.05593  1.0000
  N   N44       1.0  0.98679  0.92063  0.11203  1.0000
  H   H659      1.0  0.99279  0.64477  0.09389  1.0000
  H   H660      1.0  0.07196  0.54441  0.03324  1.0000
  H   H661      1.0  0.20456  0.71210  0.20274  1.0000
  S   S170      1.0  0.01871  0.95487  0.00470  1.0000
  H   H662      1.0  0.02337  0.48245  0.08561  1.0000
  H   H663      1.0  0.99126  0.89138  0.11525  1.0000
  Fe  Fe91      1.0  0.11652  0.77963  0.17999  1.0000
  S   S171      1.0  0.11160  0.63932  0.99974  1.0000
  Fe  Fe92      1.0  0.11116  0.74518  0.17210  1.0000
  H   H664      1.0  0.15273  0.67411  0.04009  1.0000
  H   H665      1.0  0.03183  0.65017  0.09352  1.0000
  C   C417      1.0  0.04670  0.96540  0.97731  1.0000
  H   H666      1.0  0.17159  0.75945  0.17510  1.0000
  H   H667      1.0  0.13468  0.66789  0.01085  1.0000
  C   C418      1.0  0.21833  0.74690  0.16904  1.0000
  S   S172      1.0  0.13234  0.55734  0.99973  1.0000
  H   H668      1.0  0.02271  0.62972  0.10056  1.0000
  S   S173      1.0  0.13441  0.60740  0.97665  1.0000
  H   H669      1.0  0.12092  0.86780  0.15941  1.0000
  H   H670      1.0  0.98988  0.66387  0.21028  1.0000
  C   C419      1.0  0.14579  0.48994  0.05697  1.0000
  C   C420      1.0  0.15062  0.96493  0.13905  1.0000
  C   C421      1.0  0.10414  0.86798  0.19480  1.0000
  H   H671      1.0  0.99763  0.90747  0.13636  1.0000
  H   H672      1.0  0.21745  0.74711  0.13088  1.0000
  H   H673      1.0  0.21708  0.96016  0.00066  1.0000
  H   H674      1.0  0.99056  0.96868  0.21162  1.0000
  H   H675      1.0  0.99942  0.78680  0.03641  1.0000
  C   C422      1.0  0.12084  0.89193  0.19080  1.0000
  H   H676      1.0  0.98690  0.54058  0.10617  1.0000
  H   H677      1.0  0.09840  0.96429  0.15397  1.0000
  C   C423      1.0  0.11294  0.96443  0.14976  1.0000
  H   H678      1.0  0.11453  0.50858  0.04656  1.0000
  H   H679      1.0  0.10258  0.48996  0.05284  1.0000
  H   H680      1.0  0.00152  0.64916  0.18349  1.0000
  H   H681      1.0  0.08352  0.96683  0.21023  1.0000
  H   H682      1.0  0.13760  0.84873  0.18310  1.0000
  S   S174      1.0  0.23003  0.66271  0.05157  1.0000
  H   H683      1.0  0.98988  0.79581  0.06669  1.0000
  H   H684      1.0  0.21726  0.70851  0.15364  1.0000
  C   C424      1.0  0.22851  0.56556  0.06044  1.0000
  H   H685      1.0  0.10394  0.85509  0.19088  1.0000
  H   H686      1.0  0.22700  0.59049  0.07995  1.0000
  H   H687      1.0  0.13235  0.88634  0.15665  1.0000
  C   C425      1.0  0.98706  0.65062  0.18221  1.0000
  Fe  Fe93      1.0  0.09903  0.75230  0.21078  1.0000
  C   C426      1.0  0.22954  0.71097  0.14273  1.0000
  H   H688      1.0  0.14241  0.49274  0.07105  1.0000
  H   H689      1.0  0.19876  0.73514  0.13780  1.0000
  H   H690      1.0  0.22543  0.69487  0.11716  1.0000
  N   N45       1.0  0.22436  0.72014  0.12494  1.0000
  H   H691      1.0  0.99459  0.93203  0.13112  1.0000
  C   C427      1.0  0.99850  0.91962  0.12501  1.0000
  H   H692      1.0  0.20075  0.96795  0.97479  1.0000
  H   H693      1.0  0.99791  0.81893  0.03866  1.0000
  H   H694      1.0  0.98504  0.94959  0.10231  1.0000
  C   C428      1.0  0.98471  0.79077  0.03523  1.0000
  C   C429      1.0  0.99990  0.94473  0.96600  1.0000
  Fe  Fe94      1.0  0.08753  0.75286  0.33006  1.0000
  S   S175      1.0  0.09799  0.72258  0.33373  1.0000
  S   S176      1.0  0.09040  0.77281  0.30310  1.0000
  Fe  Fe95      1.0  0.07341  0.75199  0.37061  1.0000
  S   S177      1.0  0.08283  0.72149  0.37796  1.0000
  S   S178      1.0  0.05497  0.76837  0.39134  1.0000
  Fe  Fe96      1.0  0.10856  0.72588  0.35724  1.0000
  S   S179      1.0  0.13709  0.70966  0.35972  1.0000
  Fe  Fe97      1.0  0.07153  0.72049  0.35405  1.0000
  S   S180      1.0  0.05444  0.69913  0.35851  1.0000
  S   S181      1.0  0.10027  0.75650  0.35190  1.0000
  S   S182      1.0  0.06007  0.75059  0.34827  1.0000
  C   C430      1.0  0.03679  0.96313  0.39840  1.0000
  Fe  Fe98      1.0  0.06813  0.48919  0.39403  1.0000
  H   H695      1.0  0.99119  0.51119  0.35914  1.0000
  H   H696      1.0  0.03095  0.82903  0.34876  1.0000
  H   H697      1.0  0.18477  0.51437  0.38818  1.0000
  H   H698      1.0  0.08095  0.79293  0.33106  1.0000
  H   H699      1.0  0.09291  0.77615  0.23844  1.0000
  H   H700      1.0  0.04748  0.83446  0.31640  1.0000
  Fe  Fe99      1.0  0.03732  0.86389  0.41183  1.0000
  S   S183      1.0  0.00990  0.87149  0.40339  1.0000
  S   S184      1.0  0.06192  0.84734  0.39593  1.0000
  Fe  Fe100     1.0  0.02372  0.88440  0.44349  1.0000
  H   H701      1.0  0.19220  0.74734  0.43069  1.0000
  C   C431      1.0  0.05991  0.82525  0.32091  1.0000
  C   C432      1.0  0.12856  0.72172  0.24739  1.0000
  S   S185      1.0  0.19653  0.51151  0.45828  1.0000
  Fe  Fe101     1.0  0.00965  0.89930  0.40784  1.0000
  H   H702      1.0  0.21701  0.50176  0.40990  1.0000
  S   S186      1.0  0.02587  0.85526  0.44176  1.0000
  S   S187      1.0  0.03788  0.89237  0.41425  1.0000
  H   H703      1.0  0.16603  0.71953  0.26451  1.0000
  H   H704      1.0  0.02863  0.92742  0.43358  1.0000
  H   H705      1.0  0.05650  0.69433  0.24074  1.0000
  C   C433      1.0  0.15749  0.71534  0.25714  1.0000
  S   S188      1.0  0.09608  0.48195  0.40183  1.0000
  H   H706      1.0  0.07038  0.63792  0.35360  1.0000
  Fe  Fe102     1.0  0.03288  0.51636  0.38824  1.0000
  S   S189      1.0  0.05953  0.50848  0.36904  1.0000
  S   S190      1.0  0.01571  0.54478  0.38853  1.0000
  Fe  Fe103     1.0  0.22587  0.67725  0.45026  1.0000
  H   H707      1.0  0.04107  0.73930  0.25469  1.0000
  N   N46       1.0  0.04141  0.94810  0.41375  1.0000
  S   S191      1.0  0.05476  0.96509  0.32830  1.0000
  H   H708      1.0  0.17195  0.48708  0.36159  1.0000
  H   H709      1.0  0.09147  0.54135  0.41718  1.0000
  C   C434      1.0  0.04779  0.64635  0.32990  1.0000
  S   S192      1.0  0.04248  0.49883  0.41357  1.0000
  S   S193      1.0  0.01959  0.49524  0.38408  1.0000
  H   H710      1.0  0.00769  0.68305  0.33589  1.0000
  H   H711      1.0  0.00840  0.71977  0.24031  1.0000
  H   H712      1.0  0.14950  0.67423  0.38300  1.0000
  C   C435      1.0  0.02711  0.69517  0.31369  1.0000
  Fe  Fe104     1.0  0.19939  0.69444  0.42431  1.0000
  S   S194      1.0  0.20332  0.66878  0.41386  1.0000
  S   S195      1.0  0.17820  0.71970  0.41715  1.0000
  C   C436      1.0  0.15731  0.66253  0.39160  1.0000
  C   C437      1.0  0.18180  0.51035  0.37647  1.0000
  Fe  Fe105     1.0  0.14862  0.52740  0.44454  1.0000
  H   H713      1.0  0.00868  0.49580  0.34696  1.0000
  N   N47       1.0  0.05490  0.81103  0.33704  1.0000
  H   H714      1.0  0.01317  0.94864  0.42754  1.0000
  S   S196      1.0  0.17499  0.52606  0.42375  1.0000
  C   C438      1.0  0.17864  0.75928  0.46244  1.0000
  C   C439      1.0  0.16445  0.48865  0.39715  1.0000
  C   C440      1.0  0.02108  0.96407  0.35139  1.0000
  Fe  Fe106     1.0  0.18478  0.53863  0.44203  1.0000
  S   S197      1.0  0.20254  0.55981  0.42928  1.0000
  Fe  Fe107     1.0  0.18418  0.49934  0.44175  1.0000
  C   C441      1.0  0.16087  0.49858  0.36575  1.0000
  H   H715      1.0  0.17595  0.47714  0.39400  1.0000
  H   H716      1.0  0.14754  0.49391  0.36911  1.0000
  S   S198      1.0  0.18333  0.63433  0.45716  1.0000
  H   H717      1.0  0.21036  0.74421  0.44283  1.0000
  C   C442      1.0  0.14895  0.51947  0.38658  1.0000
  H   H718      1.0  0.03018  0.73846  0.21921  1.0000
  C   C443      1.0  0.02976  0.73232  0.25529  1.0000
  H   H719      1.0  0.15858  0.65010  0.38615  1.0000
  H   H720      1.0  0.12180  0.65597  0.42757  1.0000
  H   H721      1.0  0.05456  0.92872  0.39631  1.0000
  H   H722      1.0  0.17141  0.66517  0.38955  1.0000
  H   H723      1.0  0.03168  0.80825  0.32772  1.0000
  H   H724      1.0  0.14856  0.53175  0.37533  1.0000
  C   C444      1.0  0.20297  0.61083  0.43421  1.0000
  C   C445      1.0  0.20716  0.59415  0.42832  1.0000
  C   C446      1.0  0.19664  0.58068  0.43683  1.0000
  H   H725      1.0  0.16535  0.71521  0.24285  1.0000
  S   S199      1.0  0.15749  0.54241  0.46143  1.0000
  H   H726      1.0  0.21127  0.62106  0.42764  1.0000
  C   C447      1.0  0.02555  0.93900  0.42206  1.0000
  H   H727      1.0  0.19343  0.49926  0.37234  1.0000
  C   C448      1.0  0.03910  0.95477  0.34621  1.0000
  C   C449      1.0  0.10198  0.49704  0.41220  1.0000
  C   C450      1.0  0.11678  0.49077  0.42130  1.0000
  C   C451      1.0  0.12270  0.50276  0.42862  1.0000
  C   C452      1.0  0.11373  0.52109  0.42697  1.0000
  C   C453      1.0  0.09853  0.52720  0.41841  1.0000
  C   C454      1.0  0.09263  0.51520  0.41105  1.0000
  H   H728      1.0  0.04860  0.94471  0.43983  1.0000
  H   H729      1.0  0.13432  0.49789  0.43534  1.0000
  C   C455      1.0  0.23076  0.49323  0.38438  1.0000
  H   H730      1.0  0.08111  0.52012  0.40416  1.0000
  H   H731      1.0  0.98623  0.96308  0.34133  1.0000
  H   H732      1.0  0.06853  0.78793  0.35413  1.0000
  N   N48       1.0  0.13937  0.72782  0.25733  1.0000
  H   H733      1.0  0.05148  0.82775  0.35675  1.0000
  H   H734      1.0  0.99532  0.55229  0.32197  1.0000
  H   H735      1.0  0.07289  0.47492  0.46273  1.0000
  C   C456      1.0  0.07041  0.91481  0.45639  1.0000
  H   H736      1.0  0.12865  0.75632  0.24808  1.0000
  H   H737      1.0  0.19062  0.76470  0.46309  1.0000
  Fe  Fe108     1.0  0.99803  0.63143  0.31368  1.0000
  H   H738      1.0  0.15927  0.63143  0.41733  1.0000
  Fe  Fe109     1.0  0.99838  0.86506  0.43358  1.0000
  N   N49       1.0  0.00509  0.52394  0.33293  1.0000
  C   C457      1.0  0.03347  0.64326  0.36194  1.0000
  H   H739      1.0  0.15599  0.70105  0.26372  1.0000
  H   H740      1.0  0.04749  0.69762  0.26384  1.0000
  C   C458      1.0  0.00314  0.57746  0.36713  1.0000
  C   C459      1.0  0.18183  0.58402  0.45126  1.0000
  S   S200      1.0  0.19539  0.68054  0.45388  1.0000
  H   H741      1.0  0.03421  0.96619  0.43278  1.0000
  Fe  Fe110     1.0  0.03146  0.47702  0.40769  1.0000
  H   H742      1.0  0.05920  0.89830  0.44465  1.0000
  S   S201      1.0  0.99817  0.92628  0.39109  1.0000
  H   H743      1.0  0.02458  0.69925  0.23597  1.0000
  S   S202      1.0  0.07875  0.74522  0.23699  1.0000
  S   S203      1.0  0.01910  0.60502  0.31544  1.0000
  C   C460      1.0  0.01972  0.68913  0.33212  1.0000
  H   H744      1.0  0.08235  0.91562  0.44542  1.0000
  S   S204      1.0  0.00321  0.65159  0.28723  1.0000
  H   H745      1.0  0.01570  0.70264  0.25898  1.0000
  H   H746      1.0  0.01952  0.53083  0.30514  1.0000
  N   N50       1.0  0.16402  0.50428  0.38148  1.0000
  H   H747      1.0  0.16623  0.49255  0.40950  1.0000
  H   H748      1.0  0.17178  0.71905  0.45738  1.0000
  C   C461      1.0  0.07183  0.79925  0.34247  1.0000
  H   H749      1.0  0.03071  0.51616  0.34222  1.0000
  H   H750      1.0  0.03922  0.65450  0.36371  1.0000
  H   H751      1.0  0.01799  0.74304  0.25120  1.0000
  H   H752      1.0  0.04704  0.61080  0.33579  1.0000
  C   C462      1.0  0.01427  0.93724  0.37437  1.0000
  C   C463      1.0  0.12939  0.72772  0.27644  1.0000
  H   H753      1.0  0.05717  0.63955  0.31891  1.0000
  H   H754      1.0  0.02529  0.72579  0.26987  1.0000
  C   C464      1.0  0.04481  0.93688  0.35547  1.0000
  C   C465      1.0  0.03237  0.92805  0.36940  1.0000
  H   H755      1.0  0.13528  0.51552  0.38983  1.0000
  C   C466      1.0  0.98755  0.96509  0.32633  1.0000
  H   H756      1.0  0.05878  0.92968  0.35152  1.0000
  H   H757      1.0  0.03670  0.91401  0.37600  1.0000
  H   H758      1.0  0.02211  0.68636  0.36002  1.0000
  H   H759      1.0  0.03942  0.80922  0.36464  1.0000
  H   H760      1.0  0.99257  0.60280  0.34998  1.0000
  C   C467      1.0  0.01719  0.56182  0.36845  1.0000
  C   C468      1.0  0.03195  0.55991  0.35367  1.0000
  C   C469      1.0  0.03233  0.57326  0.33747  1.0000
  H   H761      1.0  0.15220  0.64235  0.43670  1.0000
  H   H762      1.0  0.04299  0.54807  0.35468  1.0000
  H   H763      1.0  0.04371  0.57162  0.32601  1.0000
  C   C470      1.0  0.05777  0.78974  0.39346  1.0000
  C   C471      1.0  0.04282  0.80096  0.40266  1.0000
  C   C472      1.0  0.04403  0.81857  0.40364  1.0000
  C   C473      1.0  0.06029  0.82504  0.39553  1.0000
  C   C474      1.0  0.07537  0.81371  0.38658  1.0000
  C   C475      1.0  0.07416  0.79606  0.38564  1.0000
  H   H764      1.0  0.03015  0.79609  0.40887  1.0000
  H   H765      1.0  0.03237  0.82715  0.41065  1.0000
  H   H766      1.0  0.08805  0.81860  0.38047  1.0000
  H   H767      1.0  0.08591  0.78734  0.37892  1.0000
  C   C476      1.0  0.14864  0.71432  0.37458  1.0000
  C   C477      1.0  0.16695  0.70537  0.37463  1.0000
  C   C478      1.0  0.17616  0.70731  0.38742  1.0000
  C   C479      1.0  0.16717  0.71835  0.40018  1.0000
  C   C480      1.0  0.14905  0.72786  0.39973  1.0000
  C   C481      1.0  0.13974  0.72578  0.38700  1.0000
  H   H768      1.0  0.17399  0.69674  0.36485  1.0000
  H   H769      1.0  0.19030  0.70040  0.38727  1.0000
  H   H770      1.0  0.14205  0.73652  0.40949  1.0000
  H   H771      1.0  0.12561  0.73277  0.38700  1.0000
  C   C482      1.0  0.08598  0.76564  0.28501  1.0000
  C   C483      1.0  0.09131  0.77492  0.26704  1.0000
  C   C484      1.0  0.08885  0.76886  0.25226  1.0000
  C   C485      1.0  0.08088  0.75363  0.25540  1.0000
  C   C486      1.0  0.07515  0.74457  0.27340  1.0000
  C   C487      1.0  0.07781  0.75049  0.28821  1.0000
  H   H772      1.0  0.09751  0.78671  0.26454  1.0000
  C   C488      1.0  0.21894  0.49169  0.40163  1.0000
  H   H773      1.0  0.06895  0.73277  0.27592  1.0000
  H   H774      1.0  0.07360  0.74332  0.30207  1.0000
  C   C489      1.0  0.04340  0.69905  0.34108  1.0000
  C   C490      1.0  0.04230  0.70372  0.30898  1.0000
  C   C491      1.0  0.05044  0.70569  0.32267  1.0000
  H   H775      1.0  0.04800  0.70855  0.29475  1.0000
  H   H776      1.0  0.06240  0.71191  0.31898  1.0000
  H   H777      1.0  0.17243  0.76834  0.45089  1.0000
  H   H778      1.0  0.02203  0.94779  0.31649  1.0000
  H   H779      1.0  0.06840  0.81899  0.30914  1.0000
  H   H780      1.0  0.03431  0.65180  0.32560  1.0000
  C   C492      1.0  0.02046  0.70970  0.24469  1.0000
  H   H781      1.0  0.06323  0.71123  0.24871  1.0000
  H   H782      1.0  0.07393  0.61904  0.34246  1.0000
  H   H783      1.0  0.03712  0.60793  0.35983  1.0000
  H   H784      1.0  0.06145  0.92318  0.41797  1.0000
  N   N51       1.0  0.04594  0.63358  0.34782  1.0000
  C   C493      1.0  0.04368  0.81969  0.35241  1.0000
  H   H785      1.0  0.03113  0.63386  0.37549  1.0000
  C   C494      1.0  0.00876  0.95537  0.36564  1.0000
  H   H786      1.0  0.06806  0.83384  0.32396  1.0000
  H   H787      1.0  0.99487  0.96264  0.36978  1.0000
  H   H788      1.0  0.13581  0.72138  0.23299  1.0000
  Fe  Fe111     1.0  0.20157  0.65471  0.44321  1.0000
  C   C495      1.0  0.01910  0.52800  0.34063  1.0000
  H   H789      1.0  0.21864  0.59165  0.41715  1.0000
  H   H790      1.0  0.11566  0.73696  0.27698  1.0000
  C   C496      1.0  0.05727  0.90514  0.45585  1.0000
  H   H791      1.0  0.11500  0.73106  0.24687  1.0000
  C   C497      1.0  0.06422  0.62656  0.35276  1.0000
  C   C498      1.0  0.17761  0.60069  0.45714  1.0000
  Fe  Fe112     1.0  0.04686  0.48594  0.36661  1.0000
  H   H792      1.0  0.02437  0.62285  0.34348  1.0000
  C   C499      1.0  0.18823  0.61406  0.44872  1.0000
  C   C500      1.0  0.21010  0.47683  0.40836  1.0000
  H   H793      1.0  0.16178  0.74167  0.44723  1.0000
  H   H794      1.0  0.16048  0.51004  0.35365  1.0000
  H   H795      1.0  0.12923  0.64532  0.40799  1.0000
  H   H796      1.0  0.00345  0.51618  0.30852  1.0000
  S   S205      1.0  0.22955  0.69357  0.42155  1.0000
  H   H797      1.0  0.02174  0.93337  0.41187  1.0000
  S   S206      1.0  0.23179  0.65005  0.44215  1.0000
  C   C501      1.0  0.02788  0.69103  0.34576  1.0000
  C   C502      1.0  0.00356  0.59088  0.35095  1.0000
  C   C503      1.0  0.05146  0.70484  0.24942  1.0000
  N   N52       1.0  0.03583  0.71869  0.24339  1.0000
  C   C504      1.0  0.03835  0.61812  0.34671  1.0000
  H   H798      1.0  0.05322  0.65835  0.33032  1.0000
  H   H799      1.0  0.06330  0.61699  0.36629  1.0000
  H   H800      1.0  0.15008  0.75166  0.25547  1.0000
  H   H801      1.0  0.14963  0.74710  0.23384  1.0000
  H   H802      1.0  0.05320  0.73481  0.22268  1.0000
  C   C505      1.0  0.04431  0.79978  0.33242  1.0000
  H   H803      1.0  0.13700  0.73245  0.28436  1.0000
  H   H804      1.0  0.01978  0.64947  0.35826  1.0000
  H   H805      1.0  0.15155  0.48329  0.40087  1.0000
  S   S207      1.0  0.01799  0.69162  0.29633  1.0000
  H   H806      1.0  0.03994  0.78922  0.34450  1.0000
  H   H807      1.0  0.05268  0.79244  0.32136  1.0000
  H   H808      1.0  0.02089  0.48218  0.44827  1.0000
  C   C506      1.0  0.01808  0.58868  0.33602  1.0000
  H   H809      1.0  0.07992  0.80706  0.34669  1.0000
  C   C507      1.0  0.04163  0.72787  0.22420  1.0000
  C   C508      1.0  0.14206  0.74655  0.24829  1.0000
  H   H810      1.0  0.18194  0.52231  0.36487  1.0000
  S   S208      1.0  0.99546  0.89356  0.43719  1.0000
  H   H811      1.0  0.17368  0.57373  0.45796  1.0000
  N   N53       1.0  0.14808  0.66034  0.41109  1.0000
  C   C509      1.0  0.15853  0.64428  0.42184  1.0000
  C   C510      1.0  0.14729  0.67691  0.41786  1.0000
  C   C511      1.0  0.12918  0.65768  0.41302  1.0000
  H   H812      1.0  0.17293  0.64579  0.42046  1.0000
  H   H813      1.0  0.13951  0.68930  0.41002  1.0000
  H   H814      1.0  0.14049  0.67572  0.43255  1.0000
  H   H815      1.0  0.16130  0.67943  0.41654  1.0000
  H   H816      1.0  0.12097  0.66962  0.40503  1.0000
  H   H817      1.0  0.12594  0.70778  0.25398  1.0000
  S   S209      1.0  0.99496  0.65154  0.33133  1.0000
  H   H818      1.0  0.15040  0.52367  0.39890  1.0000
  C   C512      1.0  0.01362  0.51936  0.31476  1.0000
  H   H819      1.0  0.01235  0.93508  0.33809  1.0000
  H   H820      1.0  0.99175  0.57907  0.37859  1.0000
  H   H821      1.0  0.01715  0.92581  0.31790  1.0000
  H   H822      1.0  0.12387  0.47665  0.42249  1.0000
  S   S210      1.0  0.15711  0.49977  0.46150  1.0000
  Fe  Fe113     1.0  0.23321  0.66657  0.41353  1.0000
  C   C513      1.0  0.99764  0.50826  0.34526  1.0000
  C   C514      1.0  0.05749  0.93469  0.40679  1.0000
  H   H823      1.0  0.01318  0.53145  0.35439  1.0000
  H   H824      1.0  0.12708  0.71382  0.28375  1.0000
  H   H825      1.0  0.07383  0.48014  0.43852  1.0000
  S   S211      1.0  0.12175  0.53681  0.43466  1.0000
  Fe  Fe114     1.0  0.99824  0.67208  0.30494  1.0000
  C   C515      1.0  0.01200  0.93865  0.32326  1.0000
  H   H826      1.0  0.06970  0.94109  0.40034  1.0000
  S   S212      1.0  0.04835  0.48045  0.33863  1.0000
  C   C516      1.0  0.04580  0.95556  0.42771  1.0000
  H   H827      1.0  0.02502  0.50715  0.31575  1.0000
  H   H828      1.0  0.02503  0.53972  0.33163  1.0000
  H   H829      1.0  0.00287  0.95986  0.29217  1.0000
  H   H830      1.0  0.05822  0.96180  0.42224  1.0000
  C   C517      1.0  0.99318  0.95083  0.30039  1.0000
  H   H831      1.0  0.03376  0.95790  0.38748  1.0000
  H   H832      1.0  0.99727  0.93790  0.29517  1.0000
  H   H833      1.0  0.98706  0.50475  0.33985  1.0000
  N   N54       1.0  0.99327  0.94750  0.32012  1.0000
  C   C518      1.0  0.99009  0.54019  0.33111  1.0000
  N   N55       1.0  0.18426  0.74011  0.46001  1.0000
  C   C519      1.0  0.19801  0.73910  0.44280  1.0000
  C   C520      1.0  0.23357  0.48002  0.37380  1.0000
  H   H834      1.0  0.04837  0.97044  0.39196  1.0000
  H   H835      1.0  0.05301  0.47581  0.45398  1.0000
  H   H836      1.0  0.20264  0.72481  0.44058  1.0000
  S   S213      1.0  0.19629  0.47373  0.43032  1.0000
  C   C521      1.0  0.16802  0.73352  0.45912  1.0000
  C   C522      1.0  0.14033  0.89403  0.64843  1.0000
  H   H837      1.0  0.19804  0.91467  0.67823  1.0000
  C   C523      1.0  0.08440  0.52008  0.68061  1.0000
  H   H838      1.0  0.19852  0.86256  0.71494  1.0000
  H   H839      1.0  0.20782  0.61665  0.51301  1.0000
  N   N56       1.0  0.08260  0.52380  0.66130  1.0000
  C   C524      1.0  0.15695  0.88636  0.67311  1.0000
  C   C525      1.0  0.22537  0.49080  0.50712  1.0000
  H   H840      1.0  0.19817  0.52352  0.66862  1.0000
  C   C526      1.0  0.14400  0.48469  0.63698  1.0000
  H   H841      1.0  0.17700  0.87848  0.57059  1.0000
  H   H842      1.0  0.02123  0.47883  0.48109  1.0000
  H   H843      1.0  0.99706  0.94747  0.55555  1.0000
  H   H844      1.0  0.23140  0.64924  0.59102  1.0000
  H   H845      1.0  0.21445  0.84764  0.54449  1.0000
  H   H846      1.0  0.18698  0.60762  0.48968  1.0000
  C   C527      1.0  0.04472  0.48847  0.69875  1.0000
  H   H847      1.0  0.13566  0.47641  0.64767  1.0000
  H   H848      1.0  0.00103  0.90637  0.59273  1.0000
  C   C528      1.0  0.19239  0.72858  0.47562  1.0000
  C   C529      1.0  0.12947  0.47388  0.57658  1.0000
  H   H849      1.0  0.10084  0.48966  0.54626  1.0000
  H   H850      1.0  0.17988  0.86182  0.52824  1.0000
  H   H851      1.0  0.22158  0.59756  0.62057  1.0000
  N   N57       1.0  0.19258  0.87132  0.54507  1.0000
  H   H852      1.0  0.14096  0.89889  0.63341  1.0000
  C   C530      1.0  0.20909  0.86177  0.68635  1.0000
  H   H853      1.0  0.07287  0.47459  0.69844  1.0000
  H   H854      1.0  0.21854  0.58303  0.52092  1.0000
  S   S214      1.0  0.11715  0.49100  0.61669  1.0000
  C   C531      1.0  0.05289  0.92212  0.48534  1.0000
  H   H855      1.0  0.21432  0.52301  0.68222  1.0000
  S   S215      1.0  0.04165  0.47944  0.68111  1.0000
  H   H856      1.0  0.16479  0.91588  0.63233  1.0000
  H   H857      1.0  0.04014  0.92413  0.60035  1.0000
  H   H858      1.0  0.05566  0.51718  0.66794  1.0000
  H   H859      1.0  0.16938  0.86549  0.64794  1.0000
  H   H860      1.0  0.12276  0.96569  0.55362  1.0000
  H   H861      1.0  0.21087  0.48909  0.54299  1.0000
  H   H862      1.0  0.22955  0.69665  0.59543  1.0000
  Fe  Fe115     1.0  0.08576  0.94601  0.49568  1.0000
  H   H863      1.0  0.01700  0.50409  0.70251  1.0000
  H   H864      1.0  0.22420  0.65052  0.62409  1.0000
  Fe  Fe116     1.0  0.11432  0.94653  0.51716  1.0000
  H   H865      1.0  0.20413  0.73371  0.47724  1.0000
  S   S216      1.0  0.14452  0.93963  0.51822  1.0000
  Fe  Fe117     1.0  0.07498  0.94501  0.53654  1.0000
  S   S217      1.0  0.05900  0.93174  0.56323  1.0000
  H   H866      1.0  0.02786  0.91161  0.49581  1.0000
  C   C532      1.0  0.21452  0.61609  0.49851  1.0000
  S   S218      1.0  0.09637  0.92672  0.51964  1.0000
  C   C533      1.0  0.21725  0.53814  0.63645  1.0000
  C   C534      1.0  0.03003  0.50073  0.70686  1.0000
  H   H867      1.0  0.16764  0.89098  0.55086  1.0000
  H   H868      1.0  0.21865  0.87965  0.53401  1.0000
  Fe  Fe118     1.0  0.21157  0.51091  0.60381  1.0000
  S   S219      1.0  0.21504  0.50292  0.57687  1.0000
  S   S220      1.0  0.19194  0.50162  0.62974  1.0000
  C   C535      1.0  0.01769  0.96832  0.59940  1.0000
  C   C536      1.0  0.22495  0.58338  0.50620  1.0000
  Fe  Fe119     1.0  0.21852  0.53179  0.56479  1.0000
  S   S221      1.0  0.20805  0.54795  0.53930  1.0000
  S   S222      1.0  0.09388  0.96323  0.53598  1.0000
  S   S223      1.0  0.21260  0.54052  0.59186  1.0000
  S   S224      1.0  0.16527  0.50664  0.50735  1.0000
  C   C537      1.0  0.19509  0.53718  0.53083  1.0000
  C   C538      1.0  0.18565  0.52386  0.54235  1.0000
  C   C539      1.0  0.17615  0.51482  0.53512  1.0000
  C   C540      1.0  0.17601  0.51908  0.51635  1.0000
  C   C541      1.0  0.18525  0.53257  0.50487  1.0000
  C   C542      1.0  0.19479  0.54155  0.51210  1.0000
  H   H869      1.0  0.18549  0.52064  0.55686  1.0000
  H   H870      1.0  0.16896  0.50445  0.54407  1.0000
  H   H871      1.0  0.17040  0.88490  0.67698  1.0000
  H   H872      1.0  0.20229  0.55156  0.50305  1.0000
  S   S225      1.0  0.07144  0.47786  0.63299  1.0000
  H   H873      1.0  0.20229  0.86681  0.51755  1.0000
  H   H874      1.0  0.09389  0.52796  0.68254  1.0000
  C   C543      1.0  0.02301  0.94963  0.60616  1.0000
  C   C544      1.0  0.03633  0.93867  0.59518  1.0000
  C   C545      1.0  0.04443  0.94633  0.57740  1.0000
  H   H875      1.0  0.20773  0.88449  0.55613  1.0000
  H   H876      1.0  0.10003  0.52117  0.63506  1.0000
  Fe  Fe120     1.0  0.16853  0.51445  0.47656  1.0000
  H   H877      1.0  0.05108  0.92872  0.49670  1.0000
  C   C546      1.0  0.03961  0.96515  0.57083  1.0000
  H   H878      1.0  0.99521  0.86562  0.47106  1.0000
  C   C547      1.0  0.17238  0.87951  0.64352  1.0000
  H   H879      1.0  0.16616  0.60312  0.46835  1.0000
  H   H880      1.0  0.12544  0.48219  0.54163  1.0000
  C   C548      1.0  0.17150  0.49801  0.62594  1.0000
  C   C549      1.0  0.16590  0.50591  0.60929  1.0000
  C   C550      1.0  0.14926  0.50350  0.60663  1.0000
  H   H881      1.0  0.22917  0.57093  0.60538  1.0000
  H   H882      1.0  0.01684  0.94357  0.61983  1.0000
  H   H883      1.0  0.17423  0.51418  0.59858  1.0000
  C   C551      1.0  0.22625  0.66493  0.61991  1.0000
  C   C552      1.0  0.10078  0.51823  0.64979  1.0000
  S   S226      1.0  0.20746  0.90754  0.61726  1.0000
  H   H884      1.0  0.14488  0.50996  0.59382  1.0000
  H   H885      1.0  0.21214  0.84699  0.68864  1.0000
  C   C553      1.0  0.20940  0.53001  0.66932  1.0000
  H   H886      1.0  0.06194  0.54815  0.66377  1.0000
  H   H887      1.0  0.18270  0.88514  0.52040  1.0000
  H   H888      1.0  0.23335  0.80468  0.58867  1.0000
  H   H889      1.0  0.11116  0.52545  0.65105  1.0000
  Fe  Fe121     1.0  0.19707  0.90089  0.59555  1.0000
  H   H890      1.0  0.13612  0.88053  0.65235  1.0000
  H   H891      1.0  0.00116  0.85787  0.49306  1.0000
  H   H892      1.0  0.12927  0.90380  0.65549  1.0000
  H   H893      1.0  0.18618  0.87866  0.64618  1.0000
  H   H894      1.0  0.07397  0.54677  0.64076  1.0000
  S   S227      1.0  0.16662  0.90869  0.59556  1.0000
  H   H895      1.0  0.98493  0.48694  0.49870  1.0000
  H   H896      1.0  0.98770  0.95556  0.59474  1.0000
  H   H897      1.0  0.23076  0.47494  0.55117  1.0000
  H   H898      1.0  0.06811  0.51552  0.64510  1.0000
  H   H899      1.0  0.20328  0.54451  0.67033  1.0000
  H   H900      1.0  0.08991  0.50533  0.68551  1.0000
  H   H901      1.0  0.15292  0.87278  0.67798  1.0000
  H   H902      1.0  0.23087  0.66785  0.63131  1.0000
  H   H903      1.0  0.07430  0.49838  0.66422  1.0000
  N   N58       1.0  0.98679  0.93350  0.58275  1.0000
  H   H904      1.0  0.08327  0.48565  0.57850  1.0000
  H   H905      1.0  0.17342  0.88354  0.62845  1.0000
  H   H906      1.0  0.03285  0.94832  0.71255  1.0000
  H   H907      1.0  0.18884  0.59431  0.51210  1.0000
  S   S228      1.0  0.98658  0.92197  0.69306  1.0000
  H   H908      1.0  0.08514  0.55186  0.65629  1.0000
  C   C554      1.0  0.20120  0.85270  0.55337  1.0000
  C   C555      1.0  0.16337  0.91084  0.64740  1.0000
  C   C556      1.0  0.04178  0.90412  0.46994  1.0000
  H   H909      1.0  0.22097  0.47873  0.50537  1.0000
  Fe  Fe122     1.0  0.23249  0.91242  0.59580  1.0000
  H   H910      1.0  0.10619  0.50327  0.65366  1.0000
  Fe  Fe123     1.0  0.22216  0.87832  0.62163  1.0000
  H   H911      1.0  0.22871  0.61857  0.49623  1.0000
  H   H912      1.0  0.18527  0.53588  0.49036  1.0000
  C   C557      1.0  0.07561  0.54353  0.65525  1.0000
  H   H913      1.0  0.19912  0.89815  0.53633  1.0000
  C   C558      1.0  0.23218  0.50933  0.65225  1.0000
  C   C559      1.0  0.06960  0.51332  0.65954  1.0000
  S   S229      1.0  0.10575  0.96440  0.49166  1.0000
  S   S230      1.0  0.06294  0.96297  0.51278  1.0000
  C   C560      1.0  0.16034  0.91814  0.57420  1.0000
  C   C561      1.0  0.14214  0.91982  0.57256  1.0000
  C   C562      1.0  0.13707  0.92646  0.55542  1.0000
  C   C563      1.0  0.15022  0.93149  0.53990  1.0000
  C   C564      1.0  0.16833  0.93009  0.54160  1.0000
  C   C565      1.0  0.17337  0.92349  0.55871  1.0000
  H   H914      1.0  0.13197  0.91571  0.58450  1.0000
  H   H915      1.0  0.12306  0.92750  0.55419  1.0000
  H   H916      1.0  0.17850  0.93412  0.52962  1.0000
  H   H917      1.0  0.18734  0.92250  0.55987  1.0000
  H   H918      1.0  0.19218  0.84272  0.55561  1.0000
  C   C566      1.0  0.09648  0.48409  0.58286  1.0000
  C   C567      1.0  0.20107  0.89989  0.68053  1.0000
  C   C568      1.0  0.19714  0.88966  0.69831  1.0000
  C   C569      1.0  0.20127  0.87057  0.70123  1.0000
  C   C570      1.0  0.22353  0.47879  0.53947  1.0000
  H   H919      1.0  0.21272  0.50135  0.50975  1.0000
  H   H920      1.0  0.16480  0.48125  0.65269  1.0000
  C   C571      1.0  0.17492  0.87735  0.55714  1.0000
  H   H921      1.0  0.15289  0.92120  0.65420  1.0000
  H   H922      1.0  0.04579  0.97115  0.55709  1.0000
  C   C572      1.0  0.00206  0.93720  0.56714  1.0000
  H   H923      1.0  0.17673  0.91039  0.65091  1.0000
  H   H924      1.0  0.04521  0.92553  0.71061  1.0000
  H   H925      1.0  0.01224  0.94274  0.57110  1.0000
  H   H926      1.0  0.14669  0.89614  0.68087  1.0000
  C   C573      1.0  0.13830  0.49287  0.62042  1.0000
  H   H927      1.0  0.21265  0.67402  0.61873  1.0000
  S   S231      1.0  0.08417  0.93677  0.47039  1.0000
  C   C574      1.0  0.11351  0.48787  0.55166  1.0000
  H   H928      1.0  0.14446  0.96223  0.56003  1.0000
  H   H929      1.0  0.22518  0.56982  0.50342  1.0000
  H   H930      1.0  0.19495  0.58343  0.49279  1.0000
  S   S232      1.0  0.22074  0.90845  0.57342  1.0000
  N   N59       1.0  0.15824  0.89268  0.65314  1.0000
  C   C575      1.0  0.03973  0.91247  0.48478  1.0000
  H   H931      1.0  0.00964  0.92458  0.56199  1.0000
  C   C576      1.0  0.20502  0.88399  0.54275  1.0000
  H   H932      1.0  0.22847  0.51327  0.52751  1.0000
  H   H933      1.0  0.20681  0.62770  0.48969  1.0000
  C   C577      1.0  0.22370  0.59828  0.47488  1.0000
  H   H934      1.0  0.21264  0.89912  0.65227  1.0000
  H   H935      1.0  0.16546  0.86769  0.55984  1.0000
  S   S233      1.0  0.22193  0.86080  0.64998  1.0000
  S   S234      1.0  0.20968  0.87105  0.60156  1.0000
  C   C578      1.0  0.18922  0.87125  0.52701  1.0000
  C   C579      1.0  0.20914  0.89110  0.66575  1.0000
  H   H936      1.0  0.07085  0.52381  0.68976  1.0000
  C   C580      1.0  0.21294  0.87203  0.66854  1.0000
  C   C581      1.0  0.99405  0.91932  0.59749  1.0000
  C   C582      1.0  0.98978  0.86013  0.48565  1.0000
  H   H937      1.0  0.11526  0.50171  0.55194  1.0000
  N   N60       1.0  0.21468  0.59839  0.49423  1.0000
  C   C583      1.0  0.23331  0.66366  0.58781  1.0000
  C   C584      1.0  0.06818  0.92348  0.47105  1.0000
  H   H938      1.0  0.18216  0.72838  0.48873  1.0000
  H   H939      1.0  0.21992  0.67275  0.58571  1.0000
  H   H940      1.0  0.22940  0.92673  0.66465  1.0000
  N   N61       1.0  0.11236  0.47590  0.57003  1.0000
  C   C585      1.0  0.16048  0.48744  0.63981  1.0000
  H   H941      1.0  0.20617  0.53190  0.63499  1.0000
  H   H942      1.0  0.09529  0.47532  0.59678  1.0000
  C   C586      1.0  0.19555  0.59582  0.49735  1.0000
  C   C587      1.0  0.06154  0.48423  0.70441  1.0000
  H   H943      1.0  0.15719  0.73430  0.47173  1.0000
  H   H944      1.0  0.00419  0.92384  0.60258  1.0000
  H   H945      1.0  0.20429  0.85240  0.56684  1.0000
  H   H946      1.0  0.98664  0.84661  0.48625  1.0000
  H   H947      1.0  0.21148  0.55289  0.63647  1.0000
  H   H948      1.0  0.19767  0.71417  0.47381  1.0000
  H   H949      1.0  0.09783  0.49773  0.58415  1.0000
  H   H950      1.0  0.13162  0.48734  0.57759  1.0000
  H   H951      1.0  0.98952  0.88897  0.49908  1.0000
  H   H952      1.0  0.22648  0.91235  0.69701  1.0000
  S   S235      1.0  0.02461  0.89279  0.46936  1.0000
  H   H953      1.0  0.22168  0.50249  0.65046  1.0000
  N   N62       1.0  0.22449  0.52875  0.65315  1.0000
  H   H954      1.0  0.23388  0.49638  0.49388  1.0000
  H   H955      1.0  0.22288  0.58573  0.47069  1.0000
  H   H956      1.0  0.22829  0.53730  0.62404  1.0000
  H   H957      1.0  0.16830  0.76058  0.47532  1.0000
  H   H958      1.0  0.21712  0.61020  0.46558  1.0000
  Fe  Fe124     1.0  0.23421  0.87885  0.58084  1.0000
  H   H959      1.0  0.15721  0.97175  0.52756  1.0000
  H   H960      1.0  0.23406  0.55241  0.65430  1.0000
  Fe  Fe125     1.0  0.08298  0.61991  0.86864  1.0000
  S   S236      1.0  0.09983  0.62117  0.84008  1.0000
  S   S237      1.0  0.09737  0.60348  0.89163  1.0000
  Fe  Fe126     1.0  0.04953  0.64509  0.85550  1.0000
  S   S238      1.0  0.06386  0.64884  0.82610  1.0000
  Fe  Fe127     1.0  0.07422  0.61851  0.83247  1.0000
  S   S239      1.0  0.07533  0.60229  0.81126  1.0000
  Fe  Fe128     1.0  0.08799  0.65117  0.83634  1.0000
  S   S240      1.0  0.10360  0.67396  0.82316  1.0000
  S   S241      1.0  0.05838  0.61446  0.86142  1.0000
  S   S242      1.0  0.07261  0.65019  0.86535  1.0000
  C   C588      1.0  0.04304  0.91206  0.74657  1.0000
  C   C589      1.0  0.12707  0.88859  0.81676  1.0000
  H   H961      1.0  0.14232  0.88622  0.81438  1.0000
  S   S243      1.0  0.12178  0.86223  0.78019  1.0000
  H   H962      1.0  0.20973  0.75076  0.76944  1.0000
  H   H963      1.0  0.18606  0.62460  0.77862  1.0000
  H   H964      1.0  0.20969  0.62979  0.74957  1.0000
  H   H965      1.0  0.12011  0.95629  0.92005  1.0000
  H   H966      1.0  0.12237  0.87865  0.82924  1.0000
  C   C590      1.0  0.01651  0.53621  0.86119  1.0000
  C   C591      1.0  0.21073  0.74878  0.75542  1.0000
  Fe  Fe129     1.0  0.20419  0.68169  0.81031  1.0000
  S   S244      1.0  0.19619  0.70544  0.78835  1.0000
  S   S245      1.0  0.18895  0.65838  0.82201  1.0000
  H   H967      1.0  0.02548  0.48102  0.78482  1.0000
  S   S246      1.0  0.23324  0.67475  0.79507  1.0000
  Fe  Fe130     1.0  0.20511  0.72212  0.80335  1.0000
  S   S247      1.0  0.18556  0.74878  0.80694  1.0000
  H   H968      1.0  0.18808  0.76885  0.72061  1.0000
  S   S248      1.0  0.21073  0.69869  0.82675  1.0000
  C   C592      1.0  0.12479  0.92024  0.80143  1.0000
  H   H969      1.0  0.12082  0.91751  0.78960  1.0000
  H   H970      1.0  0.03933  0.68332  0.83693  1.0000
  C   C593      1.0  0.99372  0.68823  0.85605  1.0000
  C   C594      1.0  0.00129  0.96664  0.88110  1.0000
  H   H971      1.0  0.02847  0.71480  0.82063  1.0000
  H   H972      1.0  0.99609  0.90308  0.72761  1.0000
  C   C595      1.0  0.02488  0.68954  0.83968  1.0000
  S   S249      1.0  0.05472  0.92909  0.78701  1.0000
  Fe  Fe131     1.0  0.19074  0.84905  0.77161  1.0000
  S   S250      1.0  0.17272  0.85669  0.75079  1.0000
  S   S251      1.0  0.21276  0.82374  0.77608  1.0000
  Fe  Fe132     1.0  0.17637  0.88478  0.78498  1.0000
  Fe  Fe133     1.0  0.15056  0.86788  0.77283  1.0000
  S   S252      1.0  0.01962  0.65758  0.86410  1.0000
  Fe  Fe134     1.0  0.18062  0.88410  0.74470  1.0000
  S   S253      1.0  0.16790  0.85759  0.79425  1.0000
  S   S254      1.0  0.20049  0.87565  0.76370  1.0000
  Fe  Fe135     1.0  0.02680  0.52700  0.76094  1.0000
  Fe  Fe136     1.0  0.01002  0.54781  0.79219  1.0000
  S   S255      1.0  0.01029  0.56389  0.81311  1.0000
  H   H973      1.0  0.99790  0.65310  0.79185  1.0000
  H   H974      1.0  0.09317  0.90103  0.83536  1.0000
  S   S256      1.0  0.02672  0.51952  0.79114  1.0000
  S   S257      1.0  0.01251  0.55626  0.76161  1.0000
  C   C596      1.0  0.01872  0.70736  0.83046  1.0000
  S   S258      1.0  0.00326  0.94811  0.79978  1.0000
  S   S259      1.0  0.17569  0.89972  0.80699  1.0000
  C   C597      1.0  0.21225  0.96839  0.90335  1.0000
  H   H975      1.0  0.11812  0.92604  0.83568  1.0000
  H   H976      1.0  0.00470  0.53736  0.87295  1.0000
  H   H977      1.0  0.11871  0.93476  0.80230  1.0000
  C   C598      1.0  0.07284  0.91024  0.78421  1.0000
  C   C599      1.0  0.07043  0.89238  0.79217  1.0000
  C   C600      1.0  0.08546  0.87768  0.79049  1.0000
  C   C601      1.0  0.10293  0.88077  0.78090  1.0000
  C   C602      1.0  0.10517  0.89860  0.77250  1.0000
  C   C603      1.0  0.09017  0.91330  0.77418  1.0000
  H   H978      1.0  0.05708  0.88990  0.79990  1.0000
  H   H979      1.0  0.08362  0.86389  0.79693  1.0000
  H   H980      1.0  0.11845  0.90107  0.76470  1.0000
  H   H981      1.0  0.09206  0.92710  0.76789  1.0000
  H   H982      1.0  0.00459  0.75129  0.89447  1.0000
  N   N63       1.0  0.99767  0.72838  0.88828  1.0000
  S   S260      1.0  0.99314  0.73862  0.82358  1.0000
  C   C604      1.0  0.01237  0.67995  0.85250  1.0000
  H   H983      1.0  0.12012  0.90240  0.84699  1.0000
  S   S261      1.0  0.00105  0.51702  0.76346  1.0000
  H   H984      1.0  0.99943  0.47562  0.77470  1.0000
  C   C605      1.0  0.19344  0.76951  0.79933  1.0000
  C   C606      1.0  0.18053  0.78599  0.79743  1.0000
  C   C607      1.0  0.18634  0.80272  0.79035  1.0000
  C   C608      1.0  0.20511  0.80304  0.78529  1.0000
  C   C609      1.0  0.21804  0.78660  0.78746  1.0000
  C   C610      1.0  0.21223  0.76985  0.79445  1.0000
  H   H985      1.0  0.16598  0.78579  0.80124  1.0000
  H   H986      1.0  0.17627  0.81535  0.78874  1.0000
  H   H987      1.0  0.01397  0.71711  0.86514  1.0000
  H   H988      1.0  0.02667  0.91791  0.95377  1.0000
  H   H989      1.0  0.06925  0.92978  0.72511  1.0000
  C   C611      1.0  0.05888  0.96449  0.96050  1.0000
  S   S262      1.0  0.01277  0.90748  0.78923  1.0000
  H   H990      1.0  0.03009  0.90684  0.74932  1.0000
  N   N64       1.0  0.11862  0.90766  0.81859  1.0000
  H   H991      1.0  0.02352  0.95725  0.74265  1.0000
  C   C612      1.0  0.09836  0.91001  0.82230  1.0000
  H   H992      1.0  0.21366  0.88868  0.78899  1.0000
  S   S263      1.0  0.99160  0.48560  0.81102  1.0000
  C   C613      1.0  0.05756  0.59097  0.81235  1.0000
  C   C614      1.0  0.05833  0.58245  0.79797  1.0000
  C   C615      1.0  0.04403  0.57394  0.79806  1.0000
  C   C616      1.0  0.02879  0.57403  0.81251  1.0000
  C   C617      1.0  0.02804  0.58247  0.82694  1.0000
  C   C618      1.0  0.04243  0.59081  0.82693  1.0000
  H   H993      1.0  0.07002  0.58252  0.78666  1.0000
  H   H994      1.0  0.04474  0.56748  0.78688  1.0000
  H   H995      1.0  0.01630  0.58258  0.83817  1.0000
  H   H996      1.0  0.04181  0.59716  0.83815  1.0000
  C   C619      1.0  0.12751  0.66934  0.82195  1.0000
  C   C620      1.0  0.13693  0.68387  0.81645  1.0000
  C   C621      1.0  0.15586  0.68066  0.81620  1.0000
  C   C622      1.0  0.16544  0.66287  0.82145  1.0000
  C   C623      1.0  0.15609  0.64831  0.82669  1.0000
  C   C624      1.0  0.13718  0.65152  0.82690  1.0000
  H   H997      1.0  0.12950  0.69770  0.81263  1.0000
  H   H998      1.0  0.16290  0.69201  0.81232  1.0000
  H   H999      1.0  0.16346  0.63450  0.83072  1.0000
  H   H1000     1.0  0.13008  0.64023  0.83102  1.0000
  C   C625      1.0  0.09519  0.61377  0.91018  1.0000
  C   C626      1.0  0.08074  0.62833  0.91390  1.0000
  C   C627      1.0  0.07912  0.63606  0.92905  1.0000
  C   C628      1.0  0.09188  0.62921  0.94058  1.0000
  C   C629      1.0  0.10651  0.61485  0.93668  1.0000
  C   C630      1.0  0.10811  0.60709  0.92156  1.0000
  H   H1001     1.0  0.07061  0.63343  0.90532  1.0000
  H   H1002     1.0  0.06782  0.64722  0.93199  1.0000
  H   H1003     1.0  0.11663  0.60977  0.94527  1.0000
  H   H1004     1.0  0.11942  0.59592  0.91862  1.0000
  H   H1005     1.0  0.19647  0.74489  0.72869  1.0000
  H   H1006     1.0  0.98838  0.95665  0.96418  1.0000
  S   S264      1.0  0.15714  0.89586  0.76533  1.0000
  H   H1007     1.0  0.22774  0.64387  0.77250  1.0000
  H   H1008     1.0  0.03230  0.64388  0.78527  1.0000
  C   C631      1.0  0.10811  0.96270  0.95412  1.0000
  H   H1009     1.0  0.00405  0.50549  0.84412  1.0000
  Fe  Fe137     1.0  0.22577  0.69989  0.77424  1.0000
  H   H1010     1.0  0.16728  0.77056  0.75077  1.0000
  H   H1011     1.0  0.02895  0.53725  0.86555  1.0000
  H   H1012     1.0  0.02187  0.73551  0.86916  1.0000
  H   H1013     1.0  0.03021  0.94157  0.76246  1.0000
  C   C632      1.0  0.01451  0.63585  0.83097  1.0000
  H   H1014     1.0  0.13956  0.91026  0.83132  1.0000
  H   H1015     1.0  0.21375  0.78268  0.73678  1.0000
  C   C633      1.0  0.06373  0.49261  0.71780  1.0000
  H   H1016     1.0  0.09872  0.97043  0.96442  1.0000
  N   N65       1.0  0.19679  0.76238  0.74634  1.0000
  C   C634      1.0  0.03485  0.93379  0.71987  1.0000
  H   H1017     1.0  0.12354  0.88515  0.80503  1.0000
  H   H1018     1.0  0.01298  0.93780  0.75271  1.0000
  H   H1019     1.0  0.17647  0.76349  0.77122  1.0000
  C   C635      1.0  0.21354  0.89426  0.80054  1.0000
  H   H1020     1.0  0.04723  0.90991  0.75993  1.0000
  H   H1021     1.0  0.02075  0.71889  0.90170  1.0000
  H   H1022     1.0  0.18950  0.79163  0.73806  1.0000
  C   C636      1.0  0.03105  0.63652  0.79978  1.0000
  C   C637      1.0  0.01343  0.91394  0.96152  1.0000
  H   H1023     1.0  0.99982  0.52990  0.83701  1.0000
  S   S265      1.0  0.18747  0.90125  0.71645  1.0000
  C   C638      1.0  0.03522  0.51799  0.83941  1.0000
  H   H1024     1.0  0.19975  0.85941  0.81838  1.0000
  N   N66       1.0  0.99769  0.92932  0.95908  1.0000
  C   C639      1.0  0.01673  0.66479  0.81023  1.0000
  H   H1025     1.0  0.20792  0.67342  0.76271  1.0000
  N   N67       1.0  0.12895  0.65403  0.88182  1.0000
  C   C640      1.0  0.11074  0.66035  0.87666  1.0000
  C   C641      1.0  0.14130  0.66650  0.87074  1.0000
  C   C642      1.0  0.13680  0.63532  0.87844  1.0000
  C   C643      1.0  0.12689  0.65393  0.90143  1.0000
  H   H1026     1.0  0.10440  0.67448  0.87881  1.0000
  H   H1027     1.0  0.10108  0.65128  0.88486  1.0000
  H   H1028     1.0  0.11173  0.66040  0.86197  1.0000
  H   H1029     1.0  0.15543  0.66176  0.87366  1.0000
  H   H1030     1.0  0.14254  0.66746  0.85588  1.0000
  H   H1031     1.0  0.13607  0.68062  0.87335  1.0000
  H   H1032     1.0  0.15057  0.63005  0.88212  1.0000
  H   H1033     1.0  0.13840  0.63486  0.86381  1.0000
  H   H1034     1.0  0.12776  0.62559  0.88652  1.0000
  H   H1035     1.0  0.14034  0.64908  0.90587  1.0000
  H   H1036     1.0  0.11756  0.64475  0.91014  1.0000
  H   H1037     1.0  0.12094  0.66780  0.90453  1.0000
  N   N68       1.0  0.01508  0.64573  0.81180  1.0000
  C   C644      1.0  0.21380  0.82957  0.84127  1.0000
  C   C645      1.0  0.99796  0.64572  0.80624  1.0000
  H   H1038     1.0  0.09370  0.90643  0.81131  1.0000
  H   H1039     1.0  0.09145  0.92438  0.82316  1.0000
  C   C646      1.0  0.98761  0.70616  0.84704  1.0000
  H   H1040     1.0  0.01362  0.54830  0.85012  1.0000
  H   H1041     1.0  0.03755  0.50529  0.83409  1.0000
  C   C647      1.0  0.19845  0.75894  0.72791  1.0000
  H   H1042     1.0  0.00961  0.94040  0.93130  1.0000
  H   H1043     1.0  0.09992  0.95451  0.95051  1.0000
  C   C648      1.0  0.05808  0.93780  0.73397  1.0000
  H   H1044     1.0  0.01088  0.50353  0.88190  1.0000
  N   N69       1.0  0.19993  0.64731  0.76927  1.0000
  H   H1045     1.0  0.17149  0.64636  0.77208  1.0000
  C   C649      1.0  0.20537  0.64455  0.75019  1.0000
  C   C650      1.0  0.21515  0.63819  0.77903  1.0000
  H   H1046     1.0  0.00310  0.64283  0.84056  1.0000
  C   C651      1.0  0.99236  0.74617  0.89411  1.0000
  C   C652      1.0  0.09426  0.54812  0.96491  1.0000
  N   N70       1.0  0.22271  0.83714  0.82248  1.0000
  C   C653      1.0  0.19568  0.66710  0.76926  1.0000
  H   H1047     1.0  0.10738  0.54677  0.95462  1.0000
  C   C654      1.0  0.02200  0.47660  0.82675  1.0000
  C   C655      1.0  0.99796  0.95963  0.86717  1.0000
  S   S266      1.0  0.00145  0.86734  0.83118  1.0000
  C   C656      1.0  0.03224  0.50914  0.72015  1.0000
  H   H1048     1.0  0.19113  0.66966  0.78343  1.0000
  H   H1049     1.0  0.99021  0.51946  0.85989  1.0000
  H   H1050     1.0  0.18448  0.67451  0.76174  1.0000
  C   C657      1.0  0.00801  0.71470  0.90121  1.0000
  C   C658      1.0  0.00260  0.51845  0.84871  1.0000
  C   C659      1.0  0.98897  0.91683  0.72896  1.0000
  H   H1051     1.0  0.01205  0.90194  0.95678  1.0000
  N   N71       1.0  0.04055  0.93155  0.73741  1.0000
  C   C660      1.0  0.20844  0.84781  0.81204  1.0000
  C   C661      1.0  0.05411  0.93416  0.96245  1.0000
  H   H1052     1.0  0.05387  0.90335  0.73810  1.0000
  H   H1053     1.0  0.99954  0.71282  0.91533  1.0000
  H   H1054     1.0  0.05669  0.92222  0.95653  1.0000
  C   C662      1.0  0.02268  0.50331  0.87005  1.0000
  H   H1055     1.0  0.01260  0.62162  0.83282  1.0000
  H   H1056     1.0  0.99630  0.63152  0.80723  1.0000
  H   H1057     1.0  0.02943  0.66532  0.81442  1.0000
  H   H1058     1.0  0.00927  0.95469  0.85685  1.0000
  H   H1059     1.0  0.03519  0.50317  0.87498  1.0000
  H   H1060     1.0  0.01725  0.67271  0.79596  1.0000
  Fe  Fe138     1.0  0.99991  0.51154  0.79361  1.0000
  H   H1061     1.0  0.00493  0.67212  0.81919  1.0000
  H   H1062     1.0  0.07680  0.48942  0.72204  1.0000
  H   H1063     1.0  0.09311  0.57487  0.93520  1.0000
  H   H1064     1.0  0.18404  0.91421  0.83425  1.0000
  H   H1065     1.0  0.21147  0.64001  0.79349  1.0000
  Fe  Fe139     1.0  0.02631  0.92357  0.80064  1.0000
  H   H1066     1.0  0.02841  0.48527  0.81487  1.0000
  H   H1067     1.0  0.19868  0.78390  0.75852  1.0000
  H   H1068     1.0  0.04420  0.63563  0.80396  1.0000
  H   H1069     1.0  0.19393  0.65059  0.74266  1.0000
  C   C663      1.0  0.08062  0.57593  0.94632  1.0000
  H   H1070     1.0  0.01219  0.70112  0.89716  1.0000
  H   H1071     1.0  0.14004  0.91877  0.79821  1.0000
  C   C664      1.0  0.98624  0.92235  0.74567  1.0000
  H   H1072     1.0  0.06270  0.93621  0.74701  1.0000
  S   S267      1.0  0.07268  0.95051  0.92943  1.0000
  S   S268      1.0  0.01588  0.91186  0.83019  1.0000
  C   C665      1.0  0.98582  0.85569  0.82789  1.0000
  H   H1073     1.0  0.22497  0.74957  0.74768  1.0000
  H   H1074     1.0  0.99115  0.91285  0.75719  1.0000
  C   C666      1.0  0.18347  0.63944  0.77867  1.0000
  C   C667      1.0  0.12802  0.96436  0.92425  1.0000
  Fe  Fe140     1.0  0.98657  0.54547  0.76642  1.0000
  H   H1075     1.0  0.23258  0.78681  0.78359  1.0000
  C   C668      1.0  0.98890  0.83656  0.83310  1.0000
  H   H1076     1.0  0.00177  0.74017  0.85946  1.0000
  H   H1077     1.0  0.19924  0.83906  0.81118  1.0000
  H   H1078     1.0  0.08527  0.54026  0.96203  1.0000
  H   H1079     1.0  0.21361  0.91480  0.84172  1.0000
  C   C669      1.0  0.02621  0.94255  0.74929  1.0000
  C   C670      1.0  0.00012  0.71581  0.83431  1.0000
  H   H1080     1.0  0.21716  0.65115  0.74247  1.0000
  H   H1081     1.0  0.07077  0.56918  0.94328  1.0000
  Fe  Fe141     1.0  0.99153  0.93509  0.82833  1.0000
  H   H1082     1.0  0.07434  0.59074  0.94532  1.0000
  H   H1083     1.0  0.00121  0.82922  0.83817  1.0000
  S   S269      1.0  0.05248  0.51636  0.74150  1.0000
  Fe  Fe142     1.0  0.98886  0.93122  0.79043  1.0000
  C   C671      1.0  0.21363  0.90920  0.83016  1.0000
  C   C672      1.0  0.19691  0.90878  0.82595  1.0000
  Fe  Fe143     1.0  0.00044  0.89739  0.81874  1.0000
  H   H1084     1.0  0.20530  0.84066  0.84846  1.0000
  C   C673      1.0  0.19682  0.90113  0.81125  1.0000
  H   H1085     1.0  0.04807  0.51819  0.84355  1.0000
  S   S270      1.0  0.08927  0.63900  0.95958  1.0000
  C   C674      1.0  0.06208  0.94916  0.95268  1.0000
  C   C675      1.0  0.12432  0.91177  0.83384  1.0000
  C   C676      1.0  0.04914  0.50525  0.72554  1.0000
  H   H1086     1.0  0.03315  0.52975  0.82780  1.0000
  C   C677      1.0  0.17823  0.76071  0.75731  1.0000
  H   H1087     1.0  0.20456  0.82048  0.84120  1.0000
  S   S271      1.0  0.21280  0.95093  0.89210  1.0000
  H   H1088     1.0  0.20889  0.73462  0.75673  1.0000
  H   H1089     1.0  0.01143  0.48015  0.75129  1.0000
  H   H1090     1.0  0.02996  0.62227  0.80023  1.0000
  N   N72       1.0  0.01925  0.51897  0.85484  1.0000
  H   H1091     1.0  0.17934  0.64096  0.79321  1.0000
  H   H1092     1.0  0.02100  0.51910  0.72577  1.0000
  H   H1093     1.0  0.02480  0.49004  0.86582  1.0000
  C   C678      1.0  0.00934  0.73040  0.86973  1.0000
  H   H1094     1.0  0.02158  0.92934  0.72206  1.0000
  H   H1095     1.0  0.98564  0.65251  0.81509  1.0000
  H   H1096     1.0  0.21467  0.85363  0.79774  1.0000
  H   H1097     1.0  0.05669  0.95249  0.72722  1.0000
  H   H1098     1.0  0.17569  0.74668  0.75925  1.0000
  H   H1099     1.0  0.02748  0.63503  0.83544  1.0000
  H   H1100     1.0  0.22226  0.75722  0.79606  1.0000
  H   H1101     1.0  0.21883  0.62325  0.77924  1.0000
  H   H1102     1.0  0.21234  0.76004  0.71934  1.0000
  H   H1103     1.0  0.22679  0.86078  0.82988  1.0000
  C   C679      1.0  0.19981  0.78097  0.74480  1.0000
  H   H1104     1.0  0.01287  0.94950  0.95861  1.0000
  H   H1105     1.0  0.03736  0.48561  0.76155  1.0000
  H   H1106     1.0  0.11898  0.95293  0.96082  1.0000
  N   N73       1.0  0.08520  0.56749  0.96451  1.0000
  C   C680      1.0  0.03498  0.47453  0.77371  1.0000
  S   S272      1.0  0.23087  0.70269  0.74353  1.0000
  H   H1107     1.0  0.98510  0.94679  0.93711  1.0000
  H   H1108     1.0  0.22416  0.82139  0.84956  1.0000
  C   C681      1.0  0.23376  0.82203  0.81337  1.0000
  C   C682      1.0  0.99698  0.93534  0.93943  1.0000
  C   C683      1.0  0.23033  0.90185  0.81973  1.0000
  C   C684      1.0  0.23022  0.89459  0.80480  1.0000
  C   C685      1.0  0.00427  0.47396  0.82808  1.0000
  H   H1109     1.0  0.11087  0.57667  0.95782  1.0000
  H   H1110     1.0  0.22504  0.81269  0.81268  1.0000
  H   H1111     1.0  0.13958  0.95459  0.92991  1.0000
  H   H1112     1.0  0.01519  0.96689  0.88150  1.0000
  H   H1113     1.0  0.99564  0.92404  0.93357  1.0000
  S   S273      1.0  0.23420  0.71858  0.78746  1.0000
  C   C686      1.0  0.35867  0.36172  0.99791  1.0000
  H   H1114     1.0  0.48045  0.46943  0.04984  1.0000
  H   H1115     1.0  0.39423  0.43428  0.12853  1.0000
  H   H1116     1.0  0.44015  0.18982  0.20170  1.0000
  Fe  Fe144     1.0  0.46480  0.39115  0.05932  1.0000
  S   S274      1.0  0.46370  0.41600  0.03645  1.0000
  S   S275      1.0  0.45213  0.36636  0.06396  1.0000
  C   C687      1.0  0.40614  0.45340  0.14649  1.0000
  C   C688      1.0  0.43351  0.00101  0.19048  1.0000
  Fe  Fe145     1.0  0.45930  0.43173  0.05869  1.0000
  C   C689      1.0  0.29579  0.97691  0.12355  1.0000
  S   S276      1.0  0.28695  0.44754  0.14321  1.0000
  S   S277      1.0  0.45762  0.40735  0.08158  1.0000
  S   S278      1.0  0.29920  0.11993  0.17230  1.0000
  Fe  Fe146     1.0  0.28502  0.08993  0.14604  1.0000
  S   S279      1.0  0.31312  0.09706  0.13905  1.0000
  S   S280      1.0  0.27970  0.07542  0.12597  1.0000
  Fe  Fe147     1.0  0.31200  0.09113  0.16923  1.0000
  S   S281      1.0  0.33539  0.07481  0.18336  1.0000
  Fe  Fe148     1.0  0.29795  0.12526  0.14260  1.0000
  S   S282      1.0  0.30812  0.14937  0.12280  1.0000
  S   S283      1.0  0.26993  0.11873  0.14763  1.0000
  Fe  Fe149     1.0  0.26354  0.24855  0.01072  1.0000
  S   S284      1.0  0.28526  0.22370  0.01707  1.0000
  S   S285      1.0  0.28533  0.23868  0.05348  1.0000
  Fe  Fe150     1.0  0.29901  0.24319  0.02381  1.0000
  S   S286      1.0  0.33003  0.23891  0.01560  1.0000
  Fe  Fe151     1.0  0.26972  0.22152  0.04613  1.0000
  C   C690      1.0  0.31447  0.11642  0.21353  1.0000
  S   S287      1.0  0.27825  0.26846  0.01551  1.0000
  Fe  Fe152     1.0  0.43192  0.31607  0.99975  1.0000
  S   S288      1.0  0.45368  0.29055  0.00175  1.0000
  S   S289      1.0  0.43623  0.34477  0.99609  1.0000
  Fe  Fe153     1.0  0.40241  0.29613  0.99992  1.0000
  S   S290      1.0  0.42143  0.26864  0.00175  1.0000
  S   S291      1.0  0.37171  0.30402  0.00173  1.0000
  Fe  Fe154     1.0  0.43180  0.27755  0.02219  1.0000
  S   S292      1.0  0.43623  0.25683  0.04774  1.0000
  C   C691      1.0  0.45524  0.18452  0.19838  1.0000
  S   S293      1.0  0.41112  0.30369  0.02228  1.0000
  C   C692      1.0  0.40852  0.04958  0.16489  1.0000
  H   H1117     1.0  0.37516  0.35249  0.02687  1.0000
  C   C693      1.0  0.37947  0.46168  0.07356  1.0000
  H   H1118     1.0  0.47337  0.30363  0.07104  1.0000
  Fe  Fe155     1.0  0.27232  0.11108  0.17728  1.0000
  H   H1119     1.0  0.32089  0.45948  0.07301  1.0000
  H   H1120     1.0  0.37429  0.06309  0.15890  1.0000
  H   H1121     1.0  0.37750  0.04041  0.18743  1.0000
  H   H1122     1.0  0.37276  0.04518  0.14869  1.0000
  C   C694      1.0  0.45922  0.01550  0.17409  1.0000
  N   N74       1.0  0.28541  0.11952  0.08363  1.0000
  C   C695      1.0  0.39055  0.44942  0.12454  1.0000
  H   H1123     1.0  0.36473  0.06495  0.20320  1.0000
  H   H1124     1.0  0.25399  0.21578  0.00307  1.0000
  H   H1125     1.0  0.37615  0.38326  0.00746  1.0000
  S   S294      1.0  0.24685  0.24485  0.03925  1.0000
  H   H1126     1.0  0.38091  0.38617  0.98293  1.0000
  H   H1127     1.0  0.46340  0.13142  0.15711  1.0000
  H   H1128     1.0  0.25588  0.12496  0.08754  1.0000
  H   H1129     1.0  0.25060  0.41566  0.12220  1.0000
  H   H1130     1.0  0.32594  0.41618  0.10797  1.0000
  C   C696      1.0  0.45572  0.25796  0.05519  1.0000
  C   C697      1.0  0.32141  0.43058  0.10116  1.0000
  N   N75       1.0  0.46082  0.16742  0.21129  1.0000
  H   H1131     1.0  0.29599  0.00510  0.13809  1.0000
  C   C698      1.0  0.26462  0.14227  0.20922  1.0000
  C   C699      1.0  0.46340  0.24319  0.06758  1.0000
  H   H1132     1.0  0.45801  0.28479  0.03904  1.0000
  C   C700      1.0  0.24132  0.04441  0.15281  1.0000
  C   C701      1.0  0.26954  0.45998  0.11386  1.0000
  C   C702      1.0  0.25077  0.33900  0.06133  1.0000
  C   C703      1.0  0.35997  0.28625  0.00444  1.0000
  C   C704      1.0  0.34090  0.28900  0.01113  1.0000
  C   C705      1.0  0.33143  0.27469  0.01426  1.0000
  C   C706      1.0  0.34102  0.25760  0.01059  1.0000
  C   C707      1.0  0.36004  0.25497  0.00361  1.0000
  C   C708      1.0  0.36950  0.26925  0.00056  1.0000
  H   H1133     1.0  0.33343  0.30215  0.01413  1.0000
  H   H1134     1.0  0.31677  0.27681  0.01967  1.0000
  H   H1135     1.0  0.36748  0.24181  0.00061  1.0000
  H   H1136     1.0  0.38413  0.26712  0.99504  1.0000
  C   C709      1.0  0.23696  0.03902  0.13853  1.0000
  C   C710      1.0  0.44861  0.00248  0.17599  1.0000
  C   C711      1.0  0.24038  0.32975  0.07686  1.0000
  H   H1137     1.0  0.26841  0.33693  0.03500  1.0000
  C   C712      1.0  0.29418  0.16362  0.10776  1.0000
  C   C713      1.0  0.27585  0.16231  0.11004  1.0000
  C   C714      1.0  0.26544  0.17270  0.09699  1.0000
  C   C715      1.0  0.27322  0.18470  0.08181  1.0000
  C   C716      1.0  0.29132  0.18657  0.07987  1.0000
  C   C717      1.0  0.30181  0.17598  0.09281  1.0000
  H   H1138     1.0  0.26976  0.15317  0.12176  1.0000
  H   H1139     1.0  0.29743  0.19578  0.06815  1.0000
  H   H1140     1.0  0.31599  0.17708  0.09104  1.0000
  H   H1141     1.0  0.26219  0.24467  0.08832  1.0000
  H   H1142     1.0  0.35451  0.34849  0.99916  1.0000
  H   H1143     1.0  0.38980  0.08037  0.20258  1.0000
  H   H1144     1.0  0.29884  0.10347  0.10545  1.0000
  H   H1145     1.0  0.45384  0.15103  0.19616  1.0000
  C   C718      1.0  0.26565  0.43021  0.13209  1.0000
  H   H1146     1.0  0.42016  0.43326  0.06055  1.0000
  H   H1147     1.0  0.38952  0.05934  0.13776  1.0000
  H   H1148     1.0  0.25732  0.05989  0.16030  1.0000
  C   C719      1.0  0.44747  0.36078  0.04498  1.0000
  C   C720      1.0  0.44014  0.34513  0.04753  1.0000
  C   C721      1.0  0.43699  0.33990  0.03255  1.0000
  C   C722      1.0  0.44068  0.35060  0.01501  1.0000
  C   C723      1.0  0.44765  0.36643  0.01249  1.0000
  C   C724      1.0  0.45124  0.37141  0.02741  1.0000
  H   H1149     1.0  0.43699  0.33697  0.06111  1.0000
  H   H1150     1.0  0.43153  0.32772  0.03463  1.0000
  H   H1151     1.0  0.45051  0.37475  0.99894  1.0000
  H   H1152     1.0  0.45689  0.38347  0.02531  1.0000
  H   H1153     1.0  0.25137  0.17133  0.09859  1.0000
  C   C725      1.0  0.45467  0.02717  0.18656  1.0000
  C   C726      1.0  0.45111  0.15345  0.21034  1.0000
  H   H1154     1.0  0.26803  0.41942  0.14379  1.0000
  H   H1155     1.0  0.30098  0.13409  0.05959  1.0000
  C   C727      1.0  0.32620  0.47179  0.21337  1.0000
  H   H1156     1.0  0.26539  0.22058  0.08934  1.0000
  C   C728      1.0  0.26408  0.99178  0.12329  1.0000
  C   C729      1.0  0.26275  0.06191  0.13116  1.0000
  H   H1157     1.0  0.30173  0.10080  0.06648  1.0000
  H   H1158     1.0  0.27750  0.99395  0.15145  1.0000
  C   C730      1.0  0.26038  0.32982  0.04708  1.0000
  Fe  Fe156     1.0  0.44198  0.28345  0.98109  1.0000
  Fe  Fe157     1.0  0.23547  0.37715  0.08177  1.0000
  C   C731      1.0  0.35370  0.10355  0.17196  1.0000
  C   C732      1.0  0.43942  0.02586  0.20090  1.0000
  C   C733      1.0  0.29955  0.11610  0.09474  1.0000
  H   H1159     1.0  0.26394  0.98526  0.11197  1.0000
  H   H1160     1.0  0.36851  0.12568  0.16314  1.0000
  H   H1161     1.0  0.38570  0.33704  0.98276  1.0000
  C   C734      1.0  0.37985  0.08681  0.19396  1.0000
  H   H1162     1.0  0.45872  0.18230  0.18405  1.0000
  H   H1163     1.0  0.34376  0.11007  0.16331  1.0000
  S   S295      1.0  0.43453  0.11452  0.21050  1.0000
  C   C735      1.0  0.42253  0.45190  0.11560  1.0000
  C   C736      1.0  0.42885  0.01277  0.20287  1.0000
  H   H1164     1.0  0.31369  0.11446  0.08623  1.0000
  H   H1165     1.0  0.35836  0.25139  0.04095  1.0000
  C   C737      1.0  0.36568  0.07808  0.19423  1.0000
  C   C738      1.0  0.25840  0.05654  0.11684  1.0000
  C   C739      1.0  0.25966  0.31147  0.04836  1.0000
  C   C740      1.0  0.47433  0.13908  0.15286  1.0000
  H   H1166     1.0  0.33932  0.40973  0.07664  1.0000
  Fe  Fe158     1.0  0.42346  0.10079  0.19419  1.0000
  S   S296      1.0  0.26011  0.19677  0.06529  1.0000
  C   C741      1.0  0.39170  0.44619  0.06828  1.0000
  H   H1167     1.0  0.40085  0.05998  0.17326  1.0000
  H   H1168     1.0  0.24493  0.98101  0.97265  1.0000
  C   C742      1.0  0.25311  0.44175  0.10441  1.0000
  C   C743      1.0  0.38097  0.10397  0.18269  1.0000
  H   H1169     1.0  0.28637  0.14808  0.07494  1.0000
  S   S297      1.0  0.35569  0.46247  0.07810  1.0000
  C   C744      1.0  0.24757  0.21824  0.99143  1.0000
  C   C745      1.0  0.31033  0.45110  0.07516  1.0000
  H   H1170     1.0  0.45696  0.23142  0.07304  1.0000
  C   C746      1.0  0.28783  0.10355  0.07529  1.0000
  H   H1171     1.0  0.26500  0.11024  0.10662  1.0000
  C   C747      1.0  0.25405  0.05590  0.14916  1.0000
  H   H1172     1.0  0.41908  0.04029  0.17233  1.0000
  H   H1173     1.0  0.41492  0.03174  0.13753  1.0000
  H   H1174     1.0  0.30666  0.45251  0.06172  1.0000
  H   H1175     1.0  0.38645  0.43476  0.06730  1.0000
  C   C748      1.0  0.28219  0.00284  0.13812  1.0000
  H   H1176     1.0  0.28889  0.00134  0.09316  1.0000
  C   C749      1.0  0.38910  0.35053  0.98178  1.0000
  C   C750      1.0  0.38377  0.37656  0.99578  1.0000
  C   C751      1.0  0.30259  0.42119  0.08575  1.0000
  H   H1177     1.0  0.46253  0.32346  0.08082  1.0000
  C   C752      1.0  0.38280  0.34660  0.01468  1.0000
  H   H1178     1.0  0.30275  0.08831  0.20817  1.0000
  H   H1179     1.0  0.30927  0.43670  0.11062  1.0000
  H   H1180     1.0  0.30244  0.00963  0.10413  1.0000
  S   S298      1.0  0.24884  0.11770  0.20075  1.0000
  H   H1181     1.0  0.27650  0.13949  0.06084  1.0000
  H   H1182     1.0  0.23510  0.22409  0.08208  1.0000
  H   H1183     1.0  0.29833  0.42226  0.07266  1.0000
  H   H1184     1.0  0.41700  0.01532  0.15838  1.0000
  H   H1185     1.0  0.35493  0.37091  0.98518  1.0000
  S   S299      1.0  0.46856  0.07862  0.21212  1.0000
  H   H1186     1.0  0.27885  0.02061  0.10402  1.0000
  C   C753      1.0  0.41077  0.44534  0.06442  1.0000
  H   H1187     1.0  0.47100  0.01655  0.16295  1.0000
  H   H1188     1.0  0.26713  0.30448  0.03735  1.0000
  H   H1189     1.0  0.29004  0.42626  0.09543  1.0000
  N   N76       1.0  0.38237  0.24724  0.05233  1.0000
  C   C754      1.0  0.39491  0.23786  0.03802  1.0000
  C   C755      1.0  0.38303  0.26691  0.04737  1.0000
  C   C756      1.0  0.38824  0.23921  0.07001  1.0000
  C   C757      1.0  0.36336  0.24502  0.05391  1.0000
  H   H1190     1.0  0.40937  0.23929  0.03651  1.0000
  H   H1191     1.0  0.39095  0.24360  0.02447  1.0000
  H   H1192     1.0  0.39472  0.22300  0.04126  1.0000
  H   H1193     1.0  0.37348  0.27451  0.05767  1.0000
  H   H1194     1.0  0.39710  0.26908  0.04639  1.0000
  H   H1195     1.0  0.37909  0.27335  0.03391  1.0000
  H   H1196     1.0  0.37919  0.24603  0.08113  1.0000
  H   H1197     1.0  0.40258  0.24065  0.06919  1.0000
  H   H1198     1.0  0.38790  0.22436  0.07419  1.0000
  H   H1199     1.0  0.35356  0.25159  0.06484  1.0000
  H   H1200     1.0  0.36239  0.23035  0.05706  1.0000
  C   C758      1.0  0.28849  0.00710  0.10518  1.0000
  C   C759      1.0  0.38620  0.03031  0.17916  1.0000
  H   H1201     1.0  0.38899  0.45280  0.11002  1.0000
  C   C760      1.0  0.27285  0.44603  0.12892  1.0000
  H   H1202     1.0  0.37899  0.33314  0.01645  1.0000
  C   C761      1.0  0.28739  0.13598  0.06909  1.0000
  S   S300      1.0  0.42056  0.98431  0.19362  1.0000
  C   C762      1.0  0.35267  0.08635  0.18312  1.0000
  H   H1203     1.0  0.41598  0.05689  0.15189  1.0000
  H   H1204     1.0  0.33093  0.42485  0.05724  1.0000
  S   S301      1.0  0.45077  0.09452  0.17525  1.0000
  S   S302      1.0  0.24764  0.27936  0.06617  1.0000
  S   S303      1.0  0.44140  0.45953  0.06063  1.0000
  H   H1205     1.0  0.30332  0.12785  0.20922  1.0000
  S   S304      1.0  0.28512  0.08159  0.17619  1.0000
  Fe  Fe159     1.0  0.46216  0.10567  0.19336  1.0000
  S   S305      1.0  0.46878  0.04257  0.18446  1.0000
  C   C763      1.0  0.25959  0.23150  0.09747  1.0000
  H   H1206     1.0  0.24215  0.04126  0.10937  1.0000
  C   C764      1.0  0.23548  0.23895  0.96601  1.0000
  C   C765      1.0  0.24394  0.23591  0.98101  1.0000
  Fe  Fe160     1.0  0.26333  0.26241  0.04487  1.0000
  H   H1207     1.0  0.29787  0.45729  0.08422  1.0000
  H   H1208     1.0  0.46236  0.19538  0.19866  1.0000
  C   C766      1.0  0.38260  0.05230  0.15123  1.0000
  H   H1209     1.0  0.31003  0.97856  0.12267  1.0000
  H   H1210     1.0  0.28626  0.09097  0.08600  1.0000
  H   H1211     1.0  0.41029  0.43836  0.15109  1.0000
  N   N77       1.0  0.23974  0.23233  0.10498  1.0000
  N   N78       1.0  0.40456  0.45826  0.12705  1.0000
  C   C767      1.0  0.26691  0.12238  0.09544  1.0000
  H   H1212     1.0  0.24231  0.20321  0.11047  1.0000
  C   C768      1.0  0.24544  0.04527  0.12048  1.0000
  H   H1213     1.0  0.39877  0.37465  0.99552  1.0000
  Fe  Fe161     1.0  0.45479  0.06806  0.19559  1.0000
  S   S306      1.0  0.24904  0.38485  0.10065  1.0000
  H   H1214     1.0  0.43596  0.15750  0.21479  1.0000
  N   N79       1.0  0.39608  0.03942  0.16151  1.0000
  C   C769      1.0  0.25978  0.45781  0.10160  1.0000
  C   C770      1.0  0.40696  0.02546  0.15080  1.0000
  H   H1215     1.0  0.47799  0.46364  0.97465  1.0000
  S   S307      1.0  0.25119  0.36226  0.05888  1.0000
  Fe  Fe162     1.0  0.30613  0.46756  0.13172  1.0000
  H   H1216     1.0  0.41651  0.45994  0.14890  1.0000
  H   H1217     1.0  0.24583  0.19006  0.99494  1.0000
  S   S308      1.0  0.33648  0.45662  0.12866  1.0000
  H   H1218     1.0  0.24443  0.21204  0.12911  1.0000
  S   S309      1.0  0.39842  0.11550  0.18203  1.0000
  H   H1219     1.0  0.29777  0.12751  0.10183  1.0000
  H   H1220     1.0  0.39802  0.01764  0.14783  1.0000
  H   H1221     1.0  0.26505  0.06115  0.10287  1.0000
  H   H1222     1.0  0.37681  0.45398  0.13297  1.0000
  H   H1223     1.0  0.26458  0.13420  0.10207  1.0000
  H   H1224     1.0  0.46397  0.25074  0.01399  1.0000
  H   H1225     1.0  0.47381  0.32617  0.05725  1.0000
  H   H1226     1.0  0.25394  0.00493  0.12211  1.0000
  H   H1227     1.0  0.26755  0.22861  0.10847  1.0000
  H   H1228     1.0  0.37703  0.02216  0.17710  1.0000
  N   N80       1.0  0.28265  0.99464  0.12255  1.0000
  C   C771      1.0  0.47471  0.31765  0.07111  1.0000
  H   H1229     1.0  0.46980  0.45980  0.02613  1.0000
  C   C772      1.0  0.24292  0.20370  0.98680  1.0000
  C   C773      1.0  0.36776  0.11236  0.17183  1.0000
  H   H1230     1.0  0.41722  0.01158  0.21415  1.0000
  H   H1231     1.0  0.43346  0.45828  0.11711  1.0000
  H   H1232     1.0  0.40419  0.34829  0.98100  1.0000
  H   H1233     1.0  0.33255  0.43803  0.09975  1.0000
  S   S310      1.0  0.25012  0.25433  0.98617  1.0000
  H   H1234     1.0  0.34483  0.43207  0.06867  1.0000
  N   N81       1.0  0.31702  0.43176  0.08323  1.0000
  C   C774      1.0  0.24923  0.30226  0.06390  1.0000
  H   H1235     1.0  0.39593  0.02078  0.18749  1.0000
  N   N82       1.0  0.37856  0.35889  0.99753  1.0000
  C   C775      1.0  0.47629  0.15111  0.13580  1.0000
  H   H1236     1.0  0.30722  0.40646  0.09148  1.0000
  S   S311      1.0  0.42668  0.07350  0.21345  1.0000
  H   H1237     1.0  0.45217  0.99354  0.16628  1.0000
  H   H1238     1.0  0.38615  0.35933  0.96860  1.0000
  C   C776      1.0  0.25578  0.42806  0.11987  1.0000
  H   H1239     1.0  0.27369  0.14232  0.19602  1.0000
  C   C777      1.0  0.46405  0.27318  0.04833  1.0000
  C   C778      1.0  0.33376  0.42423  0.07087  1.0000
  H   H1240     1.0  0.46688  0.15260  0.12689  1.0000
  H   H1241     1.0  0.35023  0.36786  0.00972  1.0000
  H   H1242     1.0  0.27255  0.01631  0.13767  1.0000
  H   H1243     1.0  0.42712  0.43680  0.11923  1.0000
  S   S312      1.0  0.42203  0.31018  0.97718  1.0000
  C   C779      1.0  0.23701  0.21491  0.11767  1.0000
  H   H1244     1.0  0.47008  0.22983  0.02958  1.0000
  H   H1245     1.0  0.39281  0.45797  0.15553  1.0000
  C   C780      1.0  0.47265  0.23678  0.01491  1.0000
  H   H1246     1.0  0.42189  0.45535  0.10085  1.0000
  C   C781      1.0  0.25071  0.13211  0.21452  1.0000
  H   H1247     1.0  0.32259  0.11120  0.20109  1.0000
  H   H1248     1.0  0.27744  0.10568  0.06673  1.0000
  H   H1249     1.0  0.46758  0.22945  0.00702  1.0000
  C   C782      1.0  0.47958  0.24347  0.07285  1.0000
  H   H1250     1.0  0.25889  0.98292  0.13644  1.0000
  C   C783      1.0  0.41762  0.46024  0.06526  1.0000
  H   H1251     1.0  0.39774  0.34407  0.01480  1.0000
  H   H1252     1.0  0.25756  0.46851  0.08978  1.0000
  H   H1253     1.0  0.48177  0.99652  0.20474  1.0000
  C   C784      1.0  0.23959  0.31146  0.07811  1.0000
  H   H1254     1.0  0.31439  0.47077  0.20795  1.0000
  H   H1255     1.0  0.23970  0.24593  0.12618  1.0000
  H   H1256     1.0  0.48298  0.43823  0.00124  1.0000
  C   C785      1.0  0.48029  0.27342  0.05351  1.0000
  H   H1257     1.0  0.23487  0.03959  0.16682  1.0000
  C   C786      1.0  0.48090  0.16086  0.20622  1.0000
  S   S313      1.0  0.24290  0.43860  0.08764  1.0000
  H   H1258     1.0  0.43604  0.03463  0.21072  1.0000
  S   S314      1.0  0.48405  0.12267  0.18608  1.0000
  H   H1259     1.0  0.48065  0.34147  0.08804  1.0000
  C   C787      1.0  0.23470  0.20667  0.97169  1.0000
  H   H1260     1.0  0.48160  0.30903  0.10494  1.0000
  S   S315      1.0  0.39119  0.31651  0.43732  1.0000
  S   S316      1.0  0.46350  0.15822  0.32256  1.0000
  H   H1261     1.0  0.46229  0.10576  0.23652  1.0000
  Fe  Fe163     1.0  0.44022  0.08669  0.22818  1.0000
  H   H1262     1.0  0.44101  0.17572  0.23446  1.0000
  S   S317      1.0  0.43599  0.08405  0.25872  1.0000
  C   C788      1.0  0.46382  0.12375  0.27214  1.0000
  C   C789      1.0  0.23692  0.39249  0.25229  1.0000
  S   S318      1.0  0.25872  0.46033  0.30950  1.0000
  C   C790      1.0  0.25514  0.15256  0.23826  1.0000
  H   H1263     1.0  0.24136  0.40419  0.41324  1.0000
  H   H1264     1.0  0.44918  0.16484  0.36366  1.0000
  C   C791      1.0  0.45606  0.17087  0.23012  1.0000
  C   C792      1.0  0.24567  0.43452  0.42120  1.0000
  Fe  Fe164     1.0  0.30274  0.19790  0.39378  1.0000
  S   S319      1.0  0.32886  0.17791  0.39816  1.0000
  S   S320      1.0  0.28117  0.18598  0.38789  1.0000
  Fe  Fe165     1.0  0.31519  0.22830  0.40389  1.0000
  S   S321      1.0  0.34221  0.21052  0.40884  1.0000
  S   S322      1.0  0.30679  0.25655  0.41055  1.0000
  Fe  Fe166     1.0  0.34283  0.20125  0.38327  1.0000
  S   S323      1.0  0.36685  0.19933  0.35950  1.0000
  Fe  Fe167     1.0  0.32545  0.18906  0.42328  1.0000
  S   S324      1.0  0.33018  0.17028  0.45000  1.0000
  S   S325      1.0  0.31688  0.22072  0.37705  1.0000
  S   S326      1.0  0.29830  0.20738  0.42006  1.0000
  C   C793      1.0  0.32228  0.08706  0.23303  1.0000
  H   H1265     1.0  0.45874  0.43197  0.36160  1.0000
  S   S327      1.0  0.47386  0.36269  0.45193  1.0000
  H   H1266     1.0  0.31533  0.35152  0.36497  1.0000
  H   H1267     1.0  0.42096  0.34334  0.44337  1.0000
  H   H1268     1.0  0.31740  0.18698  0.36051  1.0000
  H   H1269     1.0  0.33727  0.31542  0.35549  1.0000
  S   S328      1.0  0.25433  0.21289  0.31255  1.0000
  H   H1270     1.0  0.23552  0.39925  0.26390  1.0000
  H   H1271     1.0  0.26515  0.39493  0.40608  1.0000
  H   H1272     1.0  0.30520  0.22713  0.46451  1.0000
  Fe  Fe168     1.0  0.28657  0.44229  0.30947  1.0000
  S   S329      1.0  0.28560  0.44061  0.33915  1.0000
  S   S330      1.0  0.31206  0.44825  0.28879  1.0000
  Fe  Fe169     1.0  0.27314  0.41597  0.34406  1.0000
  S   S331      1.0  0.27924  0.39014  0.36514  1.0000
  S   S332      1.0  0.27654  0.41612  0.31420  1.0000
  C   C794      1.0  0.32379  0.38649  0.39632  1.0000
  C   C795      1.0  0.30892  0.40071  0.37042  1.0000
  C   C796      1.0  0.29697  0.38841  0.37650  1.0000
  C   C797      1.0  0.29868  0.37492  0.39234  1.0000
  C   C798      1.0  0.31197  0.37407  0.40235  1.0000
  H   H1273     1.0  0.30801  0.41085  0.35801  1.0000
  H   H1274     1.0  0.28943  0.36538  0.39710  1.0000
  H   H1275     1.0  0.31291  0.36399  0.41488  1.0000
  H   H1276     1.0  0.30932  0.16738  0.35965  1.0000
  H   H1277     1.0  0.46821  0.39185  0.37803  1.0000
  H   H1278     1.0  0.33336  0.34922  0.34520  1.0000
  C   C799      1.0  0.47580  0.30808  0.42269  1.0000
  H   H1279     1.0  0.34446  0.46387  0.27661  1.0000
  C   C800      1.0  0.29499  0.09431  0.22027  1.0000
  N   N83       1.0  0.33386  0.22811  0.45995  1.0000
  C   C801      1.0  0.32486  0.26711  0.41002  1.0000
  C   C802      1.0  0.32140  0.28181  0.41891  1.0000
  C   C803      1.0  0.33582  0.29006  0.41901  1.0000
  C   C804      1.0  0.35369  0.28377  0.40995  1.0000
  C   C805      1.0  0.35707  0.26914  0.40103  1.0000
  C   C806      1.0  0.34273  0.26082  0.40106  1.0000
  H   H1280     1.0  0.30756  0.28671  0.42586  1.0000
  H   H1281     1.0  0.33310  0.30128  0.42602  1.0000
  H   H1282     1.0  0.37085  0.26432  0.39388  1.0000
  H   H1283     1.0  0.34548  0.24970  0.39394  1.0000
  C   C807      1.0  0.27362  0.19382  0.36702  1.0000
  C   C808      1.0  0.26334  0.18363  0.36225  1.0000
  C   C809      1.0  0.25735  0.18933  0.34554  1.0000
  C   C810      1.0  0.26155  0.20532  0.33359  1.0000
  C   C811      1.0  0.27178  0.21555  0.33838  1.0000
  C   C812      1.0  0.27785  0.20979  0.35505  1.0000
  H   H1284     1.0  0.32374  0.12226  0.21854  1.0000
  C   C813      1.0  0.36067  0.33219  0.36330  1.0000
  H   H1285     1.0  0.27506  0.22794  0.32916  1.0000
  H   H1286     1.0  0.28565  0.21778  0.35871  1.0000
  H   H1287     1.0  0.47095  0.44062  0.39340  1.0000
  H   H1288     1.0  0.47327  0.29772  0.43551  1.0000
  C   C814      1.0  0.23637  0.39490  0.30859  1.0000
  H   H1289     1.0  0.44874  0.11688  0.29972  1.0000
  C   C815      1.0  0.47404  0.97575  0.37731  1.0000
  H   H1290     1.0  0.48345  0.08377  0.27566  1.0000
  S   S333      1.0  0.43477  0.13366  0.36829  1.0000
  H   H1291     1.0  0.25642  0.39764  0.42937  1.0000
  Fe  Fe170     1.0  0.25688  0.45677  0.33964  1.0000
  H   H1292     1.0  0.33096  0.45821  0.22181  1.0000
  H   H1293     1.0  0.42524  0.16115  0.33688  1.0000
  S   S334      1.0  0.42512  0.34820  0.40417  1.0000
  H   H1294     1.0  0.45564  0.98135  0.21790  1.0000
  S   S335      1.0  0.24274  0.16625  0.30567  1.0000
  H   H1295     1.0  0.25329  0.25512  0.29836  1.0000
  H   H1296     1.0  0.35228  0.18658  0.31725  1.0000
  N   N84       1.0  0.34069  0.33383  0.37071  1.0000
  H   H1297     1.0  0.42036  0.18707  0.37195  1.0000
  C   C816      1.0  0.31614  0.23293  0.45382  1.0000
  H   H1298     1.0  0.45945  0.19632  0.33353  1.0000
  H   H1299     1.0  0.24947  0.18139  0.34191  1.0000
  N   N85       1.0  0.30694  0.10179  0.22767  1.0000
  H   H1300     1.0  0.45177  0.21982  0.36243  1.0000
  Fe  Fe171     1.0  0.37018  0.31865  0.42074  1.0000
  C   C817      1.0  0.46031  0.35878  0.43860  1.0000
  C   C818      1.0  0.43818  0.35262  0.41762  1.0000
  H   H1301     1.0  0.45817  0.36204  0.39428  1.0000
  H   H1302     1.0  0.46012  0.20160  0.37995  1.0000
  H   H1303     1.0  0.34334  0.25208  0.44300  1.0000
  C   C819      1.0  0.40116  0.15404  0.38065  1.0000
  C   C820      1.0  0.38603  0.16862  0.37894  1.0000
  C   C821      1.0  0.38527  0.18067  0.36212  1.0000
  C   C822      1.0  0.39953  0.17798  0.34701  1.0000
  H   H1304     1.0  0.40179  0.14481  0.39373  1.0000
  H   H1305     1.0  0.37505  0.17057  0.39067  1.0000
  H   H1306     1.0  0.24770  0.27143  0.31305  1.0000
  C   C823      1.0  0.44695  0.09905  0.26397  1.0000
  C   C824      1.0  0.44351  0.10191  0.28191  1.0000
  H   H1307     1.0  0.43401  0.09486  0.29254  1.0000
  C   C825      1.0  0.32221  0.39984  0.38039  1.0000
  H   H1308     1.0  0.34966  0.23256  0.43250  1.0000
  H   H1309     1.0  0.31172  0.20209  0.32935  1.0000
  S   S336      1.0  0.37653  0.36046  0.43664  1.0000
  C   C826      1.0  0.46525  0.36253  0.41953  1.0000
  H   H1310     1.0  0.28344  0.10507  0.21578  1.0000
  C   C827      1.0  0.34028  0.20805  0.46318  1.0000
  S   S337      1.0  0.37212  0.29421  0.40852  1.0000
  N   N86       1.0  0.44739  0.19337  0.36224  1.0000
  H   H1311     1.0  0.47048  0.30455  0.41208  1.0000
  H   H1312     1.0  0.43886  0.21285  0.33903  1.0000
  H   H1313     1.0  0.44259  0.41836  0.37592  1.0000
  H   H1314     1.0  0.36427  0.33040  0.34886  1.0000
  S   S338      1.0  0.34692  0.33444  0.43856  1.0000
  H   H1315     1.0  0.36128  0.23343  0.44971  1.0000
  C   C828      1.0  0.33489  0.15817  0.33070  1.0000
  C   C829      1.0  0.47709  0.40089  0.37894  1.0000
  H   H1316     1.0  0.47092  0.17169  0.35832  1.0000
  C   C830      1.0  0.43321  0.34885  0.43671  1.0000
  C   C831      1.0  0.33488  0.31720  0.36984  1.0000
  H   H1317     1.0  0.33186  0.16471  0.36414  1.0000
  H   H1318     1.0  0.46527  0.98515  0.36791  1.0000
  C   C832      1.0  0.26691  0.15233  0.22110  1.0000
  C   C833      1.0  0.25542  0.40403  0.41492  1.0000
  H   H1319     1.0  0.33133  0.40951  0.37574  1.0000
  H   H1320     1.0  0.34100  0.34829  0.39105  1.0000
  Fe  Fe172     1.0  0.35650  0.35945  0.42023  1.0000
  H   H1321     1.0  0.42125  0.21032  0.37100  1.0000
  C   C834      1.0  0.45925  0.10817  0.25030  1.0000
  H   H1322     1.0  0.34094  0.15949  0.31582  1.0000
  C   C835      1.0  0.42884  0.19595  0.37402  1.0000
  H   H1323     1.0  0.32188  0.33688  0.39616  1.0000
  C   C836      1.0  0.34592  0.18445  0.33208  1.0000
  C   C837      1.0  0.34765  0.23691  0.44570  1.0000
  H   H1324     1.0  0.31735  0.22764  0.44130  1.0000
  S   S339      1.0  0.24408  0.43200  0.34704  1.0000
  C   C838      1.0  0.45424  0.35937  0.40905  1.0000
  H   H1325     1.0  0.47570  0.08272  0.30883  1.0000
  C   C839      1.0  0.33048  0.35005  0.35989  1.0000
  H   H1326     1.0  0.46319  0.18131  0.23137  1.0000
  H   H1327     1.0  0.28168  0.43559  0.40875  1.0000
  H   H1328     1.0  0.24706  0.42013  0.22548  1.0000
  H   H1329     1.0  0.26006  0.17126  0.37149  1.0000
  H   H1330     1.0  0.36874  0.32022  0.37143  1.0000
  Fe  Fe173     1.0  0.39705  0.34275  0.41885  1.0000
  S   S340      1.0  0.26034  0.16312  0.25367  1.0000
  C   C840      1.0  0.32171  0.17367  0.35595  1.0000
  H   H1331     1.0  0.27801  0.15979  0.21708  1.0000
  H   H1332     1.0  0.32084  0.19007  0.31085  1.0000
  C   C841      1.0  0.45190  0.11430  0.28600  1.0000
  C   C842      1.0  0.41455  0.16334  0.34870  1.0000
  H   H1333     1.0  0.47954  0.97737  0.23633  1.0000
  C   C843      1.0  0.29608  0.10936  0.24383  1.0000
  H   H1334     1.0  0.46015  0.15825  0.24019  1.0000
  N   N87       1.0  0.32954  0.17614  0.33613  1.0000
  H   H1335     1.0  0.34237  0.19799  0.33616  1.0000
  Fe  Fe174     1.0  0.46023  0.13446  0.34596  1.0000
  H   H1336     1.0  0.28885  0.08341  0.23061  1.0000
  Fe  Fe175     1.0  0.24838  0.43404  0.31672  1.0000
  S   S341      1.0  0.33966  0.38655  0.40914  1.0000
  H   H1337     1.0  0.34445  0.32410  0.39842  1.0000
  C   C844      1.0  0.45670  0.17404  0.36657  1.0000
  H   H1338     1.0  0.39891  0.18717  0.33392  1.0000
  C   C845      1.0  0.23856  0.13280  0.23145  1.0000
  H   H1339     1.0  0.45769  0.16959  0.38124  1.0000
  H   H1340     1.0  0.28413  0.12018  0.24033  1.0000
  C   C846      1.0  0.33677  0.33588  0.38993  1.0000
  S   S342      1.0  0.47405  0.13992  0.27642  1.0000
  C   C847      1.0  0.41553  0.15145  0.36557  1.0000
  H   H1341     1.0  0.32000  0.31769  0.37589  1.0000
  N   N88       1.0  0.25950  0.42263  0.40980  1.0000
  H   H1342     1.0  0.33420  0.36289  0.36066  1.0000
  C   C848      1.0  0.44440  0.35178  0.44718  1.0000
  H   H1343     1.0  0.47756  0.36784  0.41288  1.0000
  H   H1344     1.0  0.33055  0.08095  0.22113  1.0000
  C   C849      1.0  0.45837  0.20511  0.36549  1.0000
  C   C850      1.0  0.27805  0.42183  0.41273  1.0000
  H   H1345     1.0  0.24777  0.44889  0.41718  1.0000
  H   H1346     1.0  0.24394  0.39278  0.21603  1.0000
  C   C851      1.0  0.45706  0.41015  0.40604  1.0000
  C   C852      1.0  0.31564  0.18827  0.32590  1.0000
  H   H1347     1.0  0.28876  0.41281  0.40447  1.0000
  H   H1348     1.0  0.44387  0.43919  0.38164  1.0000
  H   H1349     1.0  0.24246  0.24901  0.32184  1.0000
  H   H1350     1.0  0.46731  0.32144  0.42546  1.0000
  H   H1351     1.0  0.45568  0.14005  0.21917  1.0000
  H   H1352     1.0  0.25183  0.38923  0.24620  1.0000
  H   H1353     1.0  0.34227  0.20271  0.45052  1.0000
  H   H1354     1.0  0.34533  0.14870  0.33827  1.0000
  H   H1355     1.0  0.46709  0.97732  0.39152  1.0000
  H   H1356     1.0  0.30280  0.18275  0.32917  1.0000
  N   N89       1.0  0.46620  0.41671  0.38702  1.0000
  C   C853      1.0  0.24281  0.26045  0.30969  1.0000
  H   H1357     1.0  0.26088  0.44448  0.38603  1.0000
  C   C854      1.0  0.46773  0.12037  0.25441  1.0000
  H   H1358     1.0  0.48356  0.00878  0.36474  1.0000
  C   C855      1.0  0.47851  0.42876  0.38696  1.0000
  H   H1359     1.0  0.47242  0.20343  0.35665  1.0000
  H   H1360     1.0  0.32281  0.15155  0.33362  1.0000
  S   S343      1.0  0.47146  0.11332  0.32839  1.0000
  H   H1361     1.0  0.29047  0.09865  0.25493  1.0000
  H   H1362     1.0  0.29978  0.20019  0.45659  1.0000
  H   H1363     1.0  0.31717  0.07582  0.24377  1.0000
  Fe  Fe176     1.0  0.36864  0.33434  0.45372  1.0000
  C   C856      1.0  0.44571  0.19831  0.34282  1.0000
  H   H1364     1.0  0.42954  0.19239  0.38878  1.0000
  H   H1365     1.0  0.44780  0.40085  0.40662  1.0000
  H   H1366     1.0  0.24766  0.39626  0.31386  1.0000
  H   H1367     1.0  0.33180  0.09227  0.23836  1.0000
  H   H1368     1.0  0.30448  0.11565  0.24947  1.0000
  H   H1369     1.0  0.27914  0.41627  0.42730  1.0000
  H   H1370     1.0  0.31044  0.46894  0.24907  1.0000
  H   H1371     1.0  0.47746  0.12709  0.24382  1.0000
  H   H1372     1.0  0.35665  0.17573  0.33971  1.0000
  H   H1373     1.0  0.44864  0.42171  0.41256  1.0000
  H   H1374     1.0  0.43746  0.18976  0.33989  1.0000
  Fe  Fe177     1.0  0.23798  0.19644  0.30459  1.0000
  Fe  Fe178     1.0  0.47699  0.13704  0.30552  1.0000
  H   H1375     1.0  0.36548  0.34456  0.36371  1.0000
  C   C857      1.0  0.45220  0.42701  0.37608  1.0000
  H   H1376     1.0  0.34265  0.30470  0.37754  1.0000
  S   S344      1.0  0.37770  0.34377  0.40101  1.0000
  C   C858      1.0  0.24072  0.14304  0.24330  1.0000
  S   S345      1.0  0.23635  0.20432  0.27495  1.0000
  H   H1377     1.0  0.46731  0.40243  0.41467  1.0000
  C   C859      1.0  0.31501  0.47082  0.28513  1.0000
  H   H1378     1.0  0.44094  0.34826  0.46192  1.0000
  H   H1379     1.0  0.24473  0.36562  0.31158  1.0000
  H   H1380     1.0  0.31126  0.24801  0.45041  1.0000
  Fe  Fe179     1.0  0.23891  0.17435  0.27641  1.0000
  H   H1381     1.0  0.26968  0.42198  0.38126  1.0000
  H   H1382     1.0  0.24542  0.42980  0.38738  1.0000
  H   H1383     1.0  0.24620  0.42964  0.43596  1.0000
  C   C860      1.0  0.25883  0.43010  0.39029  1.0000
  H   H1384     1.0  0.23502  0.27852  0.27652  1.0000
  C   C861      1.0  0.23467  0.37755  0.30731  1.0000
  H   H1385     1.0  0.27927  0.37133  0.65573  1.0000
  H   H1386     1.0  0.34362  0.46315  0.57725  1.0000
  H   H1387     1.0  0.30481  0.02653  0.56510  1.0000
  S   S346      1.0  0.33595  0.00026  0.62946  1.0000
  C   C862      1.0  0.38337  0.97627  0.63619  1.0000
  Fe  Fe180     1.0  0.30716  0.99972  0.62806  1.0000
  S   S347      1.0  0.28383  0.02376  0.62339  1.0000
  S   S348      1.0  0.36935  0.97672  0.59118  1.0000
  H   H1388     1.0  0.28845  0.23703  0.70718  1.0000
  H   H1389     1.0  0.29353  0.38135  0.62292  1.0000
  H   H1390     1.0  0.33859  0.46702  0.61720  1.0000
  Fe  Fe181     1.0  0.43430  0.43476  0.65212  1.0000
  H   H1391     1.0  0.39376  0.36716  0.52206  1.0000
  S   S349      1.0  0.40860  0.42815  0.64785  1.0000
  H   H1392     1.0  0.34139  0.43965  0.58291  1.0000
  C   C863      1.0  0.29175  0.44426  0.56759  1.0000
  C   C864      1.0  0.28396  0.01081  0.55239  1.0000
  N   N90       1.0  0.41306  0.37242  0.49671  1.0000
  S   S350      1.0  0.45574  0.41315  0.66493  1.0000
  Fe  Fe182     1.0  0.29567  0.23473  0.66652  1.0000
  S   S351      1.0  0.30434  0.24720  0.63678  1.0000
  S   S352      1.0  0.31818  0.21898  0.68189  1.0000
  Fe  Fe183     1.0  0.25513  0.24666  0.66556  1.0000
  S   S353      1.0  0.26045  0.25998  0.63594  1.0000
  Fe  Fe184     1.0  0.28239  0.23518  0.63226  1.0000
  S   S354      1.0  0.28571  0.22531  0.60616  1.0000
  Fe  Fe185     1.0  0.28178  0.27098  0.64282  1.0000
  S   S355      1.0  0.28226  0.30046  0.62935  1.0000
  S   S356      1.0  0.27548  0.22069  0.66144  1.0000
  S   S357      1.0  0.27475  0.25966  0.67300  1.0000
  S   S358      1.0  0.30234  0.97948  0.65464  1.0000
  S   S359      1.0  0.27979  0.14543  0.56336  1.0000
  H   H1393     1.0  0.24490  0.22468  0.62916  1.0000
  H   H1394     1.0  0.31249  0.00206  0.56939  1.0000
  S   S360      1.0  0.25719  0.13265  0.53913  1.0000
  H   H1395     1.0  0.37652  0.45386  0.57879  1.0000
  Fe  Fe186     1.0  0.27211  0.11946  0.56230  1.0000
  S   S361      1.0  0.29509  0.09452  0.56239  1.0000
  Fe  Fe187     1.0  0.26231  0.15890  0.54242  1.0000
  S   S362      1.0  0.26654  0.18245  0.51875  1.0000
  C   C865      1.0  0.27685  0.45613  0.59504  1.0000
  H   H1396     1.0  0.39274  0.35937  0.49340  1.0000
  Fe  Fe188     1.0  0.38015  0.38629  0.58085  1.0000
  S   S363      1.0  0.35880  0.40729  0.56767  1.0000
  S   S364      1.0  0.40609  0.39515  0.58108  1.0000
  Fe  Fe189     1.0  0.35777  0.35640  0.58888  1.0000
  S   S365      1.0  0.33457  0.37518  0.57648  1.0000
  S   S366      1.0  0.35810  0.32686  0.60283  1.0000
  Fe  Fe190     1.0  0.35710  0.38521  0.55425  1.0000
  S   S367      1.0  0.35571  0.39243  0.52438  1.0000
  Fe  Fe191     1.0  0.33848  0.39532  0.59107  1.0000
  S   S368      1.0  0.31614  0.41211  0.60869  1.0000
  S   S369      1.0  0.38020  0.36501  0.56545  1.0000
  S   S370      1.0  0.35992  0.37579  0.60532  1.0000
  H   H1397     1.0  0.25838  0.14628  0.47984  1.0000
  H   H1398     1.0  0.27786  0.99401  0.59825  1.0000
  S   S371      1.0  0.23643  0.16471  0.56324  1.0000
  H   H1399     1.0  0.28098  0.10793  0.59673  1.0000
  H   H1400     1.0  0.27211  0.04012  0.56915  1.0000
  S   S372      1.0  0.36451  0.32729  0.48459  1.0000
  C   C866      1.0  0.33134  0.23456  0.47710  1.0000
  H   H1401     1.0  0.32760  0.37759  0.63782  1.0000
  C   C867      1.0  0.26878  0.02674  0.57710  1.0000
  C   C868      1.0  0.28529  0.19221  0.48407  1.0000
  H   H1402     1.0  0.29661  0.15151  0.51258  1.0000
  H   H1403     1.0  0.31592  0.12550  0.60944  1.0000
  H   H1404     1.0  0.32151  0.14700  0.48533  1.0000
  H   H1405     1.0  0.31367  0.42062  0.57053  1.0000
  C   C869      1.0  0.35636  0.37427  0.51406  1.0000
  C   C870      1.0  0.35939  0.35613  0.52356  1.0000
  C   C871      1.0  0.36145  0.34180  0.51450  1.0000
  C   C872      1.0  0.36051  0.34553  0.49593  1.0000
  C   C873      1.0  0.35703  0.36369  0.48658  1.0000
  C   C874      1.0  0.35500  0.37802  0.49562  1.0000
  H   H1406     1.0  0.36043  0.35312  0.53780  1.0000
  H   H1407     1.0  0.36408  0.32777  0.52181  1.0000
  C   C875      1.0  0.27883  0.99396  0.58358  1.0000
  H   H1408     1.0  0.35255  0.39203  0.48824  1.0000
  C   C876      1.0  0.30172  0.42938  0.59614  1.0000
  C   C877      1.0  0.29727  0.16213  0.50034  1.0000
  C   C878      1.0  0.26646  0.17803  0.62515  1.0000
  C   C879      1.0  0.40753  0.35987  0.48832  1.0000
  C   C880      1.0  0.34089  0.45157  0.58882  1.0000
  Fe  Fe192     1.0  0.34436  0.97714  0.61421  1.0000
  C   C881      1.0  0.30121  0.01342  0.57354  1.0000
  H   H1409     1.0  0.33573  0.43411  0.62345  1.0000
  H   H1410     1.0  0.33363  0.34540  0.63344  1.0000
  H   H1411     1.0  0.31605  0.36980  0.61398  1.0000
  N   N91       1.0  0.29826  0.10609  0.61533  1.0000
  H   H1412     1.0  0.40590  0.39610  0.47618  1.0000
  C   C882      1.0  0.29709  0.10260  0.63530  1.0000
  H   H1413     1.0  0.23883  0.19581  0.65118  1.0000
  H   H1414     1.0  0.26545  0.99170  0.58229  1.0000
  H   H1415     1.0  0.30116  0.01345  0.58796  1.0000
  H   H1416     1.0  0.37510  0.43013  0.58468  1.0000
  H   H1417     1.0  0.28615  0.11299  0.64166  1.0000
  H   H1418     1.0  0.40627  0.40100  0.49775  1.0000
  Fe  Fe193     1.0  0.47583  0.42941  0.64535  1.0000
  H   H1419     1.0  0.29378  0.08890  0.64205  1.0000
  C   C883      1.0  0.30363  0.30709  0.62162  1.0000
  C   C884      1.0  0.30487  0.32352  0.60894  1.0000
  C   C885      1.0  0.32166  0.32942  0.60270  1.0000
  C   C886      1.0  0.33728  0.31902  0.60924  1.0000
  C   C887      1.0  0.33613  0.30239  0.62169  1.0000
  C   C888      1.0  0.31931  0.29644  0.62792  1.0000
  H   H1420     1.0  0.29278  0.33170  0.60391  1.0000
  H   H1421     1.0  0.32248  0.34203  0.59286  1.0000
  H   H1422     1.0  0.34820  0.29427  0.62679  1.0000
  H   H1423     1.0  0.31843  0.28375  0.63776  1.0000
  C   C889      1.0  0.27778  0.20531  0.60756  1.0000
  C   C890      1.0  0.27346  0.19350  0.62434  1.0000
  C   C891      1.0  0.45866  0.46759  0.71389  1.0000
  C   C892      1.0  0.26367  0.17435  0.60923  1.0000
  C   C893      1.0  0.26830  0.18595  0.59241  1.0000
  C   C894      1.0  0.27538  0.20138  0.59159  1.0000
  H   H1424     1.0  0.27555  0.19625  0.63667  1.0000
  H   H1425     1.0  0.31758  0.37078  0.66156  1.0000
  H   H1426     1.0  0.26619  0.18322  0.58005  1.0000
  H   H1427     1.0  0.27875  0.21041  0.57855  1.0000
  C   C895      1.0  0.40919  0.41758  0.62982  1.0000
  C   C896      1.0  0.39454  0.40926  0.63076  1.0000
  C   C897      1.0  0.39374  0.40187  0.61610  1.0000
  C   C898      1.0  0.40754  0.40288  0.60031  1.0000
  C   C899      1.0  0.42239  0.41088  0.59950  1.0000
  C   C900      1.0  0.42326  0.41817  0.61423  1.0000
  H   H1428     1.0  0.38380  0.40852  0.64292  1.0000
  H   H1429     1.0  0.38243  0.39548  0.61701  1.0000
  H   H1430     1.0  0.43317  0.41163  0.58735  1.0000
  H   H1431     1.0  0.43462  0.42454  0.61339  1.0000
  H   H1432     1.0  0.32171  0.18063  0.71248  1.0000
  H   H1433     1.0  0.38355  0.43965  0.59915  1.0000
  H   H1434     1.0  0.44123  0.35789  0.49395  1.0000
  N   N92       1.0  0.28319  0.01123  0.57164  1.0000
  H   H1435     1.0  0.34406  0.20729  0.70552  1.0000
  H   H1436     1.0  0.27530  0.20493  0.48371  1.0000
  C   C901      1.0  0.28845  0.44224  0.60494  1.0000
  C   C902      1.0  0.25116  0.14870  0.49374  1.0000
  C   C903      1.0  0.28755  0.04364  0.60701  1.0000
  C   C904      1.0  0.27236  0.05765  0.60382  1.0000
  C   C905      1.0  0.27452  0.07319  0.59002  1.0000
  C   C906      1.0  0.29191  0.07490  0.57941  1.0000
  C   C907      1.0  0.30714  0.06091  0.58260  1.0000
  C   C908      1.0  0.30500  0.04535  0.59647  1.0000
  H   H1437     1.0  0.25881  0.05633  0.61187  1.0000
  H   H1438     1.0  0.26266  0.08372  0.58748  1.0000
  H   H1439     1.0  0.32065  0.06216  0.57439  1.0000
  H   H1440     1.0  0.31680  0.03459  0.59884  1.0000
  C   C909      1.0  0.34536  0.99510  0.68542  1.0000
  C   C910      1.0  0.33475  0.01189  0.67876  1.0000
  C   C911      1.0  0.33469  0.02757  0.68497  1.0000
  C   C912      1.0  0.34525  0.02652  0.69782  1.0000
  H   H1441     1.0  0.32436  0.33882  0.65740  1.0000
  C   C913      1.0  0.35635  0.99415  0.69783  1.0000
  H   H1442     1.0  0.32623  0.01273  0.66917  1.0000
  H   H1443     1.0  0.32614  0.04047  0.68011  1.0000
  C   C914      1.0  0.32065  0.34392  0.64370  1.0000
  H   H1444     1.0  0.29472  0.99926  0.54786  1.0000
  S   S373      1.0  0.47501  0.44683  0.66500  1.0000
  C   C915      1.0  0.31640  0.22199  0.70421  1.0000
  C   C916      1.0  0.23907  0.18020  0.48150  1.0000
  S   S374      1.0  0.25361  0.15566  0.61088  1.0000
  H   H1445     1.0  0.27060  0.00911  0.55045  1.0000
  H   H1446     1.0  0.25513  0.02600  0.57506  1.0000
  C   C917      1.0  0.35022  0.43149  0.61583  1.0000
  C   C918      1.0  0.35637  0.00984  0.70395  1.0000
  S   S375      1.0  0.45464  0.44962  0.63106  1.0000
  C   C919      1.0  0.31132  0.15959  0.48493  1.0000
  H   H1447     1.0  0.37027  0.98075  0.64554  1.0000
  H   H1448     1.0  0.29220  0.35347  0.67030  1.0000
  C   C920      1.0  0.31458  0.37514  0.64754  1.0000
  H   H1449     1.0  0.36258  0.46032  0.61827  1.0000
  H   H1450     1.0  0.28957  0.98191  0.58019  1.0000
  S   S376      1.0  0.31584  0.97862  0.61043  1.0000
  C   C921      1.0  0.31218  0.17325  0.46899  1.0000
  H   H1451     1.0  0.30970  0.07807  0.61309  1.0000
  H   H1452     1.0  0.35224  0.41892  0.61033  1.0000
  C   C922      1.0  0.43304  0.37193  0.49038  1.0000
  N   N93       1.0  0.31547  0.27358  0.58082  1.0000
  C   C923      1.0  0.32872  0.27726  0.58981  1.0000
  C   C924      1.0  0.29650  0.28052  0.58999  1.0000
  C   C925      1.0  0.31815  0.25366  0.58211  1.0000
  C   C926      1.0  0.31847  0.28290  0.56137  1.0000
  H   H1453     1.0  0.34320  0.27208  0.58338  1.0000
  H   H1454     1.0  0.32671  0.27062  0.60457  1.0000
  H   H1455     1.0  0.32717  0.29219  0.58899  1.0000
  H   H1456     1.0  0.29397  0.29549  0.58950  1.0000
  H   H1457     1.0  0.28609  0.27792  0.58365  1.0000
  H   H1458     1.0  0.29374  0.27378  0.60467  1.0000
  H   H1459     1.0  0.30808  0.25029  0.57588  1.0000
  H   H1460     1.0  0.31619  0.24619  0.59662  1.0000
  H   H1461     1.0  0.33222  0.24791  0.57516  1.0000
  H   H1462     1.0  0.33269  0.27807  0.55403  1.0000
  H   H1463     1.0  0.31650  0.29797  0.55996  1.0000
  H   H1464     1.0  0.30872  0.28038  0.55415  1.0000
  H   H1465     1.0  0.35363  0.20383  0.46780  1.0000
  H   H1466     1.0  0.41537  0.34563  0.49158  1.0000
  H   H1467     1.0  0.33019  0.20090  0.47379  1.0000
  H   H1468     1.0  0.32637  0.24965  0.47512  1.0000
  H   H1469     1.0  0.35934  0.42842  0.62584  1.0000
  H   H1470     1.0  0.28707  0.44143  0.61942  1.0000
  Fe  Fe194     1.0  0.33193  0.97829  0.65463  1.0000
  C   C927      1.0  0.30346  0.43048  0.57743  1.0000
  H   H1471     1.0  0.40965  0.36426  0.47317  1.0000
  H   H1472     1.0  0.41601  0.35246  0.52149  1.0000
  H   H1473     1.0  0.35593  0.36673  0.47239  1.0000
  H   H1474     1.0  0.34447  0.23124  0.48206  1.0000
  C   C928      1.0  0.28431  0.17852  0.49991  1.0000
  H   H1475     1.0  0.31520  0.33304  0.64082  1.0000
  C   C929      1.0  0.37313  0.44254  0.59043  1.0000
  C   C930      1.0  0.30325  0.36790  0.62424  1.0000
  H   H1476     1.0  0.29719  0.35808  0.62035  1.0000
  H   H1477     1.0  0.40588  0.97917  0.65640  1.0000
  C   C931      1.0  0.30262  0.12437  0.60689  1.0000
  Fe  Fe195     1.0  0.45231  0.46588  0.65237  1.0000
  C   C932      1.0  0.31281  0.09200  0.60737  1.0000
  H   H1478     1.0  0.24617  0.17844  0.46737  1.0000
  H   H1479     1.0  0.36474  0.98122  0.70289  1.0000
  C   C933      1.0  0.33141  0.21431  0.71288  1.0000
  H   H1480     1.0  0.43673  0.37640  0.47524  1.0000
  Fe  Fe196     1.0  0.25347  0.14897  0.58399  1.0000
  H   H1481     1.0  0.38985  0.98839  0.63003  1.0000
  H   H1482     1.0  0.43774  0.38107  0.49661  1.0000
  C   C934      1.0  0.40878  0.36668  0.51686  1.0000
  H   H1483     1.0  0.29174  0.13537  0.61236  1.0000
  H   H1484     1.0  0.26106  0.15271  0.49968  1.0000
  H   H1485     1.0  0.26306  0.16898  0.63817  1.0000
  C   C935      1.0  0.40284  0.39122  0.49127  1.0000
  H   H1486     1.0  0.27664  0.09183  0.61780  1.0000
  H   H1487     1.0  0.31031  0.10302  0.63859  1.0000
  C   C936      1.0  0.28044  0.10541  0.61168  1.0000
  H   H1488     1.0  0.26911  0.11597  0.61730  1.0000
  H   H1489     1.0  0.28388  0.34808  0.65285  1.0000
  H   H1490     1.0  0.30365  0.12736  0.59180  1.0000
  S   S377      1.0  0.43010  0.45294  0.67224  1.0000
  Fe  Fe197     1.0  0.45311  0.43242  0.68337  1.0000
  H   H1491     1.0  0.30481  0.38858  0.64676  1.0000
  S   S378      1.0  0.24660  0.12221  0.58423  1.0000
  S   S379      1.0  0.34353  0.04600  0.70659  1.0000
  H   H1492     1.0  0.36487  0.00903  0.71350  1.0000
  H   H1493     1.0  0.26722  0.02683  0.59184  1.0000
  H   H1494     1.0  0.41279  0.37579  0.52372  1.0000
  H   H1495     1.0  0.28719  0.02370  0.54306  1.0000
  H   H1496     1.0  0.38772  0.39199  0.49553  1.0000
  C   C937      1.0  0.27841  0.45709  0.57636  1.0000
  H   H1497     1.0  0.29303  0.44493  0.55314  1.0000
  N   N94       1.0  0.35422  0.44720  0.60100  1.0000
  H   H1498     1.0  0.31416  0.09443  0.59225  1.0000
  H   H1499     1.0  0.32645  0.09187  0.61006  1.0000
  N   N95       1.0  0.30708  0.36135  0.64290  1.0000
  C   C938      1.0  0.28984  0.35845  0.65605  1.0000
  S   S380      1.0  0.34448  0.97493  0.67921  1.0000
  C   C939      1.0  0.35265  0.46319  0.60902  1.0000
  H   H1500     1.0  0.26653  0.46590  0.60191  1.0000
  H   H1501     1.0  0.32107  0.22807  0.48816  1.0000
  H   H1502     1.0  0.24852  0.18509  0.48724  1.0000
  H   H1503     1.0  0.32649  0.45531  0.59635  1.0000
  H   H1504     1.0  0.26010  0.46811  0.52947  1.0000
  H   H1505     1.0  0.45670  0.46246  0.70235  1.0000
  C   C940      1.0  0.29907  0.18951  0.46863  1.0000
  H   H1506     1.0  0.24875  0.45933  0.51680  1.0000
  H   H1507     1.0  0.24804  0.13543  0.50224  1.0000
  C   C941      1.0  0.25220  0.47201  0.51826  1.0000
  C   C942      1.0  0.30013  0.23116  0.71372  1.0000
  S   S381      1.0  0.45095  0.42489  0.71400  1.0000
  Fe  Fe198     1.0  0.33574  0.18162  0.81692  1.0000
  S   S382      1.0  0.33376  0.21163  0.80620  1.0000
  S   S383      1.0  0.32129  0.16974  0.84509  1.0000
  Fe  Fe199     1.0  0.36132  0.17167  0.78274  1.0000
  S   S384      1.0  0.36196  0.20088  0.76884  1.0000
  S   S385      1.0  0.37691  0.14942  0.76721  1.0000
  Fe  Fe200     1.0  0.36431  0.20479  0.79605  1.0000
  S   S386      1.0  0.37895  0.22675  0.79661  1.0000
  Fe  Fe201     1.0  0.33164  0.20594  0.77973  1.0000
  Fe  Fe202     1.0  0.35446  0.04253  0.73222  1.0000
  S   S387      1.0  0.36665  0.17493  0.80906  1.0000
  S   S388      1.0  0.33054  0.17643  0.79142  1.0000
  H   H1508     1.0  0.29939  0.16822  0.88109  1.0000
  H   H1509     1.0  0.30049  0.16452  0.76126  1.0000
  C   C943      1.0  0.28986  0.98756  0.81150  1.0000
  Fe  Fe203     1.0  0.34948  0.06217  0.76348  1.0000
  S   S389      1.0  0.36914  0.03996  0.77790  1.0000
  S   S390      1.0  0.33410  0.08644  0.77615  1.0000
  Fe  Fe204     1.0  0.38678  0.03986  0.74990  1.0000
  S   S391      1.0  0.41714  0.04034  0.74275  1.0000
  Fe  Fe205     1.0  0.35531  0.02085  0.77086  1.0000
  C   C944      1.0  0.43025  0.06940  0.78528  1.0000
  H   H1510     1.0  0.25372  0.01512  0.86284  1.0000
  S   S392      1.0  0.33409  0.04304  0.75877  1.0000
  C   C945      1.0  0.46920  0.25947  0.92746  1.0000
  H   H1511     1.0  0.42738  0.06531  0.80047  1.0000
  H   H1512     1.0  0.26893  0.18603  0.89309  1.0000
  Fe  Fe206     1.0  0.47040  0.26583  0.83425  1.0000
  Fe  Fe207     1.0  0.46123  0.22834  0.83791  1.0000
  H   H1513     1.0  0.29769  0.99936  0.72999  1.0000
  S   S393      1.0  0.45289  0.20775  0.82675  1.0000
  Fe  Fe208     1.0  0.45722  0.24410  0.87175  1.0000
  S   S394      1.0  0.43720  0.24931  0.89785  1.0000
  S   S395      1.0  0.44485  0.25425  0.84665  1.0000
  H   H1514     1.0  0.29157  0.97887  0.76079  1.0000
  H   H1515     1.0  0.42298  0.07281  0.75227  1.0000
  H   H1516     1.0  0.39599  0.10685  0.78086  1.0000
  C   C946      1.0  0.30958  0.00232  0.73378  1.0000
  H   H1517     1.0  0.47900  0.17587  0.81720  1.0000
  H   H1518     1.0  0.41942  0.10591  0.78134  1.0000
  H   H1519     1.0  0.30853  0.97281  0.77487  1.0000
  C   C947      1.0  0.43649  0.32398  0.86228  1.0000
  C   C948      1.0  0.31370  0.22437  0.74070  1.0000
  H   H1520     1.0  0.45972  0.41784  0.74953  1.0000
  C   C949      1.0  0.30933  0.15362  0.75399  1.0000
  S   S396      1.0  0.46712  0.29567  0.82018  1.0000
  H   H1521     1.0  0.47056  0.33324  0.81226  1.0000
  C   C950      1.0  0.44489  0.25504  0.91497  1.0000
  C   C951      1.0  0.46355  0.25438  0.91377  1.0000
  H   H1522     1.0  0.32792  0.00445  0.75842  1.0000
  C   C952      1.0  0.45623  0.26535  0.94231  1.0000
  C   C953      1.0  0.43756  0.26614  0.94345  1.0000
  C   C954      1.0  0.43193  0.26090  0.92984  1.0000
  H   H1523     1.0  0.42749  0.27059  0.95489  1.0000
  C   C955      1.0  0.32263  0.97555  0.80894  1.0000
  H   H1524     1.0  0.48367  0.25879  0.92656  1.0000
  H   H1525     1.0  0.41748  0.26136  0.93084  1.0000
  H   H1526     1.0  0.35839  0.28359  0.73452  1.0000
  H   H1527     1.0  0.35055  0.23621  0.74363  1.0000
  C   C956      1.0  0.31182  0.00734  0.79624  1.0000
  C   C957      1.0  0.29358  0.00481  0.80233  1.0000
  H   H1528     1.0  0.47364  0.24975  0.90243  1.0000
  H   H1529     1.0  0.47470  0.02771  0.76432  1.0000
  H   H1530     1.0  0.40210  0.05830  0.77840  1.0000
  H   H1531     1.0  0.31458  0.02064  0.78914  1.0000
  H   H1532     1.0  0.28237  0.01615  0.79964  1.0000
  H   H1533     1.0  0.25274  0.23110  0.92401  1.0000
  H   H1534     1.0  0.30270  0.16908  0.72039  1.0000
  C   C958      1.0  0.45271  0.01965  0.78620  1.0000
  C   C959      1.0  0.46042  0.02644  0.76805  1.0000
  C   C960      1.0  0.44948  0.03216  0.75471  1.0000
  C   C961      1.0  0.43084  0.03097  0.75940  1.0000
  C   C962      1.0  0.42332  0.02348  0.77742  1.0000
  C   C963      1.0  0.43421  0.01793  0.79081  1.0000
  N   N96       1.0  0.32243  0.16121  0.73795  1.0000
  H   H1535     1.0  0.45541  0.03784  0.74076  1.0000
  H   H1536     1.0  0.40902  0.02231  0.78111  1.0000
  H   H1537     1.0  0.42819  0.01261  0.80483  1.0000
  H   H1538     1.0  0.31670  0.14320  0.76403  1.0000
  C   C964      1.0  0.35076  0.27873  0.74853  1.0000
  C   C965      1.0  0.34805  0.25140  0.74033  1.0000
  N   N97       1.0  0.43630  0.30518  0.87294  1.0000
  C   C966      1.0  0.28853  0.23183  0.91512  1.0000
  C   C967      1.0  0.39909  0.22108  0.80574  1.0000
  C   C968      1.0  0.40576  0.23508  0.80909  1.0000
  C   C969      1.0  0.42203  0.23113  0.81590  1.0000
  C   C970      1.0  0.43190  0.21315  0.81912  1.0000
  C   C971      1.0  0.42526  0.19915  0.81573  1.0000
  C   C972      1.0  0.40882  0.20306  0.80920  1.0000
  H   H1539     1.0  0.39831  0.24905  0.80644  1.0000
  H   H1540     1.0  0.42708  0.24201  0.81840  1.0000
  H   H1541     1.0  0.43283  0.18521  0.81818  1.0000
  H   H1542     1.0  0.40384  0.19218  0.80661  1.0000
  C   C973      1.0  0.36533  0.13158  0.77012  1.0000
  C   C974      1.0  0.35018  0.12930  0.78438  1.0000
  C   C975      1.0  0.34070  0.11537  0.78612  1.0000
  C   C976      1.0  0.34656  0.10342  0.77386  1.0000
  C   C977      1.0  0.36189  0.10552  0.75973  1.0000
  C   C978      1.0  0.37114  0.11971  0.75777  1.0000
  H   H1543     1.0  0.34589  0.13810  0.79423  1.0000
  H   H1544     1.0  0.32893  0.11369  0.79714  1.0000
  H   H1545     1.0  0.36638  0.09646  0.75011  1.0000
  H   H1546     1.0  0.38271  0.12163  0.74656  1.0000
  C   C979      1.0  0.30065  0.18373  0.85354  1.0000
  C   C980      1.0  0.29179  0.19835  0.84190  1.0000
  C   C981      1.0  0.27461  0.20851  0.84876  1.0000
  C   C982      1.0  0.26614  0.20387  0.86716  1.0000
  C   C983      1.0  0.27516  0.18943  0.87884  1.0000
  C   C984      1.0  0.29242  0.17944  0.87206  1.0000
  H   H1547     1.0  0.29797  0.20163  0.82755  1.0000
  H   H1548     1.0  0.26771  0.21971  0.83967  1.0000
  H   H1549     1.0  0.37712  0.23610  0.75653  1.0000
  C   C985      1.0  0.27905  0.21006  0.94236  1.0000
  N   N98       1.0  0.35419  0.25856  0.75340  1.0000
  H   H1550     1.0  0.33586  0.28458  0.74895  1.0000
  H   H1551     1.0  0.46401  0.29506  0.86002  1.0000
  H   H1552     1.0  0.29287  0.20649  0.94600  1.0000
  S   S397      1.0  0.37472  0.01877  0.74389  1.0000
  S   S398      1.0  0.47149  0.21702  0.86421  1.0000
  H   H1553     1.0  0.25887  0.99665  0.85093  1.0000
  H   H1554     1.0  0.40617  0.09357  0.75247  1.0000
  S   S399      1.0  0.46554  0.01428  0.80351  1.0000
  H   H1555     1.0  0.44202  0.07661  0.78109  1.0000
  H   H1556     1.0  0.27085  0.22139  0.94933  1.0000
  S   S400      1.0  0.24419  0.21606  0.87521  1.0000
  C   C986      1.0  0.29883  0.23243  0.73190  1.0000
  C   C987      1.0  0.24828  0.00370  0.86108  1.0000
  C   C988      1.0  0.25468  0.12578  0.87006  1.0000
  N   N99       1.0  0.41387  0.08086  0.77840  1.0000
  C   C989      1.0  0.34383  0.25277  0.77207  1.0000
  H   H1557     1.0  0.25059  0.12735  0.85679  1.0000
  C   C990      1.0  0.39863  0.07075  0.78439  1.0000
  H   H1558     1.0  0.24706  0.99375  0.87433  1.0000
  H   H1559     1.0  0.37911  0.25620  0.76272  1.0000
  H   H1560     1.0  0.43494  0.05665  0.77981  1.0000
  C   C991      1.0  0.26173  0.21933  0.91818  1.0000
  H   H1561     1.0  0.38242  0.25536  0.73892  1.0000
  H   H1562     1.0  0.38584  0.07922  0.78000  1.0000
  H   H1563     1.0  0.41361  0.30239  0.86275  1.0000
  H   H1564     1.0  0.45573  0.28119  0.88162  1.0000
  S   S401      1.0  0.36809  0.06368  0.73588  1.0000
  C   C992      1.0  0.41835  0.08540  0.75818  1.0000
  H   H1565     1.0  0.28957  0.23629  0.90004  1.0000
  H   H1566     1.0  0.42498  0.29155  0.89982  1.0000
  H   H1567     1.0  0.47440  0.35689  0.75404  1.0000
  C   C993      1.0  0.32641  0.99263  0.79927  1.0000
  H   H1568     1.0  0.28012  0.24349  0.92153  1.0000
  C   C994      1.0  0.30441  0.97303  0.81511  1.0000
  H   H1569     1.0  0.24216  0.12469  0.88106  1.0000
  H   H1570     1.0  0.40484  0.09488  0.80093  1.0000
  H   H1571     1.0  0.39534  0.06634  0.79953  1.0000
  S   S402      1.0  0.26707  0.98424  0.81733  1.0000
  S   S403      1.0  0.48192  0.25701  0.85978  1.0000
  C   C995      1.0  0.42546  0.30566  0.89167  1.0000
  H   H1572     1.0  0.46202  0.30222  0.88101  1.0000
  H   H1573     1.0  0.28615  0.23941  0.73925  1.0000
  N   N100      1.0  0.28033  0.21535  0.92232  1.0000
  N   N101      1.0  0.26273  0.14128  0.87023  1.0000
  H   H1574     1.0  0.29671  0.99604  0.76957  1.0000
  C   C996      1.0  0.24908  0.15851  0.86728  1.0000
  C   C997      1.0  0.27930  0.14219  0.85550  1.0000
  C   C998      1.0  0.26785  0.13859  0.88814  1.0000
  H   H1575     1.0  0.46169  0.97405  0.80666  1.0000
  H   H1576     1.0  0.30388  0.18679  0.73121  1.0000
  H   H1577     1.0  0.25473  0.17052  0.86716  1.0000
  H   H1578     1.0  0.34167  0.13560  0.73833  1.0000
  S   S404      1.0  0.23819  0.17607  0.91852  1.0000
  C   C999      1.0  0.31221  0.17499  0.72497  1.0000
  H   H1579     1.0  0.28571  0.15375  0.85516  1.0000
  H   H1580     1.0  0.27599  0.14421  0.84178  1.0000
  C   C1000     1.0  0.33264  0.99193  0.75247  1.0000
  H   H1581     1.0  0.27374  0.15012  0.88887  1.0000
  H   H1582     1.0  0.30487  0.01526  0.73905  1.0000
  H   H1583     1.0  0.47895  0.16612  0.84083  1.0000
  C   C1001     1.0  0.30292  0.98351  0.76384  1.0000
  H   H1584     1.0  0.42757  0.28122  0.87154  1.0000
  C   C1002     1.0  0.29202  0.20022  0.91360  1.0000
  H   H1585     1.0  0.44463  0.32383  0.84809  1.0000
  H   H1586     1.0  0.34166  0.20937  0.73767  1.0000
  H   H1587     1.0  0.47677  0.47003  0.73848  1.0000
  H   H1588     1.0  0.32871  0.25760  0.77310  1.0000
  S   S405      1.0  0.34944  0.99477  0.79025  1.0000
  H   H1589     1.0  0.27827  0.12581  0.89076  1.0000
  C   C1003     1.0  0.33394  0.14629  0.72882  1.0000
  H   H1590     1.0  0.45693  0.45656  0.72630  1.0000
  H   H1591     1.0  0.30610  0.19668  0.91661  1.0000
  H   H1592     1.0  0.31995  0.00498  0.72097  1.0000
  C   C1004     1.0  0.42798  0.29545  0.86384  1.0000
  H   H1593     1.0  0.43594  0.29456  0.84976  1.0000
  H   H1594     1.0  0.25568  0.13765  0.89958  1.0000
  C   C1005     1.0  0.45536  0.29551  0.87393  1.0000
  C   C1006     1.0  0.47235  0.41435  0.73988  1.0000
  C   C1007     1.0  0.40831  0.09785  0.78571  1.0000
  C   C1008     1.0  0.37407  0.25131  0.75278  1.0000
  H   H1595     1.0  0.44284  0.33167  0.86867  1.0000
  C   C1009     1.0  0.33006  0.21547  0.73108  1.0000
  H   H1596     1.0  0.35541  0.25556  0.72603  1.0000
  S   S406      1.0  0.31149  0.22570  0.76364  1.0000
  H   H1597     1.0  0.42234  0.33172  0.86119  1.0000
  H   H1598     1.0  0.25486  0.20740  0.92398  1.0000
  H   H1599     1.0  0.34633  0.23767  0.77612  1.0000
  H   H1600     1.0  0.29354  0.20391  0.89843  1.0000
  N   N102      1.0  0.31738  0.98705  0.74737  1.0000
  H   H1601     1.0  0.34423  0.15146  0.71684  1.0000
  H   H1602     1.0  0.30263  0.22930  0.91791  1.0000
  H   H1603     1.0  0.29001  0.12951  0.85734  1.0000
  H   H1604     1.0  0.42955  0.09334  0.75309  1.0000
  H   H1605     1.0  0.30019  0.14682  0.74993  1.0000
  C   C1010     1.0  0.47727  0.97460  0.83398  1.0000
  H   H1606     1.0  0.34813  0.25775  0.78243  1.0000
  H   H1607     1.0  0.26222  0.22277  0.90314  1.0000
  H   H1608     1.0  0.23771  0.03537  0.83856  1.0000
  H   H1609     1.0  0.28606  0.18765  0.91850  1.0000
  H   H1610     1.0  0.46275  0.98218  0.83488  1.0000
  C   C1011     1.0  0.33430  0.16992  0.74410  1.0000
  H   H1611     1.0  0.33878  0.98081  0.76286  1.0000
  C   C1012     1.0  0.48364  0.32482  0.81468  1.0000
  H   H1612     1.0  0.34217  0.15999  0.75392  1.0000
  H   H1613     1.0  0.34449  0.17572  0.73244  1.0000
  H   H1614     1.0  0.35523  0.28450  0.75823  1.0000
  H   H1615     1.0  0.23649  0.15835  0.87829  1.0000
  H   H1616     1.0  0.33300  0.25621  0.74076  1.0000
  H   H1617     1.0  0.32604  0.18114  0.75120  1.0000
  H   H1618     1.0  0.24025  0.99032  0.91437  1.0000
  H   H1619     1.0  0.34387  0.99462  0.74047  1.0000
  H   H1620     1.0  0.43156  0.31249  0.89916  1.0000
  H   H1621     1.0  0.41100  0.31297  0.89152  1.0000
  S   S407      1.0  0.46375  0.27144  0.95933  1.0000
  H   H1622     1.0  0.24476  0.16093  0.85398  1.0000
  H   H1623     1.0  0.26459  0.11255  0.87233  1.0000
  H   H1624     1.0  0.33532  0.97265  0.72697  1.0000
  H   H1625     1.0  0.24314  0.01682  0.82674  1.0000
  H   H1626     1.0  0.27234  0.19803  0.94841  1.0000
  H   H1627     1.0  0.32546  0.13945  0.72389  1.0000
  C   C1013     1.0  0.47187  0.41612  0.72142  1.0000
  H   H1628     1.0  0.30248  0.50394  0.20725  1.0000
  S   S408      1.0  0.27526  0.65244  0.04911  1.0000
  H   H1629     1.0  0.42962  0.87242  0.16023  1.0000
  H   H1630     1.0  0.33199  0.65332  0.21138  1.0000
  N   N103      1.0  0.24410  0.56947  0.06589  1.0000
  Fe  Fe209     1.0  0.27334  0.62383  0.04898  1.0000
  S   S409      1.0  0.29791  0.60042  0.04779  1.0000
  C   C1014     1.0  0.39722  0.88306  0.00264  1.0000
  H   H1631     1.0  0.38666  0.89271  0.97003  1.0000
  H   H1632     1.0  0.23668  0.71942  0.14731  1.0000
  Fe  Fe210     1.0  0.29210  0.70802  0.17847  1.0000
  S   S410      1.0  0.28358  0.73856  0.17573  1.0000
  C   C1015     1.0  0.26545  0.88496  0.11562  1.0000
  Fe  Fe211     1.0  0.29559  0.70995  0.13774  1.0000
  S   S411      1.0  0.28783  0.74052  0.13172  1.0000
  S   S412      1.0  0.30377  0.69571  0.11381  1.0000
  Fe  Fe212     1.0  0.30605  0.73972  0.15065  1.0000
  S   S413      1.0  0.32811  0.75625  0.14515  1.0000
  Fe  Fe213     1.0  0.26599  0.73662  0.15716  1.0000
  C   C1016     1.0  0.28770  0.62495  0.10151  1.0000
  S   S414      1.0  0.31580  0.70933  0.15459  1.0000
  S   S415      1.0  0.27248  0.70592  0.16191  1.0000
  Fe  Fe214     1.0  0.32247  0.90126  0.11438  1.0000
  S   S416      1.0  0.35019  0.90181  0.09604  1.0000
  S   S417      1.0  0.30492  0.92514  0.12678  1.0000
  Fe  Fe215     1.0  0.32450  0.86104  0.11453  1.0000
  S   S418      1.0  0.35262  0.85802  0.09645  1.0000
  S   S419      1.0  0.30419  0.84214  0.12238  1.0000
  Fe  Fe216     1.0  0.35883  0.87458  0.11375  1.0000
  S   S420      1.0  0.38609  0.86882  0.12245  1.0000
  Fe  Fe217     1.0  0.34182  0.88543  0.08027  1.0000
  S   S421      1.0  0.34415  0.89259  0.04969  1.0000
  S   S422      1.0  0.33158  0.87508  0.13341  1.0000
  S   S423      1.0  0.31326  0.88733  0.09705  1.0000
  S   S424      1.0  0.25622  0.68463  0.00561  1.0000
  H   H1633     1.0  0.31206  0.84929  0.07169  1.0000
  S   S425      1.0  0.36981  0.82621  0.00885  1.0000
  Fe  Fe218     1.0  0.42156  0.93809  0.15792  1.0000
  Fe  Fe219     1.0  0.36019  0.54511  0.21451  1.0000
  S   S426      1.0  0.39468  0.93348  0.15476  1.0000
  H   H1634     1.0  0.31229  0.65022  0.19236  1.0000
  H   H1635     1.0  0.34242  0.72385  0.17101  1.0000
  S   S427      1.0  0.42531  0.93569  0.18645  1.0000
  Fe  Fe220     1.0  0.31152  0.50671  0.11708  1.0000
  S   S428      1.0  0.30708  0.48959  0.14551  1.0000
  S   S429      1.0  0.29358  0.53481  0.11598  1.0000
  N   N104      1.0  0.42319  0.87596  0.18811  1.0000
  C   C1017     1.0  0.24099  0.72411  0.11125  1.0000
  H   H1636     1.0  0.30785  0.84033  0.05397  1.0000
  H   H1637     1.0  0.29119  0.65894  0.99972  1.0000
  C   C1018     1.0  0.34970  0.73553  0.20800  1.0000
  C   C1019     1.0  0.35488  0.49648  0.16732  1.0000
  C   C1020     1.0  0.25559  0.86671  0.14525  1.0000
  C   C1021     1.0  0.46392  0.96886  0.21288  1.0000
  S   S430      1.0  0.34248  0.49908  0.11217  1.0000
  Fe  Fe221     1.0  0.45641  0.95300  0.14073  1.0000
  C   C1022     1.0  0.31659  0.63508  0.19642  1.0000
  S   S431      1.0  0.47169  0.90087  0.19217  1.0000
  H   H1638     1.0  0.28114  0.63249  0.11282  1.0000
  H   H1639     1.0  0.32592  0.73563  0.18725  1.0000
  C   C1023     1.0  0.35301  0.52828  0.17994  1.0000
  C   C1024     1.0  0.34312  0.52886  0.16668  1.0000
  C   C1025     1.0  0.34397  0.51298  0.16045  1.0000
  H   H1640     1.0  0.28398  0.61123  0.10592  1.0000
  H   H1641     1.0  0.32946  0.84646  0.05165  1.0000
  H   H1642     1.0  0.33450  0.54156  0.16145  1.0000
  H   H1643     1.0  0.33600  0.51351  0.15048  1.0000
  H   H1644     1.0  0.32909  0.63065  0.18629  1.0000
  C   C1026     1.0  0.38634  0.47645  0.07476  1.0000
  S   S432      1.0  0.30827  0.48526  0.10368  1.0000
  Fe  Fe222     1.0  0.36663  0.83148  0.97948  1.0000
  H   H1645     1.0  0.25128  0.66493  0.13151  1.0000
  H   H1646     1.0  0.44907  0.86634  0.17122  1.0000
  C   C1027     1.0  0.27582  0.68477  0.98798  1.0000
  S   S433      1.0  0.34751  0.81951  0.97020  1.0000
  H   H1647     1.0  0.27564  0.88493  0.15616  1.0000
  C   C1028     1.0  0.39302  0.91605  0.14457  1.0000
  C   C1029     1.0  0.40851  0.90353  0.13819  1.0000
  C   C1030     1.0  0.40637  0.88895  0.13144  1.0000
  C   C1031     1.0  0.38880  0.88720  0.13061  1.0000
  C   C1032     1.0  0.37342  0.90001  0.13657  1.0000
  C   C1033     1.0  0.37552  0.91427  0.14367  1.0000
  H   H1648     1.0  0.42207  0.90508  0.13846  1.0000
  H   H1649     1.0  0.41832  0.87920  0.12659  1.0000
  H   H1650     1.0  0.35983  0.89881  0.13595  1.0000
  H   H1651     1.0  0.36350  0.92395  0.14854  1.0000
  C   C1034     1.0  0.35152  0.87420  0.03832  1.0000
  C   C1035     1.0  0.34577  0.87560  0.02203  1.0000
  C   C1036     1.0  0.35126  0.86091  0.01288  1.0000
  C   C1037     1.0  0.36280  0.84492  0.01981  1.0000
  C   C1038     1.0  0.36884  0.84365  0.03590  1.0000
  C   C1039     1.0  0.36317  0.85825  0.04518  1.0000
  H   H1652     1.0  0.33677  0.88796  0.01667  1.0000
  H   H1653     1.0  0.34633  0.86191  0.00062  1.0000
  H   H1654     1.0  0.37795  0.83136  0.04119  1.0000
  H   H1655     1.0  0.36804  0.85728  0.05746  1.0000
  C   C1040     1.0  0.28407  0.93417  0.11933  1.0000
  C   C1041     1.0  0.26936  0.94394  0.13023  1.0000
  C   C1042     1.0  0.25234  0.95058  0.12483  1.0000
  C   C1043     1.0  0.24993  0.94706  0.10874  1.0000
  C   C1044     1.0  0.26463  0.93735  0.09783  1.0000
  C   C1045     1.0  0.28177  0.93115  0.10298  1.0000
  C   C1046     1.0  0.40598  0.88942  0.18597  1.0000
  H   H1656     1.0  0.37203  0.51136  0.19663  1.0000
  H   H1657     1.0  0.26279  0.93471  0.08531  1.0000
  H   H1658     1.0  0.29319  0.92410  0.09425  1.0000
  C   C1047     1.0  0.32138  0.78012  0.13904  1.0000
  C   C1048     1.0  0.33455  0.79112  0.13500  1.0000
  C   C1049     1.0  0.32945  0.81024  0.13012  1.0000
  C   C1050     1.0  0.31113  0.81837  0.12927  1.0000
  C   C1051     1.0  0.29798  0.80736  0.13333  1.0000
  C   C1052     1.0  0.30308  0.78828  0.13819  1.0000
  H   H1659     1.0  0.34874  0.78485  0.13563  1.0000
  H   H1660     1.0  0.33966  0.81866  0.12700  1.0000
  H   H1661     1.0  0.28379  0.81358  0.13266  1.0000
  H   H1662     1.0  0.29285  0.77987  0.14132  1.0000
  C   C1053     1.0  0.36416  0.51183  0.18660  1.0000
  H   H1663     1.0  0.32699  0.70436  0.97212  1.0000
  H   H1664     1.0  0.37693  0.48852  0.07860  1.0000
  H   H1665     1.0  0.37371  0.48325  0.18551  1.0000
  H   H1666     1.0  0.39748  0.48247  0.10707  1.0000
  C   C1054     1.0  0.39129  0.87785  0.97523  1.0000
  H   H1667     1.0  0.40922  0.48549  0.12327  1.0000
  H   H1668     1.0  0.27099  0.94598  0.14308  1.0000
  H   H1669     1.0  0.48408  0.50133  0.99550  1.0000
  H   H1670     1.0  0.25153  0.54227  0.08138  1.0000
  Fe  Fe223     1.0  0.24957  0.65211  0.07092  1.0000
  H   H1671     1.0  0.30623  0.65031  0.07973  1.0000
  Fe  Fe224     1.0  0.33766  0.48047  0.13970  1.0000
  C   C1055     1.0  0.23721  0.57751  0.08244  1.0000
  Fe  Fe225     1.0  0.43293  0.96321  0.17610  1.0000
  H   H1672     1.0  0.28343  0.89758  0.13382  1.0000
  H   H1673     1.0  0.29621  0.97011  0.11223  1.0000
  H   H1674     1.0  0.26652  0.85471  0.14202  1.0000
  C   C1056     1.0  0.29115  0.67045  0.98829  1.0000
  N   N105      1.0  0.26148  0.88407  0.13557  1.0000
  C   C1057     1.0  0.29735  0.58206  0.06672  1.0000
  C   C1058     1.0  0.30899  0.56502  0.06538  1.0000
  C   C1059     1.0  0.30825  0.55026  0.08047  1.0000
  C   C1060     1.0  0.29593  0.55267  0.09689  1.0000
  C   C1061     1.0  0.28460  0.56977  0.09824  1.0000
  C   C1062     1.0  0.28533  0.58436  0.08324  1.0000
  H   H1675     1.0  0.31845  0.56317  0.05265  1.0000
  H   H1676     1.0  0.31707  0.53707  0.07938  1.0000
  H   H1677     1.0  0.28956  0.87322  0.13849  1.0000
  C   C1063     1.0  0.32870  0.71678  0.97594  1.0000
  C   C1064     1.0  0.26103  0.67035  0.10229  1.0000
  C   C1065     1.0  0.26112  0.67091  0.12032  1.0000
  C   C1066     1.0  0.27401  0.67896  0.12396  1.0000
  C   C1067     1.0  0.28690  0.68643  0.10957  1.0000
  C   C1068     1.0  0.28683  0.68586  0.09154  1.0000
  C   C1069     1.0  0.27385  0.67790  0.08789  1.0000
  H   H1678     1.0  0.40738  0.88087  0.01146  1.0000
  H   H1679     1.0  0.27421  0.67908  0.13792  1.0000
  H   H1680     1.0  0.29681  0.69163  0.08037  1.0000
  H   H1681     1.0  0.38321  0.72511  0.18808  1.0000
  H   H1682     1.0  0.43244  0.87941  0.98335  1.0000
  S   S434      1.0  0.45073  0.92457  0.14798  1.0000
  H   H1683     1.0  0.33910  0.71227  0.98481  1.0000
  H   H1684     1.0  0.41707  0.84753  0.98098  1.0000
  S   S435      1.0  0.46308  0.95214  0.16774  1.0000
  H   H1685     1.0  0.45461  0.48164  0.02365  1.0000
  H   H1686     1.0  0.30037  0.81207  0.07595  1.0000
  H   H1687     1.0  0.31531  0.72232  0.98432  1.0000
  S   S436      1.0  0.29793  0.68749  0.20418  1.0000
  H   H1688     1.0  0.37550  0.71797  0.17125  1.0000
  H   H1689     1.0  0.24803  0.73281  0.11568  1.0000
  C   C1070     1.0  0.46876  0.47427  0.01863  1.0000
  H   H1690     1.0  0.28123  0.63242  0.08959  1.0000
  H   H1691     1.0  0.33767  0.71265  0.19465  1.0000
  C   C1071     1.0  0.33941  0.72597  0.18533  1.0000
  N   N106      1.0  0.40525  0.87444  0.98654  1.0000
  H   H1692     1.0  0.25875  0.57675  0.03820  1.0000
  S   S437      1.0  0.25619  0.63224  0.02735  1.0000
  Fe  Fe226     1.0  0.25575  0.66086  0.02959  1.0000
  H   H1693     1.0  0.23757  0.73136  0.09774  1.0000
  H   H1694     1.0  0.39895  0.88636  0.17637  1.0000
  H   H1695     1.0  0.23902  0.69758  0.14193  1.0000
  H   H1696     1.0  0.27372  0.67772  0.07393  1.0000
  C   C1072     1.0  0.30648  0.67103  0.97374  1.0000
  H   H1697     1.0  0.33752  0.47441  0.20138  1.0000
  H   H1698     1.0  0.42173  0.85137  0.00127  1.0000
  H   H1699     1.0  0.27679  0.59747  0.08461  1.0000
  S   S438      1.0  0.42685  0.96662  0.14844  1.0000
  S   S439      1.0  0.35056  0.54814  0.18834  1.0000
  H   H1700     1.0  0.35105  0.82787  0.07223  1.0000
  H   H1701     1.0  0.41739  0.89741  0.97106  1.0000
  H   H1702     1.0  0.33286  0.83071  0.09168  1.0000
  H   H1703     1.0  0.46794  0.51004  0.01418  1.0000
  H   H1704     1.0  0.37893  0.87231  0.98321  1.0000
  C   C1073     1.0  0.36514  0.49596  0.18025  1.0000
  H   H1705     1.0  0.27516  0.57169  0.11097  1.0000
  H   H1706     1.0  0.26406  0.71077  0.97295  1.0000
  H   H1707     1.0  0.41065  0.48741  0.07092  1.0000
  H   H1708     1.0  0.39936  0.84815  0.00103  1.0000
  Fe  Fe227     1.0  0.45498  0.92476  0.17584  1.0000
  H   H1709     1.0  0.26449  0.58618  0.05456  1.0000
  H   H1710     1.0  0.29202  0.96724  0.13662  1.0000
  H   H1711     1.0  0.30628  0.64959  0.10320  1.0000
  C   C1074     1.0  0.47381  0.90524  0.21283  1.0000
  H   H1712     1.0  0.31559  0.79957  0.09125  1.0000
  C   C1075     1.0  0.41114  0.85452  0.99274  1.0000
  H   H1713     1.0  0.39607  0.88975  0.19923  1.0000
  H   H1714     1.0  0.40870  0.90348  0.18039  1.0000
  H   H1715     1.0  0.38548  0.48356  0.13005  1.0000
  C   C1076     1.0  0.25765  0.55236  0.06986  1.0000
  H   H1716     1.0  0.24310  0.59543  0.04718  1.0000
  N   N107      1.0  0.30787  0.62353  0.09689  1.0000
  C   C1077     1.0  0.31584  0.61304  0.11294  1.0000
  C   C1078     1.0  0.31586  0.61409  0.08135  1.0000
  C   C1079     1.0  0.31209  0.64206  0.09179  1.0000
  H   H1717     1.0  0.33105  0.61167  0.10994  1.0000
  H   H1718     1.0  0.31287  0.59897  0.11715  1.0000
  H   H1719     1.0  0.31010  0.61981  0.12491  1.0000
  H   H1720     1.0  0.30954  0.62113  0.06923  1.0000
  H   H1721     1.0  0.31370  0.59977  0.08498  1.0000
  H   H1722     1.0  0.33095  0.61346  0.07697  1.0000
  H   H1723     1.0  0.46087  0.96951  0.19935  1.0000
  C   C1080     1.0  0.43580  0.87611  0.17011  1.0000
  H   H1724     1.0  0.27014  0.89780  0.10789  1.0000
  H   H1725     1.0  0.26966  0.55496  0.07379  1.0000
  H   H1726     1.0  0.35945  0.74958  0.16177  1.0000
  C   C1081     1.0  0.27822  0.88498  0.14129  1.0000
  S   S440      1.0  0.35529  0.47626  0.16046  1.0000
  H   H1727     1.0  0.24857  0.58067  0.08694  1.0000
  H   H1728     1.0  0.34227  0.76093  0.17789  1.0000
  H   H1729     1.0  0.25308  0.88452  0.11078  1.0000
  H   H1730     1.0  0.40940  0.85691  0.20914  1.0000
  Fe  Fe228     1.0  0.33882  0.47583  0.10148  1.0000
  S   S441      1.0  0.47269  0.96535  0.11388  1.0000
  H   H1731     1.0  0.30294  0.82207  0.09362  1.0000
  H   H1732     1.0  0.38519  0.87728  0.01128  1.0000
  H   H1733     1.0  0.32718  0.64159  0.08822  1.0000
  H   H1734     1.0  0.27651  0.87337  0.11168  1.0000
  N   N108      1.0  0.32576  0.82143  0.07079  1.0000
  C   C1082     1.0  0.33486  0.81010  0.05689  1.0000
  C   C1083     1.0  0.33924  0.82205  0.08128  1.0000
  C   C1084     1.0  0.31049  0.81341  0.08342  1.0000
  C   C1085     1.0  0.31842  0.84018  0.06165  1.0000
  H   H1735     1.0  0.34658  0.81567  0.04724  1.0000
  H   H1736     1.0  0.32519  0.80959  0.04847  1.0000
  H   H1737     1.0  0.34040  0.79582  0.06332  1.0000
  H   H1738     1.0  0.34483  0.80818  0.08867  1.0000
  H   H1739     1.0  0.32408  0.75298  0.97356  1.0000
  C   C1086     1.0  0.47980  0.48333  0.04106  1.0000
  H   H1740     1.0  0.34798  0.74278  0.97320  1.0000
  H   H1741     1.0  0.24088  0.95783  0.13343  1.0000
  H   H1742     1.0  0.34843  0.63282  0.20738  1.0000
  C   C1087     1.0  0.25300  0.58250  0.05080  1.0000
  C   C1088     1.0  0.24669  0.89966  0.14012  1.0000
  N   N109      1.0  0.35412  0.73316  0.18882  1.0000
  C   C1089     1.0  0.41894  0.85752  0.19558  1.0000
  H   H1743     1.0  0.44538  0.87131  0.20232  1.0000
  H   H1744     1.0  0.47706  0.93720  0.06710  1.0000
  C   C1090     1.0  0.39898  0.47832  0.12161  1.0000
  S   S442      1.0  0.24478  0.66005  0.09832  1.0000
  H   H1745     1.0  0.31832  0.65992  0.97401  1.0000
  H   H1746     1.0  0.43911  0.88988  0.16403  1.0000
  C   C1091     1.0  0.27587  0.69962  0.97315  1.0000
  C   C1092     1.0  0.35561  0.75098  0.17636  1.0000
  C   C1093     1.0  0.37179  0.72011  0.18560  1.0000
  H   H1747     1.0  0.43515  0.89478  0.19554  1.0000
  H   H1748     1.0  0.39229  0.89805  0.99853  1.0000
  H   H1749     1.0  0.36617  0.75714  0.17894  1.0000
  H   H1750     1.0  0.24299  0.86553  0.14128  1.0000
  C   C1094     1.0  0.43204  0.88082  0.20073  1.0000
  H   H1751     1.0  0.32564  0.50747  0.20025  1.0000
  H   H1752     1.0  0.41225  0.85352  0.18629  1.0000
  H   H1753     1.0  0.24321  0.89945  0.15507  1.0000
  H   H1754     1.0  0.25261  0.86551  0.16035  1.0000
  H   H1755     1.0  0.25088  0.91289  0.13314  1.0000
  H   H1756     1.0  0.43165  0.84702  0.19735  1.0000
  C   C1095     1.0  0.42127  0.88232  0.97554  1.0000
  H   H1757     1.0  0.26306  0.54580  0.05774  1.0000
  S   S443      1.0  0.24910  0.62292  0.07218  1.0000
  H   H1758     1.0  0.37109  0.70653  0.19483  1.0000
  H   H1759     1.0  0.25113  0.71135  0.10909  1.0000
  H   H1760     1.0  0.47003  0.47440  0.00393  1.0000
  S   S444      1.0  0.23806  0.75426  0.15481  1.0000
  C   C1096     1.0  0.40538  0.47583  0.07034  1.0000
  C   C1097     1.0  0.48174  0.50139  0.01037  1.0000
  H   H1761     1.0  0.29458  0.72435  0.20877  1.0000
  H   H1762     1.0  0.46591  0.49138  0.04579  1.0000
  H   H1763     1.0  0.48365  0.93159  0.03520  1.0000
  N   N110      1.0  0.48378  0.96730  0.21167  1.0000
  C   C1098     1.0  0.31476  0.50410  0.21241  1.0000
  H   H1764     1.0  0.30541  0.62887  0.19520  1.0000
  N   N111      1.0  0.48294  0.48264  0.02149  1.0000
  H   H1765     1.0  0.36040  0.74107  0.21114  1.0000
  H   H1766     1.0  0.33632  0.74509  0.21102  1.0000
  H   H1767     1.0  0.42307  0.88067  0.21454  1.0000
  H   H1768     1.0  0.33858  0.60436  0.21090  1.0000
  N   N112      1.0  0.32019  0.62973  0.21520  1.0000
  H   H1769     1.0  0.23464  0.96429  0.96835  1.0000
  H   H1770     1.0  0.27451  0.47244  0.11162  1.0000
  S   S445      1.0  0.41332  0.73958  0.35363  1.0000
  H   H1771     1.0  0.46264  0.66596  0.35986  1.0000
  S   S446      1.0  0.44764  0.76874  0.35858  1.0000
  H   H1772     1.0  0.25055  0.73518  0.29906  1.0000
  S   S447      1.0  0.43390  0.80409  0.44832  1.0000
  H   H1773     1.0  0.45077  0.93004  0.24543  1.0000
  H   H1774     1.0  0.31686  0.68023  0.42924  1.0000
  Fe  Fe229     1.0  0.37203  0.69288  0.29972  1.0000
  S   S448      1.0  0.35876  0.67346  0.32336  1.0000
  S   S449      1.0  0.39957  0.70037  0.29651  1.0000
  Fe  Fe230     1.0  0.34059  0.70026  0.27933  1.0000
  S   S450      1.0  0.32508  0.68120  0.30098  1.0000
  Fe  Fe231     1.0  0.33241  0.69384  0.32069  1.0000
  S   S451      1.0  0.31012  0.70590  0.34220  1.0000
  Fe  Fe232     1.0  0.35264  0.66251  0.30144  1.0000
  S   S452      1.0  0.35489  0.63213  0.30486  1.0000
  S   S453      1.0  0.34628  0.71419  0.29898  1.0000
  S   S454      1.0  0.36773  0.68054  0.27785  1.0000
  S   S455      1.0  0.45871  0.52523  0.29615  1.0000
  C   C1099     1.0  0.28000  0.68638  0.43925  1.0000
  S   S456      1.0  0.34095  0.56182  0.23403  1.0000
  Fe  Fe233     1.0  0.38799  0.53085  0.23954  1.0000
  S   S457      1.0  0.37072  0.54627  0.26122  1.0000
  H   H1775     1.0  0.47644  0.80502  0.40837  1.0000
  Fe  Fe234     1.0  0.34732  0.53706  0.25568  1.0000
  S   S458      1.0  0.32277  0.52935  0.27673  1.0000
  Fe  Fe235     1.0  0.36590  0.56958  0.23760  1.0000
  S   S459      1.0  0.36765  0.59915  0.23425  1.0000
  S   S460      1.0  0.36487  0.51962  0.23590  1.0000
  C   C1100     1.0  0.29564  0.73074  0.29969  1.0000
  H   H1776     1.0  0.47680  0.80017  0.37792  1.0000
  H   H1777     1.0  0.41108  0.55719  0.25213  1.0000
  H   H1778     1.0  0.31569  0.66971  0.23491  1.0000
  H   H1779     1.0  0.29051  0.51388  0.28716  1.0000
  C   C1101     1.0  0.44757  0.52048  0.28098  1.0000
  C   C1102     1.0  0.45736  0.51462  0.26486  1.0000
  C   C1103     1.0  0.44780  0.51245  0.25239  1.0000
  C   C1104     1.0  0.42849  0.51621  0.25595  1.0000
  C   C1105     1.0  0.41877  0.52157  0.27230  1.0000
  C   C1106     1.0  0.42828  0.52376  0.28474  1.0000
  Fe  Fe236     1.0  0.47018  0.76921  0.33344  1.0000
  C   C1107     1.0  0.45194  0.66669  0.35206  1.0000
  H   H1780     1.0  0.40392  0.52397  0.27539  1.0000
  H   H1781     1.0  0.42067  0.52811  0.29729  1.0000
  C   C1108     1.0  0.35774  0.62336  0.28512  1.0000
  C   C1109     1.0  0.35601  0.60525  0.28698  1.0000
  C   C1110     1.0  0.35861  0.59778  0.27144  1.0000
  C   C1111     1.0  0.36332  0.60830  0.25399  1.0000
  C   C1112     1.0  0.36510  0.62638  0.25212  1.0000
  C   C1113     1.0  0.36215  0.63395  0.26764  1.0000
  H   H1782     1.0  0.35255  0.59703  0.30049  1.0000
  H   H1783     1.0  0.35708  0.58386  0.27301  1.0000
  H   H1784     1.0  0.36888  0.63454  0.23865  1.0000
  H   H1785     1.0  0.36357  0.64789  0.26611  1.0000
  C   C1114     1.0  0.27021  0.66965  0.37737  1.0000
  C   C1115     1.0  0.26637  0.68834  0.37745  1.0000
  C   C1116     1.0  0.27870  0.69938  0.36651  1.0000
  C   C1117     1.0  0.29482  0.69180  0.35538  1.0000
  C   C1118     1.0  0.29844  0.67323  0.35492  1.0000
  C   C1119     1.0  0.28616  0.66217  0.36596  1.0000
  H   H1786     1.0  0.25394  0.69428  0.38592  1.0000
  H   H1787     1.0  0.27578  0.71381  0.36671  1.0000
  H   H1788     1.0  0.31083  0.66731  0.34629  1.0000
  H   H1789     1.0  0.28915  0.64771  0.36580  1.0000
  H   H1790     1.0  0.45658  0.70740  0.32346  1.0000
  H   H1791     1.0  0.26888  0.51538  0.34240  1.0000
  C   C1120     1.0  0.33519  0.49282  0.27592  1.0000
  H   H1792     1.0  0.44888  0.77942  0.39253  1.0000
  H   H1793     1.0  0.43417  0.56078  0.27828  1.0000
  H   H1794     1.0  0.31115  0.51551  0.21994  1.0000
  C   C1121     1.0  0.40859  0.73027  0.33696  1.0000
  C   C1122     1.0  0.42025  0.73034  0.31980  1.0000
  C   C1123     1.0  0.41691  0.72175  0.30722  1.0000
  C   C1124     1.0  0.40186  0.71306  0.31166  1.0000
  C   C1125     1.0  0.38982  0.71348  0.32858  1.0000
  C   C1126     1.0  0.39319  0.72208  0.34119  1.0000
  H   H1795     1.0  0.43187  0.73699  0.31620  1.0000
  H   H1796     1.0  0.42615  0.72165  0.29406  1.0000
  H   H1797     1.0  0.37816  0.70683  0.33212  1.0000
  H   H1798     1.0  0.38402  0.72210  0.35439  1.0000
  C   C1127     1.0  0.46259  0.76122  0.41338  1.0000
  C   C1128     1.0  0.45099  0.77714  0.40633  1.0000
  C   C1129     1.0  0.31812  0.71012  0.24345  1.0000
  C   C1130     1.0  0.44507  0.78754  0.43501  1.0000
  C   C1131     1.0  0.45661  0.77160  0.44205  1.0000
  C   C1132     1.0  0.46531  0.75847  0.43127  1.0000
  H   H1799     1.0  0.48245  0.91173  0.46517  1.0000
  S   S461      1.0  0.32752  0.71950  0.25669  1.0000
  H   H1800     1.0  0.34889  0.49019  0.21926  1.0000
  C   C1133     1.0  0.30233  0.50298  0.28497  1.0000
  H   H1801     1.0  0.40268  0.55937  0.27566  1.0000
  C   C1134     1.0  0.40555  0.56721  0.26136  1.0000
  H   H1802     1.0  0.30623  0.73661  0.22935  1.0000
  N   N113      1.0  0.45493  0.67913  0.33403  1.0000
  C   C1135     1.0  0.32567  0.60962  0.22014  1.0000
  H   H1803     1.0  0.27485  0.49982  0.36247  1.0000
  S   S462      1.0  0.47489  0.74508  0.39992  1.0000
  C   C1136     1.0  0.31373  0.68430  0.23352  1.0000
  C   C1137     1.0  0.29984  0.48497  0.28803  1.0000
  C   C1138     1.0  0.27516  0.71024  0.31644  1.0000
  C   C1139     1.0  0.30997  0.67034  0.42650  1.0000
  H   H1804     1.0  0.46229  0.84209  0.30868  1.0000
  H   H1805     1.0  0.44794  0.92429  0.21613  1.0000
  C   C1140     1.0  0.46165  0.92076  0.23840  1.0000
  N   N114      1.0  0.29755  0.50275  0.33969  1.0000
  H   H1806     1.0  0.47440  0.74624  0.43673  1.0000
  H   H1807     1.0  0.27868  0.67535  0.45172  1.0000
  H   H1808     1.0  0.29367  0.48141  0.23549  1.0000
  H   H1809     1.0  0.31486  0.60266  0.21939  1.0000
  C   C1141     1.0  0.47316  0.67244  0.32321  1.0000
  H   H1810     1.0  0.29932  0.74104  0.28709  1.0000
  H   H1811     1.0  0.23956  0.74446  0.45391  1.0000
  C   C1142     1.0  0.32000  0.50692  0.27904  1.0000
  H   H1812     1.0  0.28432  0.49218  0.32417  1.0000
  H   H1813     1.0  0.39965  0.79474  0.44796  1.0000
  H   H1814     1.0  0.40854  0.59770  0.23612  1.0000
  H   H1815     1.0  0.45538  0.50813  0.23981  1.0000
  C   C1143     1.0  0.30613  0.48225  0.23993  1.0000
  H   H1816     1.0  0.28559  0.72606  0.27048  1.0000
  H   H1817     1.0  0.41522  0.76852  0.43317  1.0000
  C   C1144     1.0  0.44041  0.67985  0.32419  1.0000
  Fe  Fe237     1.0  0.44184  0.74498  0.35026  1.0000
  C   C1145     1.0  0.46451  0.87703  0.30438  1.0000
  S   S463      1.0  0.46253  0.74735  0.32394  1.0000
  H   H1818     1.0  0.37756  0.79251  0.44569  1.0000
  H   H1819     1.0  0.29380  0.73688  0.31182  1.0000
  H   H1820     1.0  0.30552  0.52892  0.32914  1.0000
  C   C1146     1.0  0.43606  0.56820  0.26374  1.0000
  C   C1147     1.0  0.46001  0.91748  0.22183  1.0000
  H   H1821     1.0  0.23479  0.71503  0.44979  1.0000
  H   H1822     1.0  0.47458  0.83336  0.35456  1.0000
  H   H1823     1.0  0.45247  0.88070  0.31528  1.0000
  H   H1824     1.0  0.42768  0.57984  0.23035  1.0000
  H   H1825     1.0  0.44019  0.66611  0.32220  1.0000
  H   H1826     1.0  0.39343  0.76634  0.43015  1.0000
  H   H1827     1.0  0.46505  0.69743  0.34411  1.0000
  H   H1828     1.0  0.29930  0.70474  0.40902  1.0000
  C   C1148     1.0  0.27982  0.51037  0.35070  1.0000
  H   H1829     1.0  0.48292  0.95295  0.23959  1.0000
  H   H1830     1.0  0.26284  0.70482  0.31694  1.0000
  H   H1831     1.0  0.46567  0.80834  0.34577  1.0000
  C   C1149     1.0  0.26329  0.73967  0.29907  1.0000
  H   H1832     1.0  0.29439  0.70430  0.28332  1.0000
  H   H1833     1.0  0.27883  0.70137  0.40411  1.0000
  H   H1834     1.0  0.31887  0.66477  0.41450  1.0000
  H   H1835     1.0  0.47223  0.51207  0.26187  1.0000
  H   H1836     1.0  0.32832  0.60516  0.23433  1.0000
  H   H1837     1.0  0.32783  0.68198  0.25532  1.0000
  H   H1838     1.0  0.47412  0.65870  0.32050  1.0000
  H   H1839     1.0  0.44073  0.70317  0.34491  1.0000
  H   H1840     1.0  0.34891  0.49573  0.27159  1.0000
  C   C1150     1.0  0.32052  0.69123  0.24519  1.0000
  H   H1841     1.0  0.45912  0.76949  0.45569  1.0000
  H   H1842     1.0  0.41996  0.60165  0.27047  1.0000
  H   H1843     1.0  0.33390  0.49854  0.23858  1.0000
  C   C1151     1.0  0.38793  0.78764  0.45459  1.0000
  H   H1844     1.0  0.39220  0.57513  0.25795  1.0000
  H   H1845     1.0  0.28093  0.52200  0.35621  1.0000
  C   C1152     1.0  0.45424  0.69759  0.33674  1.0000
  S   S464      1.0  0.24943  0.48139  0.35291  1.0000
  N   N115      1.0  0.27911  0.72414  0.29964  1.0000
  H   H1846     1.0  0.44243  0.68887  0.31039  1.0000
  H   H1847     1.0  0.28692  0.69842  0.31744  1.0000
  C   C1153     1.0  0.48179  0.82889  0.34198  1.0000
  H   H1848     1.0  0.26580  0.69295  0.43716  1.0000
  H   H1849     1.0  0.29081  0.65980  0.40736  1.0000
  C   C1154     1.0  0.24235  0.73208  0.46399  1.0000
  S   S465      1.0  0.47741  0.79399  0.31255  1.0000
  H   H1850     1.0  0.30093  0.68929  0.39441  1.0000
  H   H1851     1.0  0.45241  0.65258  0.35059  1.0000
  H   H1852     1.0  0.44872  0.84535  0.29192  1.0000
  H   H1853     1.0  0.47302  0.85756  0.26731  1.0000
  H   H1854     1.0  0.30741  0.48486  0.36300  1.0000
  H   H1855     1.0  0.30774  0.71936  0.30024  1.0000
  H   H1856     1.0  0.30948  0.65882  0.43856  1.0000
  C   C1155     1.0  0.42167  0.58940  0.24000  1.0000
  N   N116      1.0  0.45960  0.86875  0.29135  1.0000
  H   H1857     1.0  0.39730  0.60120  0.26831  1.0000
  H   H1858     1.0  0.31374  0.50690  0.35686  1.0000
  C   C1156     1.0  0.30191  0.71506  0.21873  1.0000
  H   H1859     1.0  0.43951  0.85560  0.31176  1.0000
  C   C1157     1.0  0.28241  0.71597  0.28339  1.0000
  S   S466      1.0  0.46116  0.72381  0.36604  1.0000
  H   H1860     1.0  0.31703  0.51190  0.31573  1.0000
  H   H1861     1.0  0.28615  0.48208  0.29249  1.0000
  H   H1862     1.0  0.27030  0.71075  0.28288  1.0000
  H   H1863     1.0  0.30205  0.49294  0.24838  1.0000
  N   N117      1.0  0.32107  0.48638  0.22411  1.0000
  C   C1158     1.0  0.44230  0.79032  0.41712  1.0000
  C   C1159     1.0  0.40304  0.76212  0.43983  1.0000
  C   C1160     1.0  0.30847  0.72199  0.23048  1.0000
  H   H1864     1.0  0.40745  0.58525  0.28610  1.0000
  H   H1865     1.0  0.26051  0.74615  0.31114  1.0000
  C   C1161     1.0  0.41048  0.59243  0.27155  1.0000
  N   N118      1.0  0.41847  0.57932  0.25917  1.0000
  H   H1866     1.0  0.23791  0.50453  0.37937  1.0000
  H   H1867     1.0  0.48237  0.87563  0.27007  1.0000
  H   H1868     1.0  0.41959  0.76837  0.46386  1.0000
  H   H1869     1.0  0.33757  0.63528  0.23029  1.0000
  H   H1870     1.0  0.44641  0.57676  0.26174  1.0000
  H   H1871     1.0  0.29870  0.65113  0.22475  1.0000
  H   H1872     1.0  0.47610  0.68193  0.30979  1.0000
  H   H1873     1.0  0.44177  0.87644  0.27197  1.0000
  C   C1162     1.0  0.44563  0.88212  0.28209  1.0000
  H   H1874     1.0  0.43830  0.67148  0.36054  1.0000
  C   C1163     1.0  0.28272  0.66553  0.41955  1.0000
  S   S467      1.0  0.25582  0.65520  0.39198  1.0000
  H   H1875     1.0  0.26867  0.67171  0.41685  1.0000
  N   N119      1.0  0.29134  0.67914  0.42307  1.0000
  H   H1876     1.0  0.46985  0.88970  0.29737  1.0000
  Fe  Fe238     1.0  0.46882  0.74763  0.37210  1.0000
  H   H1877     1.0  0.43339  0.80266  0.41162  1.0000
  H   H1878     1.0  0.40799  0.74706  0.44155  1.0000
  C   C1164     1.0  0.45214  0.85227  0.30134  1.0000
  C   C1165     1.0  0.29267  0.69429  0.40696  1.0000
  S   S468      1.0  0.41682  0.51437  0.23967  1.0000
  C   C1166     1.0  0.30365  0.51718  0.32430  1.0000
  H   H1879     1.0  0.28137  0.65392  0.43143  1.0000
  N   N120      1.0  0.39412  0.76755  0.45757  1.0000
  H   H1880     1.0  0.47541  0.86755  0.31123  1.0000
  C   C1167     1.0  0.30335  0.63602  0.22818  1.0000
  H   H1881     1.0  0.28592  0.69682  0.44232  1.0000
  H   H1882     1.0  0.45085  0.89477  0.27456  1.0000
  C   C1168     1.0  0.30482  0.69622  0.21992  1.0000
  H   H1883     1.0  0.44211  0.55765  0.25515  1.0000
  H   H1884     1.0  0.42650  0.68532  0.33176  1.0000
  C   C1169     1.0  0.31155  0.49580  0.35125  1.0000
  H   H1885     1.0  0.26587  0.75040  0.28656  1.0000
  C   C1170     1.0  0.47671  0.81477  0.33702  1.0000
  H   H1886     1.0  0.47441  0.96149  0.37627  1.0000
  H   H1887     1.0  0.29354  0.52266  0.31513  1.0000
  H   H1888     1.0  0.43291  0.88630  0.29207  1.0000
  H   H1889     1.0  0.27270  0.71597  0.32895  1.0000
  Fe  Fe239     1.0  0.48233  0.72779  0.34022  1.0000
  H   H1890     1.0  0.29094  0.47632  0.34378  1.0000
  C   C1171     1.0  0.29520  0.48758  0.33251  1.0000
  H   H1891     1.0  0.30570  0.63244  0.24246  1.0000
  C   C1172     1.0  0.23961  0.71549  0.46167  1.0000
  C   C1173     1.0  0.33267  0.47480  0.27887  1.0000
  C   C1174     1.0  0.33722  0.48739  0.23076  1.0000
  H   H1892     1.0  0.30815  0.48173  0.32370  1.0000
  H   H1893     1.0  0.32506  0.48991  0.34328  1.0000
  C   C1175     1.0  0.47738  0.91237  0.24576  1.0000
  H   H1894     1.0  0.34215  0.47438  0.23993  1.0000
  S   S469      1.0  0.38479  0.55487  0.21623  1.0000
  H   H1895     1.0  0.36746  0.76315  0.45746  1.0000
  H   H1896     1.0  0.29181  0.62976  0.22799  1.0000
  H   H1897     1.0  0.45876  0.95698  0.22235  1.0000
  H   H1898     1.0  0.43124  0.59884  0.23777  1.0000
  H   H1899     1.0  0.34870  0.72230  0.21779  1.0000
  S   S470      1.0  0.47898  0.91774  0.26612  1.0000
  C   C1176     1.0  0.47619  0.86358  0.27758  1.0000
  C   C1177     1.0  0.33518  0.63821  0.21609  1.0000
  H   H1900     1.0  0.48437  0.67145  0.33045  1.0000
  H   H1901     1.0  0.26753  0.90730  0.61095  1.0000
  C   C1178     1.0  0.27005  0.56661  0.61743  1.0000
  H   H1902     1.0  0.43842  0.71386  0.59311  1.0000
  C   C1179     1.0  0.24869  0.73278  0.47935  1.0000
  S   S471      1.0  0.24564  0.78201  0.56189  1.0000
  S   S472      1.0  0.45235  0.57866  0.71237  1.0000
  Fe  Fe240     1.0  0.24305  0.53131  0.59085  1.0000
  C   C1180     1.0  0.45286  0.73335  0.56083  1.0000
  S   S473      1.0  0.43330  0.90704  0.60124  1.0000
  Fe  Fe241     1.0  0.30193  0.61505  0.65677  1.0000
  S   S474      1.0  0.33117  0.59903  0.65238  1.0000
  S   S475      1.0  0.28904  0.62854  0.63227  1.0000
  Fe  Fe242     1.0  0.26315  0.76765  0.53926  1.0000
  S   S476      1.0  0.29270  0.75543  0.54069  1.0000
  H   H1903     1.0  0.23477  0.69510  0.70786  1.0000
  Fe  Fe243     1.0  0.26578  0.75388  0.50450  1.0000
  S   S477      1.0  0.29568  0.74099  0.50291  1.0000
  N   N121      1.0  0.30810  0.80386  0.54947  1.0000
  Fe  Fe244     1.0  0.28736  0.73116  0.53324  1.0000
  Fe  Fe245     1.0  0.29831  0.76637  0.51045  1.0000
  S   S478      1.0  0.32038  0.78286  0.49672  1.0000
  S   S479      1.0  0.26904  0.78040  0.50946  1.0000
  S   S480      1.0  0.43541  0.58826  0.67448  1.0000
  H   H1904     1.0  0.23945  0.58479  0.50428  1.0000
  Fe  Fe246     1.0  0.43244  0.80999  0.51285  1.0000
  S   S481      1.0  0.43445  0.78181  0.53049  1.0000
  S   S482      1.0  0.42703  0.83454  0.52585  1.0000
  S   S483      1.0  0.43846  0.76693  0.49309  1.0000
  Fe  Fe247     1.0  0.41552  0.77753  0.51460  1.0000
  S   S484      1.0  0.39355  0.76078  0.52790  1.0000
  Fe  Fe248     1.0  0.45708  0.77402  0.50732  1.0000
  C   C1181     1.0  0.24248  0.68680  0.59777  1.0000
  S   S485      1.0  0.45646  0.80248  0.49061  1.0000
  C   C1182     1.0  0.25373  0.83413  0.54299  1.0000
  H   H1905     1.0  0.40122  0.76569  0.48339  1.0000
  H   H1906     1.0  0.35556  0.47532  0.59821  1.0000
  C   C1183     1.0  0.26583  0.58171  0.62594  1.0000
  H   H1907     1.0  0.27350  0.71618  0.60668  1.0000
  H   H1908     1.0  0.24188  0.90611  0.65684  1.0000
  H   H1909     1.0  0.28046  0.72421  0.57276  1.0000
  C   C1184     1.0  0.24983  0.70016  0.48991  1.0000
  C   C1185     1.0  0.46392  0.83421  0.52230  1.0000
  H   H1910     1.0  0.23724  0.89080  0.69050  1.0000
  Fe  Fe249     1.0  0.41337  0.60899  0.68773  1.0000
  S   S486      1.0  0.43299  0.62100  0.69628  1.0000
  S   S487      1.0  0.27721  0.60336  0.67304  1.0000
  C   C1186     1.0  0.47884  0.70816  0.56246  1.0000
  H   H1911     1.0  0.41255  0.74675  0.47241  1.0000
  C   C1187     1.0  0.46812  0.63545  0.65022  1.0000
  C   C1188     1.0  0.46914  0.65230  0.63809  1.0000
  S   S488      1.0  0.24250  0.93815  0.59397  1.0000
  H   H1912     1.0  0.37146  0.76204  0.47968  1.0000
  C   C1189     1.0  0.40463  0.95743  0.58244  1.0000
  H   H1913     1.0  0.45509  0.63103  0.65516  1.0000
  H   H1914     1.0  0.45685  0.66082  0.63375  1.0000
  S   S489      1.0  0.30094  0.93342  0.64127  1.0000
  H   H1915     1.0  0.28649  0.78866  0.56202  1.0000
  C   C1190     1.0  0.34044  0.77664  0.50574  1.0000
  C   C1191     1.0  0.34436  0.75999  0.51781  1.0000
  C   C1192     1.0  0.36063  0.75532  0.52469  1.0000
  C   C1193     1.0  0.37306  0.76721  0.51945  1.0000
  C   C1194     1.0  0.36902  0.78392  0.50750  1.0000
  C   C1195     1.0  0.35274  0.78863  0.50067  1.0000
  H   H1916     1.0  0.37837  0.79327  0.50357  1.0000
  H   H1917     1.0  0.34968  0.80159  0.49143  1.0000
  C   C1196     1.0  0.34743  0.60698  0.65933  1.0000
  C   C1197     1.0  0.36611  0.60248  0.65137  1.0000
  C   C1198     1.0  0.37932  0.60877  0.65664  1.0000
  C   C1199     1.0  0.37392  0.61939  0.67008  1.0000
  C   C1200     1.0  0.35525  0.62391  0.67803  1.0000
  C   C1201     1.0  0.34205  0.61761  0.67277  1.0000
  H   H1918     1.0  0.37034  0.59431  0.64092  1.0000
  H   H1919     1.0  0.39369  0.60558  0.65017  1.0000
  H   H1920     1.0  0.32778  0.62069  0.67940  1.0000
  H   H1921     1.0  0.36368  0.74236  0.53394  1.0000
  C   C1202     1.0  0.45043  0.52569  0.65935  1.0000
  H   H1922     1.0  0.45813  0.53134  0.64621  1.0000
  H   H1923     1.0  0.29088  0.90580  0.62879  1.0000
  H   H1924     1.0  0.40737  0.96983  0.57287  1.0000
  C   C1203     1.0  0.41312  0.95611  0.63310  1.0000
  C   C1204     1.0  0.44220  0.85627  0.53858  1.0000
  C   C1205     1.0  0.44571  0.84204  0.52908  1.0000
  H   H1925     1.0  0.27959  0.90625  0.66184  1.0000
  H   H1926     1.0  0.38992  0.57012  0.67022  1.0000
  H   H1927     1.0  0.25274  0.68783  0.50002  1.0000
  H   H1928     1.0  0.30311  0.83200  0.55176  1.0000
  H   H1929     1.0  0.35100  0.63223  0.68835  1.0000
  C   C1206     1.0  0.24675  0.66639  0.70967  1.0000
  C   C1207     1.0  0.25322  0.81584  0.54377  1.0000
  H   H1930     1.0  0.25844  0.81004  0.53163  1.0000
  H   H1931     1.0  0.41066  0.95190  0.62125  1.0000
  C   C1208     1.0  0.23965  0.83116  0.57513  1.0000
  H   H1932     1.0  0.38098  0.53965  0.68031  1.0000
  H   H1933     1.0  0.46191  0.74270  0.55187  1.0000
  C   C1209     1.0  0.24333  0.91811  0.66155  1.0000
  H   H1934     1.0  0.42264  0.94445  0.63983  1.0000
  C   C1210     1.0  0.41555  0.92611  0.59714  1.0000
  C   C1211     1.0  0.39771  0.92551  0.60734  1.0000
  C   C1212     1.0  0.29215  0.79982  0.56412  1.0000
  C   C1213     1.0  0.25754  0.65521  0.60492  1.0000
  C   C1214     1.0  0.41897  0.94205  0.58452  1.0000
  H   H1935     1.0  0.29737  0.79717  0.52921  1.0000
  H   H1936     1.0  0.43270  0.94262  0.57656  1.0000
  C   C1215     1.0  0.28578  0.93495  0.62690  1.0000
  C   C1216     1.0  0.27559  0.95185  0.61984  1.0000
  C   C1217     1.0  0.26242  0.95266  0.60967  1.0000
  C   C1218     1.0  0.25935  0.93661  0.60651  1.0000
  C   C1219     1.0  0.26964  0.91972  0.61347  1.0000
  C   C1220     1.0  0.28288  0.91891  0.62356  1.0000
  Fe  Fe250     1.0  0.27925  0.65271  0.64585  1.0000
  C   C1221     1.0  0.24707  0.84179  0.55867  1.0000
  N   N122      1.0  0.23986  0.66767  0.60259  1.0000
  C   C1222     1.0  0.24592  0.80515  0.56025  1.0000
  H   H1937     1.0  0.24333  0.66566  0.57457  1.0000
  S   S490      1.0  0.25093  0.75399  0.48238  1.0000
  S   S491      1.0  0.25888  0.62901  0.71388  1.0000
  H   H1938     1.0  0.47997  0.88122  0.49959  1.0000
  C   C1223     1.0  0.38037  0.54030  0.69473  1.0000
  C   C1224     1.0  0.25263  0.71673  0.49220  1.0000
  C   C1225     1.0  0.37814  0.75867  0.46603  1.0000
  H   H1939     1.0  0.46847  0.89586  0.51544  1.0000
  Fe  Fe251     1.0  0.26853  0.62960  0.68359  1.0000
  H   H1940     1.0  0.39493  0.91313  0.61693  1.0000
  C   C1226     1.0  0.30272  0.80843  0.53148  1.0000
  H   H1941     1.0  0.46676  0.82321  0.51499  1.0000
  C   C1227     1.0  0.47493  0.85495  0.53440  1.0000
  C   C1228     1.0  0.47458  0.82819  0.58031  1.0000
  N   N123      1.0  0.46292  0.71870  0.57332  1.0000
  S   S492      1.0  0.24160  0.50221  0.60461  1.0000
  C   C1229     1.0  0.47849  0.84075  0.52485  1.0000
  H   H1942     1.0  0.47697  0.48155  0.68121  1.0000
  Fe  Fe252     1.0  0.31303  0.95844  0.63703  1.0000
  H   H1943     1.0  0.25764  0.71713  0.50402  1.0000
  C   C1230     1.0  0.35764  0.56840  0.69302  1.0000
  H   H1944     1.0  0.46856  0.49934  0.69416  1.0000
  H   H1945     1.0  0.47910  0.73598  0.57725  1.0000
  C   C1231     1.0  0.39936  0.96697  0.66129  1.0000
  H   H1946     1.0  0.26234  0.92493  0.69410  1.0000
  H   H1947     1.0  0.27752  0.96423  0.62265  1.0000
  Fe  Fe253     1.0  0.24529  0.49695  0.57655  1.0000
  S   S493      1.0  0.24912  0.52533  0.56263  1.0000
  S   S494      1.0  0.48186  0.88018  0.58484  1.0000
  H   H1948     1.0  0.38374  0.94032  0.64187  1.0000
  H   H1949     1.0  0.48269  0.79138  0.59026  1.0000
  H   H1950     1.0  0.38767  0.58347  0.68709  1.0000
  H   H1951     1.0  0.38160  0.79227  0.46773  1.0000
  C   C1232     1.0  0.23512  0.58889  0.61975  1.0000
  H   H1952     1.0  0.29587  0.79553  0.57784  1.0000
  H   H1953     1.0  0.30554  0.66814  0.57083  1.0000
  S   S495      1.0  0.24800  0.86474  0.55703  1.0000
  C   C1233     1.0  0.38997  0.56932  0.68483  1.0000
  C   C1234     1.0  0.38673  0.94510  0.65310  1.0000
  H   H1954     1.0  0.47448  0.70218  0.55289  1.0000
  H   H1955     1.0  0.36964  0.93994  0.61268  1.0000
  C   C1235     1.0  0.24311  0.69953  0.47478  1.0000
  N   N124      1.0  0.47686  0.47261  0.71003  1.0000
  C   C1236     1.0  0.46819  0.65434  0.68740  1.0000
  C   C1237     1.0  0.23936  0.57379  0.61120  1.0000
  H   H1956     1.0  0.25932  0.84237  0.53017  1.0000
  H   H1957     1.0  0.44763  0.72770  0.55160  1.0000
  H   H1958     1.0  0.47689  0.48123  0.61453  1.0000
  H   H1959     1.0  0.31846  0.81659  0.56560  1.0000
  C   C1238     1.0  0.38683  0.95690  0.59290  1.0000
  H   H1960     1.0  0.33497  0.75062  0.52171  1.0000
  S   S496      1.0  0.48301  0.60340  0.67130  1.0000
  H   H1961     1.0  0.38227  0.74352  0.46812  1.0000
  H   H1962     1.0  0.32627  0.82298  0.54129  1.0000
  H   H1963     1.0  0.46827  0.83096  0.59426  1.0000
  H   H1964     1.0  0.46164  0.89996  0.49389  1.0000
  C   C1239     1.0  0.46947  0.72687  0.58532  1.0000
  C   C1240     1.0  0.48399  0.62429  0.65574  1.0000
  H   H1965     1.0  0.48208  0.66995  0.70700  1.0000
  S   S497      1.0  0.42830  0.54036  0.70854  1.0000
  S   S498      1.0  0.24251  0.61197  0.63771  1.0000
  H   H1966     1.0  0.39560  0.93340  0.66056  1.0000
  H   H1967     1.0  0.44835  0.54899  0.67104  1.0000
  H   H1968     1.0  0.28080  0.81203  0.56459  1.0000
  C   C1241     1.0  0.43633  0.50112  0.67933  1.0000
  C   C1242     1.0  0.44482  0.53575  0.67338  1.0000
  S   S499      1.0  0.45434  0.49568  0.64478  1.0000
  S   S500      1.0  0.29415  0.64010  0.66892  1.0000
  H   H1969     1.0  0.26818  0.65674  0.59211  1.0000
  N   N125      1.0  0.25222  0.91240  0.67761  1.0000
  H   H1970     1.0  0.26791  0.88738  0.66947  1.0000
  C   C1243     1.0  0.48186  0.62631  0.70559  1.0000
  H   H1971     1.0  0.29827  0.66003  0.60464  1.0000
  H   H1972     1.0  0.28363  0.55799  0.61659  1.0000
  H   H1973     1.0  0.46176  0.66907  0.68661  1.0000
  H   H1974     1.0  0.27612  0.58469  0.63155  1.0000
  S   S501      1.0  0.25275  0.64452  0.66160  1.0000
  Fe  Fe254     1.0  0.43576  0.79610  0.47820  1.0000
  H   H1975     1.0  0.24459  0.53117  0.66714  1.0000
  H   H1976     1.0  0.26283  0.65803  0.61590  1.0000
  S   S502      1.0  0.38999  0.62858  0.67583  1.0000
  C   C1244     1.0  0.29344  0.69669  0.56958  1.0000
  H   H1977     1.0  0.43298  0.48779  0.68170  1.0000
  H   H1978     1.0  0.29179  0.82096  0.53022  1.0000
  Fe  Fe255     1.0  0.45460  0.59867  0.68547  1.0000
  N   N126      1.0  0.33642  0.66636  0.63224  1.0000
  C   C1245     1.0  0.32710  0.66975  0.65070  1.0000
  C   C1246     1.0  0.33300  0.68344  0.61855  1.0000
  C   C1247     1.0  0.32908  0.65214  0.62817  1.0000
  C   C1248     1.0  0.35641  0.66010  0.63154  1.0000
  H   H1979     1.0  0.31195  0.67452  0.65168  1.0000
  H   H1980     1.0  0.33231  0.68038  0.65428  1.0000
  H   H1981     1.0  0.32928  0.65713  0.66138  1.0000
  H   H1982     1.0  0.33936  0.68132  0.60438  1.0000
  H   H1983     1.0  0.31798  0.68868  0.61904  1.0000
  H   H1984     1.0  0.33861  0.69442  0.62098  1.0000
  H   H1985     1.0  0.33551  0.64940  0.61423  1.0000
  H   H1986     1.0  0.31399  0.65627  0.62901  1.0000
  H   H1987     1.0  0.33157  0.63899  0.63807  1.0000
  H   H1988     1.0  0.35940  0.64714  0.64160  1.0000
  H   H1989     1.0  0.36242  0.67034  0.63482  1.0000
  H   H1990     1.0  0.36388  0.65748  0.61778  1.0000
  S   S503      1.0  0.46388  0.90911  0.55123  1.0000
  H   H1991     1.0  0.24602  0.66639  0.69583  1.0000
  C   C1249     1.0  0.28527  0.68752  0.60798  1.0000
  S   S504      1.0  0.34228  0.95523  0.63948  1.0000
  H   H1992     1.0  0.34665  0.56134  0.70210  1.0000
  C   C1250     1.0  0.43501  0.52848  0.69043  1.0000
  C   C1251     1.0  0.29445  0.67403  0.59784  1.0000
  S   S505      1.0  0.27915  0.68212  0.63195  1.0000
  H   H1993     1.0  0.24266  0.93872  0.68511  1.0000
  H   H1994     1.0  0.35395  0.58285  0.69477  1.0000
  C   C1252     1.0  0.24075  0.50255  0.52415  1.0000
  S   S506      1.0  0.24807  0.88344  0.60142  1.0000
  H   H1995     1.0  0.44090  0.74182  0.56847  1.0000
  Fe  Fe256     1.0  0.26348  0.61920  0.64958  1.0000
  S   S507      1.0  0.41144  0.80640  0.49885  1.0000
  C   C1253     1.0  0.31427  0.81954  0.55216  1.0000
  H   H1996     1.0  0.35718  0.56858  0.67863  1.0000
  H   H1997     1.0  0.45809  0.64743  0.68508  1.0000
  Fe  Fe257     1.0  0.46055  0.90623  0.58153  1.0000
  C   C1254     1.0  0.45675  0.86266  0.54133  1.0000
  H   H1998     1.0  0.23846  0.59905  0.47231  1.0000
  H   H1999     1.0  0.47050  0.77931  0.53623  1.0000
  H   H2000     1.0  0.45791  0.73514  0.59357  1.0000
  H   H2001     1.0  0.24702  0.69035  0.60888  1.0000
  S   S508      1.0  0.25719  0.74224  0.53442  1.0000
  C   C1255     1.0  0.32326  0.78768  0.55011  1.0000
  H   H2002     1.0  0.32752  0.78359  0.56357  1.0000
  H   H2003     1.0  0.31917  0.77573  0.54769  1.0000
  H   H2004     1.0  0.33563  0.79036  0.53944  1.0000
  C   C1256     1.0  0.45055  0.70636  0.58468  1.0000
  H   H2005     1.0  0.25610  0.64063  0.60877  1.0000
  C   C1257     1.0  0.23899  0.81291  0.57587  1.0000
  C   C1258     1.0  0.38338  0.94077  0.60510  1.0000
  H   H2006     1.0  0.44542  0.69986  0.57610  1.0000
  H   H2007     1.0  0.47162  0.61877  0.70457  1.0000
  H   H2008     1.0  0.42813  0.86234  0.54389  1.0000
  H   H2009     1.0  0.26159  0.47705  0.50543  1.0000
  C   C1259     1.0  0.48271  0.76991  0.53975  1.0000
  H   H2010     1.0  0.25148  0.92630  0.64981  1.0000
  C   C1260     1.0  0.47841  0.92671  0.49427  1.0000
  H   H2011     1.0  0.42285  0.50564  0.70643  1.0000
  H   H2012     1.0  0.47700  0.71618  0.59502  1.0000
  H   H2013     1.0  0.25318  0.68919  0.58510  1.0000
  H   H2014     1.0  0.46501  0.82200  0.57610  1.0000
  H   H2015     1.0  0.24622  0.89876  0.70583  1.0000
  N   N127      1.0  0.39566  0.96111  0.64592  1.0000
  C   C1261     1.0  0.28447  0.71023  0.57971  1.0000
  H   H2016     1.0  0.26502  0.93580  0.67038  1.0000
  H   H2017     1.0  0.40865  0.95592  0.66894  1.0000
  C   C1262     1.0  0.28054  0.70567  0.59890  1.0000
  Fe  Fe258     1.0  0.43137  0.56993  0.70235  1.0000
  S   S509      1.0  0.26374  0.47387  0.56361  1.0000
  C   C1263     1.0  0.24834  0.59290  0.62713  1.0000
  C   C1264     1.0  0.43063  0.51123  0.69332  1.0000
  H   H2018     1.0  0.47359  0.92782  0.50893  1.0000
  S   S510      1.0  0.26268  0.54290  0.60037  1.0000
  C   C1265     1.0  0.24003  0.90319  0.69342  1.0000
  H   H2019     1.0  0.31461  0.81084  0.52004  1.0000
  H   H2020     1.0  0.37342  0.94841  0.66271  1.0000
  H   H2021     1.0  0.45384  0.87350  0.54884  1.0000
  H   H2022     1.0  0.40405  0.56248  0.68699  1.0000
  C   C1266     1.0  0.44633  0.50830  0.66233  1.0000
  C   C1267     1.0  0.25686  0.56257  0.61007  1.0000
  S   S511      1.0  0.29806  0.70189  0.54562  1.0000
  C   C1268     1.0  0.29854  0.67862  0.57868  1.0000
  H   H2023     1.0  0.48017  0.65339  0.67576  1.0000
  H   H2024     1.0  0.24397  0.50796  0.64047  1.0000
  S   S512      1.0  0.23937  0.67858  0.47262  1.0000
  N   N128      1.0  0.37594  0.55941  0.69725  1.0000
  S   S513      1.0  0.47989  0.92466  0.57929  1.0000
  C   C1269     1.0  0.47372  0.89570  0.50062  1.0000
  C   C1270     1.0  0.26988  0.89961  0.67339  1.0000
  H   H2025     1.0  0.24955  0.50857  0.51136  1.0000
  H   H2026     1.0  0.39400  0.53313  0.69811  1.0000
  H   H2027     1.0  0.36995  0.53243  0.70369  1.0000
  H   H2028     1.0  0.24853  0.49945  0.53533  1.0000
  C   C1271     1.0  0.40744  0.76181  0.46985  1.0000
  H   H2029     1.0  0.25094  0.53627  0.64265  1.0000
  H   H2030     1.0  0.46626  0.93185  0.48764  1.0000
  H   H2031     1.0  0.27683  0.89481  0.68529  1.0000
  C   C1272     1.0  0.25567  0.92868  0.68203  1.0000
  S   S514      1.0  0.48349  0.75431  0.51116  1.0000
  C   C1273     1.0  0.23912  0.53752  0.65443  1.0000
  C   C1274     1.0  0.47890  0.48648  0.69289  1.0000
  H   H2032     1.0  0.42034  0.96779  0.62749  1.0000
  H   H2033     1.0  0.48022  0.77911  0.56456  1.0000
  H   H2034     1.0  0.45779  0.69518  0.59428  1.0000
  H   H2035     1.0  0.47526  0.84167  0.57099  1.0000
  N   N129      1.0  0.47380  0.64590  0.70514  1.0000
  H   H2036     1.0  0.25426  0.96569  0.60456  1.0000
  H   H2037     1.0  0.23726  0.50160  0.66487  1.0000
  N   N130      1.0  0.23547  0.48603  0.52225  1.0000
  H   H2038     1.0  0.38637  0.97074  0.67120  1.0000
  S   S515      1.0  0.40776  0.58995  0.71479  1.0000
  H   H2039     1.0  0.23454  0.83692  0.58731  1.0000
  H   H2040     1.0  0.37974  0.97213  0.62494  1.0000
  H   H2041     1.0  0.24117  0.71577  0.83587  1.0000
  Fe  Fe259     1.0  0.34088  0.71706  0.87437  1.0000
  S   S516      1.0  0.34500  0.72300  0.90001  1.0000
  S   S517      1.0  0.36341  0.71289  0.84969  1.0000
  Fe  Fe260     1.0  0.29937  0.72381  0.88600  1.0000
  S   S518      1.0  0.29987  0.73081  0.91232  1.0000
  S   S519      1.0  0.27143  0.72600  0.88027  1.0000
  Fe  Fe261     1.0  0.32146  0.74665  0.89605  1.0000
  S   S520      1.0  0.31859  0.77469  0.90160  1.0000
  Fe  Fe262     1.0  0.32306  0.70667  0.91432  1.0000
  S   S521      1.0  0.32570  0.68615  0.94064  1.0000
  S   S522      1.0  0.31877  0.74202  0.86933  1.0000
  S   S523      1.0  0.32112  0.69834  0.88899  1.0000
  C   C1275     1.0  0.31365  0.82870  0.88639  1.0000
  C   C1276     1.0  0.35181  0.72224  0.94854  1.0000
  H   H2042     1.0  0.46597  0.82996  0.89320  1.0000
  S   S524      1.0  0.36575  0.83816  0.92798  1.0000
  S   S525      1.0  0.37862  0.78487  0.93943  1.0000
  Fe  Fe263     1.0  0.38362  0.84825  0.94090  1.0000
  S   S526      1.0  0.40405  0.86581  0.92412  1.0000
  C   C1277     1.0  0.46977  0.94593  0.83430  1.0000
  S   S527      1.0  0.31379  0.85882  0.94721  1.0000
  H   H2043     1.0  0.30175  0.73257  0.83694  1.0000
  H   H2044     1.0  0.29080  0.71160  0.94734  1.0000
  S   S528      1.0  0.30666  0.91413  0.87252  1.0000
  H   H2045     1.0  0.37249  0.57391  0.71876  1.0000
  H   H2046     1.0  0.30651  0.74240  0.95627  1.0000
  C   C1278     1.0  0.26867  0.68067  0.90795  1.0000
  H   H2047     1.0  0.32228  0.81476  0.88918  1.0000
  H   H2048     1.0  0.33980  0.82814  0.90448  1.0000
  S   S529      1.0  0.47145  0.61515  0.83332  1.0000
  H   H2049     1.0  0.31901  0.84329  0.91245  1.0000
  Fe  Fe264     1.0  0.45414  0.64157  0.84021  1.0000
  S   S530      1.0  0.42602  0.64200  0.85836  1.0000
  H   H2050     1.0  0.24029  0.82729  0.79898  1.0000
  H   H2051     1.0  0.30070  0.86383  0.89044  1.0000
  S   S531      1.0  0.46219  0.65830  0.81217  1.0000
  H   H2052     1.0  0.35030  0.71008  0.94410  1.0000
  H   H2053     1.0  0.31760  0.70238  0.80329  1.0000
  S   S532      1.0  0.36007  0.85927  0.96188  1.0000
  H   H2054     1.0  0.45294  0.54797  0.81699  1.0000
  S   S533      1.0  0.42331  0.60924  0.74941  1.0000
  C   C1279     1.0  0.45217  0.58378  0.81231  1.0000
  S   S534      1.0  0.23647  0.94806  0.84233  1.0000
  H   H2055     1.0  0.33615  0.84165  0.85554  1.0000
  C   C1280     1.0  0.32688  0.71199  0.80180  1.0000
  C   C1281     1.0  0.33656  0.73135  0.81638  1.0000
  C   C1282     1.0  0.25339  0.65006  0.72100  1.0000
  H   H2056     1.0  0.31792  0.72452  0.94384  1.0000
  C   C1283     1.0  0.25279  0.71101  0.84262  1.0000
  H   H2057     1.0  0.29492  0.71961  0.82429  1.0000
  H   H2058     1.0  0.32562  0.70746  0.84707  1.0000
  H   H2059     1.0  0.48034  0.55170  0.83756  1.0000
  C   C1284     1.0  0.28306  0.69907  0.85990  1.0000
  H   H2060     1.0  0.34881  0.85121  0.86628  1.0000
  H   H2061     1.0  0.31325  0.96643  0.73530  1.0000
  H   H2062     1.0  0.34962  0.82698  0.87166  1.0000
  C   C1285     1.0  0.46975  0.61765  0.77203  1.0000
  C   C1286     1.0  0.24808  0.66648  0.74566  1.0000
  C   C1287     1.0  0.45974  0.60518  0.75086  1.0000
  C   C1288     1.0  0.44139  0.61218  0.75798  1.0000
  C   C1289     1.0  0.43726  0.62174  0.77226  1.0000
  C   C1290     1.0  0.45141  0.62454  0.77925  1.0000
  H   H2063     1.0  0.45159  0.70977  0.83035  1.0000
  H   H2064     1.0  0.46300  0.59761  0.73999  1.0000
  H   H2065     1.0  0.42306  0.62714  0.77784  1.0000
  H   H2066     1.0  0.44811  0.63204  0.79017  1.0000
  C   C1291     1.0  0.31997  0.73629  0.94843  1.0000
  H   H2067     1.0  0.44728  0.47946  0.71618  1.0000
  C   C1292     1.0  0.46582  0.55268  0.80918  1.0000
  H   H2068     1.0  0.27279  0.70751  0.92208  1.0000
  H   H2069     1.0  0.30159  0.74089  0.81297  1.0000
  H   H2070     1.0  0.35126  0.72439  0.81325  1.0000
  C   C1293     1.0  0.33693  0.74652  0.96512  1.0000
  H   H2071     1.0  0.34273  0.69579  0.83114  1.0000
  C   C1294     1.0  0.33075  0.84160  0.90067  1.0000
  H   H2072     1.0  0.29164  0.67817  0.84364  1.0000
  C   C1295     1.0  0.30641  0.68581  0.95878  1.0000
  H   H2073     1.0  0.47223  0.93442  0.82713  1.0000
  C   C1296     1.0  0.28131  0.68992  0.84696  1.0000
  H   H2074     1.0  0.46147  0.69717  0.87703  1.0000
  H   H2075     1.0  0.38952  0.55319  0.72000  1.0000
  N   N131      1.0  0.33436  0.73047  0.95953  1.0000
  H   H2076     1.0  0.27894  0.89992  0.90248  1.0000
  H   H2077     1.0  0.43901  0.58015  0.82075  1.0000
  N   N132      1.0  0.32406  0.71868  0.81888  1.0000
  C   C1297     1.0  0.31141  0.87597  0.92759  1.0000
  C   C1298     1.0  0.29409  0.88264  0.92283  1.0000
  C   C1299     1.0  0.29224  0.89514  0.90631  1.0000
  C   C1300     1.0  0.30775  0.90087  0.89451  1.0000
  C   C1301     1.0  0.32496  0.89458  0.89954  1.0000
  C   C1302     1.0  0.32678  0.88221  0.91608  1.0000
  H   H2078     1.0  0.28216  0.87787  0.93175  1.0000
  H   H2079     1.0  0.24165  0.85513  0.80921  1.0000
  H   H2080     1.0  0.33698  0.89903  0.89044  1.0000
  H   H2081     1.0  0.34015  0.87725  0.91974  1.0000
  C   C1303     1.0  0.45955  0.85756  0.94025  1.0000
  C   C1304     1.0  0.45445  0.87199  0.92620  1.0000
  C   C1305     1.0  0.43751  0.87422  0.92113  1.0000
  C   C1306     1.0  0.42564  0.86203  0.93003  1.0000
  C   C1307     1.0  0.43099  0.84739  0.94378  1.0000
  C   C1308     1.0  0.44784  0.84522  0.94895  1.0000
  H   H2082     1.0  0.46336  0.88163  0.91949  1.0000
  H   H2083     1.0  0.43344  0.88558  0.91047  1.0000
  C   C1309     1.0  0.47640  0.96704  0.80567  1.0000
  H   H2084     1.0  0.42210  0.83782  0.95055  1.0000
  C   C1310     1.0  0.38067  0.69310  0.85220  1.0000
  C   C1311     1.0  0.37941  0.67972  0.86824  1.0000
  C   C1312     1.0  0.39329  0.66394  0.86983  1.0000
  C   C1313     1.0  0.40860  0.66160  0.85554  1.0000
  C   C1314     1.0  0.40989  0.67503  0.83953  1.0000
  C   C1315     1.0  0.39589  0.69071  0.83784  1.0000
  H   H2085     1.0  0.36769  0.68143  0.87936  1.0000
  H   H2086     1.0  0.39224  0.65355  0.88224  1.0000
  H   H2087     1.0  0.42155  0.67321  0.82839  1.0000
  H   H2088     1.0  0.39686  0.70100  0.82536  1.0000
  C   C1316     1.0  0.33552  0.77750  0.91181  1.0000
  C   C1317     1.0  0.33148  0.79140  0.92178  1.0000
  C   C1318     1.0  0.34479  0.79391  0.93005  1.0000
  C   C1319     1.0  0.36212  0.78238  0.92854  1.0000
  C   C1320     1.0  0.36613  0.76840  0.91868  1.0000
  C   C1321     1.0  0.35288  0.76603  0.91022  1.0000
  H   H2089     1.0  0.31797  0.80015  0.92329  1.0000
  H   H2090     1.0  0.34155  0.80461  0.93782  1.0000
  H   H2091     1.0  0.37959  0.75953  0.91742  1.0000
  H   H2092     1.0  0.35623  0.75553  0.90224  1.0000
  H   H2093     1.0  0.29471  0.69436  0.86656  1.0000
  Fe  Fe265     1.0  0.34293  0.84657  0.95077  1.0000
  C   C1322     1.0  0.26964  0.71420  0.86421  1.0000
  C   C1323     1.0  0.47388  0.60791  0.75788  1.0000
  H   H2094     1.0  0.24226  0.67614  0.95087  1.0000
  H   H2095     1.0  0.43286  0.68492  0.88601  1.0000
  H   H2096     1.0  0.45120  0.68590  0.83678  1.0000
  H   H2097     1.0  0.36553  0.55217  0.72620  1.0000
  N   N133      1.0  0.26350  0.68227  0.92739  1.0000
  C   C1324     1.0  0.25427  0.65022  0.73891  1.0000
  C   C1325     1.0  0.45756  0.64783  0.72020  1.0000
  H   H2098     1.0  0.34129  0.70454  0.79798  1.0000
  H   H2099     1.0  0.32399  0.72345  0.79017  1.0000
  S   S535      1.0  0.28039  0.93000  0.83375  1.0000
  Fe  Fe266     1.0  0.37159  0.81197  0.94817  1.0000
  H   H2100     1.0  0.30711  0.86272  0.86661  1.0000
  Fe  Fe267     1.0  0.25379  0.91999  0.84192  1.0000
  S   S536      1.0  0.25148  0.90008  0.82578  1.0000
  Fe  Fe268     1.0  0.26317  0.95751  0.83666  1.0000
  H   H2101     1.0  0.33417  0.74328  0.80505  1.0000
  C   C1326     1.0  0.29107  0.70011  0.95859  1.0000
  H   H2102     1.0  0.33874  0.85232  0.89915  1.0000
  H   H2103     1.0  0.30807  0.82973  0.87408  1.0000
  H   H2104     1.0  0.41897  0.68769  0.86951  1.0000
  S   S537      1.0  0.47557  0.64744  0.85181  1.0000
  C   C1327     1.0  0.31264  0.86122  0.87908  1.0000
  N   N134      1.0  0.32436  0.84302  0.88369  1.0000
  C   C1328     1.0  0.30477  0.72837  0.82348  1.0000
  H   H2105     1.0  0.45073  0.58745  0.79774  1.0000
  C   C1329     1.0  0.24033  0.68262  0.71653  1.0000
  C   C1330     1.0  0.37583  0.55966  0.71640  1.0000
  H   H2106     1.0  0.32047  0.87232  0.87634  1.0000
  C   C1331     1.0  0.26633  0.69605  0.83810  1.0000
  C   C1332     1.0  0.34046  0.84059  0.86860  1.0000
  H   H2107     1.0  0.24312  0.88915  0.79654  1.0000
  H   H2108     1.0  0.33468  0.73667  0.82904  1.0000
  N   N135      1.0  0.44284  0.69995  0.85922  1.0000
  C   C1333     1.0  0.44390  0.69950  0.83992  1.0000
  C   C1334     1.0  0.43241  0.71797  0.86297  1.0000
  C   C1335     1.0  0.46164  0.69693  0.86262  1.0000
  C   C1336     1.0  0.43338  0.68545  0.87133  1.0000
  N   N136      1.0  0.48106  0.95961  0.82396  1.0000
  N   N137      1.0  0.46802  0.56864  0.81519  1.0000
  H   H2109     1.0  0.42999  0.70231  0.83668  1.0000
  H   H2110     1.0  0.43133  0.71880  0.87743  1.0000
  H   H2111     1.0  0.43914  0.72922  0.85400  1.0000
  H   H2112     1.0  0.41814  0.72066  0.86053  1.0000
  H   H2113     1.0  0.46994  0.68351  0.85982  1.0000
  H   H2114     1.0  0.33033  0.95868  0.74938  1.0000
  H   H2115     1.0  0.46925  0.70751  0.85354  1.0000
  C   C1337     1.0  0.47149  0.82329  0.90584  1.0000
  C   C1338     1.0  0.24067  0.68263  0.73465  1.0000
  H   H2116     1.0  0.27110  0.66624  0.90644  1.0000
  H   H2117     1.0  0.31938  0.69280  0.83577  1.0000
  H   H2118     1.0  0.28160  0.65698  0.93606  1.0000
  H   H2119     1.0  0.39674  0.87127  0.96310  1.0000
  S   S538      1.0  0.26409  0.95396  0.86618  1.0000
  H   H2120     1.0  0.47751  0.54094  0.81125  1.0000
  H   H2121     1.0  0.46521  0.55601  0.79439  1.0000
  H   H2122     1.0  0.30169  0.95973  0.82237  1.0000
  H   H2123     1.0  0.46144  0.64230  0.73381  1.0000
  H   H2124     1.0  0.29153  0.67692  0.93081  1.0000
  H   H2125     1.0  0.46828  0.80935  0.91043  1.0000
  H   H2126     1.0  0.44042  0.67169  0.86840  1.0000
  C   C1339     1.0  0.25438  0.71997  0.85576  1.0000
  H   H2127     1.0  0.30182  0.82971  0.89818  1.0000
  H   H2128     1.0  0.24160  0.96421  0.90031  1.0000
  S   S539      1.0  0.26539  0.68528  0.82088  1.0000
  H   H2129     1.0  0.25621  0.70351  0.94299  1.0000
  H   H2130     1.0  0.27501  0.67236  0.95166  1.0000
  C   C1340     1.0  0.32437  0.97045  0.73943  1.0000
  C   C1341     1.0  0.32807  0.70298  0.83386  1.0000
  H   H2131     1.0  0.45065  0.66238  0.71986  1.0000
  H   H2132     1.0  0.45371  0.59634  0.81593  1.0000
  H   H2133     1.0  0.24847  0.66043  0.93559  1.0000
  Fe  Fe269     1.0  0.27932  0.92543  0.86389  1.0000
  H   H2134     1.0  0.25962  0.63768  0.74764  1.0000
  C   C1342     1.0  0.23474  0.84915  0.82318  1.0000
  H   H2135     1.0  0.46370  0.83126  0.91655  1.0000
  S   S540      1.0  0.25402  0.91315  0.87205  1.0000
  H   H2136     1.0  0.47297  0.94002  0.84818  1.0000
  C   C1343     1.0  0.27856  0.67167  0.93688  1.0000
  C   C1344     1.0  0.24653  0.67509  0.93618  1.0000
  H   H2137     1.0  0.36303  0.71774  0.95644  1.0000
  H   H2138     1.0  0.47970  0.96940  0.84816  1.0000
  H   H2139     1.0  0.24896  0.66646  0.75942  1.0000
  H   H2140     1.0  0.47898  0.95615  0.79768  1.0000
  H   H2141     1.0  0.47134  0.57505  0.83969  1.0000
  H   H2142     1.0  0.42719  0.87661  0.96295  1.0000
  C   C1345     1.0  0.46894  0.56356  0.83482  1.0000
  H   H2143     1.0  0.24568  0.84163  0.83100  1.0000
  H   H2144     1.0  0.24919  0.71019  0.92121  1.0000
  H   H2145     1.0  0.24388  0.73158  0.85917  1.0000
  Fe  Fe270     1.0  0.23872  0.94227  0.87188  1.0000
  Fe  Fe271     1.0  0.42919  0.60031  0.72238  1.0000
  H   H2146     1.0  0.45482  0.95214  0.83614  1.0000
  H   H2147     1.0  0.46758  0.49264  0.72711  1.0000
  H   H2148     1.0  0.32369  0.74666  0.93595  1.0000
  H   H2149     1.0  0.24484  0.81373  0.82068  1.0000
  H   H2150     1.0  0.28146  0.68595  0.90100  1.0000
  H   H2151     1.0  0.33385  0.96415  0.81149  1.0000
  S   S541      1.0  0.48026  0.85460  0.94751  1.0000
  H   H2152     1.0  0.23488  0.68280  0.92934  1.0000
  Fe  Fe272     1.0  0.48144  0.63227  0.80613  1.0000
  H   H2153     1.0  0.45597  0.55969  0.84349  1.0000
  Fe  Fe273     1.0  0.23928  0.69379  0.80967  1.0000
  C   C1346     1.0  0.26025  0.70171  0.92853  1.0000
  H   H2154     1.0  0.35641  0.73215  0.93598  1.0000
  C   C1347     1.0  0.47839  0.48016  0.72532  1.0000
  H   H2155     1.0  0.45180  0.83396  0.95975  1.0000
  H   H2156     1.0  0.44716  0.64029  0.71950  1.0000
  S   S542      1.0  0.39137  0.82127  0.95923  1.0000
  H   H2157     1.0  0.34091  0.75720  0.95302  1.0000
  H   H2158     1.0  0.25774  0.68877  0.90027  1.0000
  H   H2159     1.0  0.69140  0.09503  0.06237  1.0000
  C   C1348     1.0  0.50140  0.47163  0.01586  1.0000
  H   H2160     1.0  0.48875  0.17073  0.20739  1.0000
  Fe  Fe274     1.0  0.56577  0.44204  0.13200  1.0000
  S   S543      1.0  0.58840  0.41911  0.14040  1.0000
  Fe  Fe275     1.0  0.57118  0.41755  0.16863  1.0000
  Fe  Fe276     1.0  0.59927  0.44066  0.14709  1.0000
  S   S544      1.0  0.62996  0.43902  0.13844  1.0000
  C   C1349     1.0  0.67944  0.27394  0.19264  1.0000
  H   H2161     1.0  0.50187  0.97540  0.08468  1.0000
  Fe  Fe277     1.0  0.62299  0.09352  0.03315  1.0000
  S   S545      1.0  0.63384  0.11215  0.00746  1.0000
  S   S546      1.0  0.60869  0.10340  0.05934  1.0000
  Fe  Fe278     1.0  0.63857  0.05946  0.01665  1.0000
  S   S547      1.0  0.65096  0.07541  0.98968  1.0000
  S   S548      1.0  0.64350  0.02873  0.01970  1.0000
  Fe  Fe279     1.0  0.65960  0.09047  0.00663  1.0000
  S   S549      1.0  0.68734  0.09863  0.99884  1.0000
  Fe  Fe280     1.0  0.62419  0.09548  0.99292  1.0000
  S   S550      1.0  0.64949  0.07284  0.03333  1.0000
  S   S551      1.0  0.61106  0.07858  0.01887  1.0000
  Fe  Fe281     1.0  0.55083  0.19697  0.07558  1.0000
  S   S552      1.0  0.56960  0.18669  0.05105  1.0000
  Fe  Fe282     1.0  0.54323  0.20660  0.11303  1.0000
  S   S553      1.0  0.55535  0.20442  0.13763  1.0000
  S   S554      1.0  0.54431  0.18061  0.10400  1.0000
  S   S555      1.0  0.55225  0.22211  0.08455  1.0000
  Fe  Fe283     1.0  0.63137  0.25334  0.18453  1.0000
  S   S556      1.0  0.65754  0.23189  0.18296  1.0000
  Fe  Fe284     1.0  0.59609  0.27007  0.16993  1.0000
  S   S557      1.0  0.58192  0.27256  0.14670  1.0000
  S   S558      1.0  0.62459  0.27608  0.16128  1.0000
  C   C1350     1.0  0.53059  0.42342  0.12153  1.0000
  S   S559      1.0  0.52137  0.20667  0.07302  1.0000
  C   C1351     1.0  0.60799  0.34029  0.17877  1.0000
  S   S560      1.0  0.58610  0.28971  0.18910  1.0000
  C   C1352     1.0  0.69222  0.30126  0.18175  1.0000
  H   H2162     1.0  0.67077  0.99384  0.02079  1.0000
  H   H2163     1.0  0.61267  0.06658  0.97787  1.0000
  S   S561      1.0  0.62470  0.32077  0.17443  1.0000
  Fe  Fe285     1.0  0.49372  0.41254  0.03641  1.0000
  H   H2164     1.0  0.51008  0.14555  0.16764  1.0000
  C   C1353     1.0  0.56101  0.22414  0.14060  1.0000
  C   C1354     1.0  0.56214  0.23942  0.12638  1.0000
  C   C1355     1.0  0.56807  0.25442  0.12863  1.0000
  C   C1356     1.0  0.57289  0.25424  0.14508  1.0000
  C   C1357     1.0  0.57135  0.23915  0.15948  1.0000
  C   C1358     1.0  0.56541  0.22414  0.15723  1.0000
  H   H2165     1.0  0.55872  0.23957  0.11355  1.0000
  Fe  Fe286     1.0  0.59603  0.26573  0.21033  1.0000
  H   H2166     1.0  0.57477  0.23903  0.17231  1.0000
  H   H2167     1.0  0.56437  0.21241  0.16834  1.0000
  C   C1359     1.0  0.59728  0.12636  0.05703  1.0000
  C   C1360     1.0  0.59167  0.13452  0.07241  1.0000
  C   C1361     1.0  0.58290  0.15300  0.07079  1.0000
  C   C1362     1.0  0.57986  0.16339  0.05374  1.0000
  C   C1363     1.0  0.58539  0.15519  0.03840  1.0000
  C   C1364     1.0  0.59395  0.13667  0.04007  1.0000
  H   H2168     1.0  0.59424  0.12656  0.08557  1.0000
  H   H2169     1.0  0.57885  0.15930  0.08263  1.0000
  H   H2170     1.0  0.58299  0.16317  0.02520  1.0000
  H   H2171     1.0  0.59799  0.13040  0.02820  1.0000
  C   C1365     1.0  0.59261  0.00520  0.02594  1.0000
  C   C1366     1.0  0.61017  0.99505  0.02051  1.0000
  C   C1367     1.0  0.62578  0.00223  0.01890  1.0000
  C   C1368     1.0  0.62387  0.01946  0.02294  1.0000
  C   C1369     1.0  0.60634  0.02923  0.02904  1.0000
  C   C1370     1.0  0.59074  0.02221  0.03037  1.0000
  H   H2172     1.0  0.63928  0.99467  0.01401  1.0000
  H   H2173     1.0  0.60477  0.04222  0.03275  1.0000
  H   H2174     1.0  0.57717  0.02999  0.03479  1.0000
  H   H2175     1.0  0.52117  0.31089  0.06555  1.0000
  H   H2176     1.0  0.50453  0.47151  0.00098  1.0000
  S   S562      1.0  0.73061  0.25748  0.13617  1.0000
  H   H2177     1.0  0.64473  0.19776  0.15936  1.0000
  S   S563      1.0  0.57281  0.99773  0.02579  1.0000
  N   N138      1.0  0.49232  0.23747  0.00780  1.0000
  H   H2178     1.0  0.49916  0.21080  0.00117  1.0000
  H   H2179     1.0  0.60218  0.21192  0.13996  1.0000
  C   C1371     1.0  0.61243  0.35763  0.17177  1.0000
  C   C1372     1.0  0.59917  0.37346  0.17457  1.0000
  H   H2180     1.0  0.62611  0.35885  0.16404  1.0000
  H   H2181     1.0  0.60270  0.38678  0.16909  1.0000
  H   H2182     1.0  0.54477  0.43798  0.07584  1.0000
  H   H2183     1.0  0.57075  0.07079  0.98622  1.0000
  H   H2184     1.0  0.49129  0.34604  0.06439  1.0000
  C   C1373     1.0  0.71052  0.25028  0.14959  1.0000
  C   C1374     1.0  0.71098  0.23644  0.16525  1.0000
  C   C1375     1.0  0.69465  0.23074  0.17536  1.0000
  C   C1376     1.0  0.67777  0.23926  0.17017  1.0000
  C   C1377     1.0  0.67731  0.25326  0.15465  1.0000
  C   C1378     1.0  0.69367  0.25860  0.14429  1.0000
  H   H2185     1.0  0.50963  0.24760  0.98243  1.0000
  N   N139      1.0  0.67543  0.29378  0.18500  1.0000
  H   H2186     1.0  0.66440  0.25978  0.15044  1.0000
  H   H2187     1.0  0.69327  0.26928  0.13213  1.0000
  C   C1379     1.0  0.71228  0.10803  0.04302  1.0000
  C   C1380     1.0  0.72005  0.11309  0.02450  1.0000
  C   C1381     1.0  0.71262  0.10962  0.01107  1.0000
  C   C1382     1.0  0.69735  0.10117  0.01606  1.0000
  C   C1383     1.0  0.68989  0.09570  0.03461  1.0000
  C   C1384     1.0  0.69734  0.09913  0.04804  1.0000
  Fe  Fe287     1.0  0.61513  0.29391  0.18215  1.0000
  H   H2188     1.0  0.71847  0.11388  0.99673  1.0000
  H   H2189     1.0  0.67823  0.08906  0.03859  1.0000
  H   H2190     1.0  0.50730  0.32055  0.04844  1.0000
  H   H2191     1.0  0.69086  0.26666  0.18335  1.0000
  H   H2192     1.0  0.68966  0.31620  0.17590  1.0000
  H   H2193     1.0  0.61090  0.24225  0.12972  1.0000
  H   H2194     1.0  0.57632  0.03304  0.97652  1.0000
  N   N140      1.0  0.53195  0.13383  0.08827  1.0000
  H   H2195     1.0  0.50533  0.33681  0.08140  1.0000
  H   H2196     1.0  0.53845  0.12276  0.11498  1.0000
  H   H2197     1.0  0.66724  0.26769  0.19469  1.0000
  Fe  Fe288     1.0  0.56157  0.45863  0.16532  1.0000
  H   H2198     1.0  0.59885  0.05681  0.99869  1.0000
  H   H2199     1.0  0.59120  0.37897  0.13846  1.0000
  N   N141      1.0  0.56703  0.37408  0.13263  1.0000
  H   H2200     1.0  0.61166  0.98195  0.01696  1.0000
  C   C1385     1.0  0.48965  0.98392  0.19962  1.0000
  H   H2201     1.0  0.67019  0.46672  0.05905  1.0000
  C   C1386     1.0  0.69425  0.44910  0.17041  1.0000
  H   H2202     1.0  0.73182  0.04264  0.05428  1.0000
  H   H2203     1.0  0.55925  0.12255  0.07518  1.0000
  C   C1387     1.0  0.53716  0.43122  0.08846  1.0000
  H   H2204     1.0  0.66519  0.44682  0.11987  1.0000
  N   N142      1.0  0.65028  0.14356  0.03822  1.0000
  C   C1388     1.0  0.64728  0.12549  0.04928  1.0000
  C   C1389     1.0  0.63330  0.15380  0.03173  1.0000
  C   C1390     1.0  0.66549  0.14111  0.02232  1.0000
  C   C1391     1.0  0.65506  0.15384  0.04960  1.0000
  H   H2205     1.0  0.65958  0.11760  0.05492  1.0000
  H   H2206     1.0  0.64422  0.11706  0.04103  1.0000
  H   H2207     1.0  0.63545  0.12679  0.06102  1.0000
  H   H2208     1.0  0.62924  0.14630  0.02324  1.0000
  H   H2209     1.0  0.62157  0.15599  0.04340  1.0000
  H   H2210     1.0  0.63500  0.16748  0.02326  1.0000
  H   H2211     1.0  0.66747  0.15440  0.01310  1.0000
  H   H2212     1.0  0.66295  0.13238  0.01401  1.0000
  H   H2213     1.0  0.67876  0.13446  0.02672  1.0000
  H   H2214     1.0  0.65744  0.16755  0.04169  1.0000
  H   H2215     1.0  0.66785  0.14643  0.05472  1.0000
  H   H2216     1.0  0.64385  0.15592  0.06173  1.0000
  H   H2217     1.0  0.56919  0.26609  0.11746  1.0000
  C   C1392     1.0  0.67070  0.98703  0.03538  1.0000
  H   H2218     1.0  0.69507  0.21992  0.18741  1.0000
  H   H2219     1.0  0.56910  0.35154  0.12001  1.0000
  C   C1393     1.0  0.61167  0.20809  0.14977  1.0000
  H   H2220     1.0  0.52111  0.16261  0.08076  1.0000
  H   H2221     1.0  0.58542  0.35723  0.14997  1.0000
  H   H2222     1.0  0.53841  0.44548  0.20287  1.0000
  H   H2223     1.0  0.53919  0.42326  0.19910  1.0000
  C   C1394     1.0  0.57886  0.06832  0.97259  1.0000
  C   C1395     1.0  0.61995  0.23777  0.13996  1.0000
  C   C1396     1.0  0.58144  0.37198  0.18447  1.0000
  H   H2224     1.0  0.57212  0.40008  0.11614  1.0000
  C   C1397     1.0  0.52436  0.42123  0.08787  1.0000
  H   H2225     1.0  0.59549  0.36100  0.12603  1.0000
  C   C1398     1.0  0.49461  0.44221  0.99106  1.0000
  H   H2226     1.0  0.71159  0.18698  0.11806  1.0000
  H   H2227     1.0  0.51831  0.43556  0.21075  1.0000
  C   C1399     1.0  0.56794  0.38755  0.11514  1.0000
  C   C1400     1.0  0.51353  0.12905  0.09398  1.0000
  N   N143      1.0  0.72982  0.20058  0.12443  1.0000
  H   H2228     1.0  0.50788  0.29732  0.06055  1.0000
  S   S564      1.0  0.50874  0.25877  0.07165  1.0000
  H   H2229     1.0  0.70362  0.29453  0.17194  1.0000
  S   S565      1.0  0.72087  0.11271  0.06013  1.0000
  S   S566      1.0  0.62437  0.27157  0.20488  1.0000
  S   S567      1.0  0.49272  0.17585  0.10872  1.0000
  H   H2230     1.0  0.73163  0.11991  0.02049  1.0000
  S   S568      1.0  0.57791  0.46392  0.13649  1.0000
  N   N144      1.0  0.59368  0.05190  0.97440  1.0000
  H   H2231     1.0  0.50858  0.12755  0.08214  1.0000
  S   S569      1.0  0.60690  0.10860  0.97139  1.0000
  C   C1401     1.0  0.71389  0.47112  0.15672  1.0000
  H   H2232     1.0  0.67915  0.99366  0.04059  1.0000
  C   C1402     1.0  0.57709  0.35465  0.19174  1.0000
  H   H2233     1.0  0.63118  0.24568  0.13507  1.0000
  S   S570      1.0  0.51645  0.41499  0.01136  1.0000
  H   H2234     1.0  0.61763  0.04238  0.98665  1.0000
  H   H2235     1.0  0.71615  0.44623  0.13722  1.0000
  H   H2236     1.0  0.66538  0.31173  0.16176  1.0000
  Fe  Fe289     1.0  0.51481  0.19236  0.10224  1.0000
  H   H2237     1.0  0.53289  0.42429  0.13454  1.0000
  H   H2238     1.0  0.70636  0.43762  0.17117  1.0000
  H   H2239     1.0  0.51357  0.11601  0.10426  1.0000
  H   H2240     1.0  0.58685  0.32554  0.19455  1.0000
  C   C1403     1.0  0.58558  0.03573  0.98417  1.0000
  H   H2241     1.0  0.55173  0.13921  0.10071  1.0000
  H   H2242     1.0  0.68352  0.27107  0.20612  1.0000
  H   H2243     1.0  0.69718  0.29916  0.19466  1.0000
  C   C1404     1.0  0.66068  0.30305  0.19805  1.0000
  C   C1405     1.0  0.54043  0.43223  0.10526  1.0000
  C   C1406     1.0  0.58560  0.36754  0.13693  1.0000
  H   H2244     1.0  0.54028  0.38742  0.14496  1.0000
  C   C1407     1.0  0.53355  0.43242  0.20912  1.0000
  H   H2245     1.0  0.54597  0.36293  0.12784  1.0000
  H   H2246     1.0  0.61651  0.19300  0.15198  1.0000
  S   S571      1.0  0.49964  0.39842  0.10373  1.0000
  C   C1408     1.0  0.56001  0.35844  0.13105  1.0000
  H   H2247     1.0  0.60338  0.21139  0.16306  1.0000
  C   C1409     1.0  0.51786  0.41331  0.12094  1.0000
  H   H2248     1.0  0.64357  0.19793  0.12721  1.0000
  N   N145      1.0  0.62716  0.21785  0.14295  1.0000
  H   H2249     1.0  0.48739  0.98562  0.18551  1.0000
  H   H2250     1.0  0.50451  0.98344  0.19856  1.0000
  C   C1410     1.0  0.49834  0.24739  0.01866  1.0000
  C   C1411     1.0  0.52745  0.43788  0.97926  1.0000
  H   H2251     1.0  0.55437  0.39200  0.11095  1.0000
  H   H2252     1.0  0.72667  0.46036  0.15668  1.0000
  C   C1412     1.0  0.55454  0.38276  0.14746  1.0000
  H   H2253     1.0  0.55397  0.37316  0.16097  1.0000
  C   C1413     1.0  0.50056  0.14715  0.15881  1.0000
  H   H2254     1.0  0.72747  0.20307  0.15208  1.0000
  S   S572      1.0  0.55753  0.44381  0.10535  1.0000
  C   C1414     1.0  0.51478  0.41212  0.10411  1.0000
  C   C1415     1.0  0.66941  0.29688  0.16749  1.0000
  C   C1416     1.0  0.70340  0.45702  0.13759  1.0000
  Fe  Fe290     1.0  0.52197  0.23042  0.08443  1.0000
  H   H2255     1.0  0.63136  0.21643  0.16990  1.0000
  H   H2256     1.0  0.68048  0.29083  0.15704  1.0000
  H   H2257     1.0  0.54469  0.15558  0.07051  1.0000
  S   S573      1.0  0.56434  0.39158  0.18739  1.0000
  N   N146      1.0  0.49210  0.31753  0.07620  1.0000
  H   H2258     1.0  0.62916  0.21659  0.11498  1.0000
  S   S574      1.0  0.54754  0.43882  0.15975  1.0000
  H   H2259     1.0  0.55912  0.39491  0.14878  1.0000
  C   C1417     1.0  0.53113  0.15136  0.07488  1.0000
  H   H2260     1.0  0.54128  0.43073  0.98054  1.0000
  C   C1418     1.0  0.63790  0.21289  0.12547  1.0000
  H   H2261     1.0  0.70744  0.21415  0.14251  1.0000
  C   C1419     1.0  0.51246  0.43294  0.99275  1.0000
  H   H2262     1.0  0.65706  0.31801  0.19257  1.0000
  H   H2263     1.0  0.51036  0.40640  0.13354  1.0000
  H   H2264     1.0  0.55917  0.34802  0.14404  1.0000
  H   H2265     1.0  0.65086  0.21992  0.15197  1.0000
  C   C1420     1.0  0.63908  0.21272  0.15659  1.0000
  H   H2266     1.0  0.52225  0.42020  0.07483  1.0000
  H   H2267     1.0  0.59640  0.02318  0.98634  1.0000
  H   H2268     1.0  0.57728  0.03756  0.99792  1.0000
  H   H2269     1.0  0.68260  0.44350  0.16927  1.0000
  H   H2270     1.0  0.56342  0.35343  0.19952  1.0000
  C   C1421     1.0  0.71881  0.20191  0.14293  1.0000
  H   H2271     1.0  0.65720  0.29074  0.16927  1.0000
  H   H2272     1.0  0.71256  0.18968  0.14944  1.0000
  H   H2273     1.0  0.61158  0.24193  0.15282  1.0000
  H   H2274     1.0  0.70668  0.21156  0.11124  1.0000
  C   C1422     1.0  0.65631  0.45951  0.12273  1.0000
  H   H2275     1.0  0.52813  0.14658  0.11110  1.0000
  C   C1423     1.0  0.50236  0.15935  0.14187  1.0000
  S   S575      1.0  0.60362  0.24559  0.19166  1.0000
  C   C1424     1.0  0.59032  0.33884  0.18885  1.0000
  S   S576      1.0  0.51293  0.21696  0.11366  1.0000
  H   H2276     1.0  0.64960  0.22015  0.11987  1.0000
  H   H2277     1.0  0.57797  0.38180  0.10382  1.0000
  S   S577      1.0  0.58394  0.43698  0.17639  1.0000
  H   H2278     1.0  0.54119  0.11746  0.06758  1.0000
  C   C1425     1.0  0.49492  0.24707  0.98843  1.0000
  H   H2279     1.0  0.51316  0.16719  0.13773  1.0000
  C   C1426     1.0  0.60628  0.05451  0.98484  1.0000
  H   H2280     1.0  0.64782  0.29772  0.20078  1.0000
  C   C1427     1.0  0.63792  0.45967  0.13158  1.0000
  H   H2281     1.0  0.72596  0.19820  0.09850  1.0000
  H   H2282     1.0  0.52691  0.15048  0.06238  1.0000
  H   H2283     1.0  0.54642  0.10590  0.08958  1.0000
  H   H2284     1.0  0.72388  0.23011  0.16957  1.0000
  C   C1428     1.0  0.53786  0.13565  0.10447  1.0000
  C   C1429     1.0  0.54526  0.11929  0.07980  1.0000
  H   H2285     1.0  0.50316  0.13979  0.10037  1.0000
  H   H2286     1.0  0.72947  0.07084  0.06602  1.0000
  C   C1430     1.0  0.71792  0.19928  0.11256  1.0000
  C   C1431     1.0  0.49341  0.30493  0.09399  1.0000
  S   S578      1.0  0.49522  0.38652  0.05768  1.0000
  H   H2287     1.0  0.69225  0.45112  0.13583  1.0000
  H   H2288     1.0  0.66471  0.30111  0.21141  1.0000
  H   H2289     1.0  0.50163  0.21108  0.02373  1.0000
  H   H2290     1.0  0.49003  0.24029  0.97985  1.0000
  N   N147      1.0  0.69837  0.46406  0.15472  1.0000
  H   H2291     1.0  0.57247  0.46471  0.20012  1.0000
  C   C1432     1.0  0.49182  0.45655  0.97604  1.0000
  H   H2292     1.0  0.51826  0.21866  0.00406  1.0000
  H   H2293     1.0  0.50260  0.45714  0.02330  1.0000
  H   H2294     1.0  0.48703  0.26142  0.98689  1.0000
  H   H2295     1.0  0.51317  0.24803  0.01385  1.0000
  C   C1433     1.0  0.50781  0.31133  0.06204  1.0000
  H   H2296     1.0  0.72723  0.22982  0.11623  1.0000
  C   C1434     1.0  0.50332  0.21866  0.00925  1.0000
  H   H2297     1.0  0.65626  0.99026  0.04301  1.0000
  H   H2298     1.0  0.50629  0.30462  0.09836  1.0000
  C   C1435     1.0  0.49243  0.33623  0.07760  1.0000
  Fe  Fe291     1.0  0.48807  0.40470  0.07810  1.0000
  H   H2299     1.0  0.69041  0.45391  0.18358  1.0000
  C   C1436     1.0  0.48811  0.25854  0.06574  1.0000
  H   H2300     1.0  0.49347  0.29064  0.09323  1.0000
  C   C1437     1.0  0.49025  0.16130  0.13033  1.0000
  S   S579      1.0  0.48930  0.43027  0.05676  1.0000
  H   H2301     1.0  0.70618  0.46807  0.12546  1.0000
  H   H2302     1.0  0.48694  0.28500  0.04776  1.0000
  H   H2303     1.0  0.73377  0.07224  0.03299  1.0000
  H   H2304     1.0  0.48537  0.23204  0.08251  1.0000
  C   C1438     1.0  0.48649  0.13709  0.16439  1.0000
  H   H2305     1.0  0.49041  0.26170  0.01774  1.0000
  H   H2306     1.0  0.48497  0.15876  0.19189  1.0000
  H   H2307     1.0  0.49634  0.24067  0.03341  1.0000
  C   C1439     1.0  0.56101  0.47186  0.20875  1.0000
  H   H2308     1.0  0.48553  0.14747  0.21502  1.0000
  H   H2309     1.0  0.56644  0.41173  0.21398  1.0000
  H   H2310     1.0  0.58454  0.08080  0.96553  1.0000
  Fe  Fe292     1.0  0.53141  0.99667  0.40431  1.0000
  S   S580      1.0  0.70330  0.20291  0.38228  1.0000
  Fe  Fe293     1.0  0.70016  0.02931  0.40409  1.0000
  S   S581      1.0  0.67322  0.04804  0.39996  1.0000
  H   H2311     1.0  0.56450  0.41442  0.23693  1.0000
  S   S582      1.0  0.66511  0.04878  0.44397  1.0000
  Fe  Fe294     1.0  0.66103  0.03124  0.42652  1.0000
  S   S583      1.0  0.63438  0.02090  0.43624  1.0000
  Fe  Fe295     1.0  0.67969  0.06380  0.41769  1.0000
  S   S584      1.0  0.67599  0.09446  0.40899  1.0000
  S   S585      1.0  0.68744  0.01101  0.42894  1.0000
  C   C1440     1.0  0.53086  0.43618  0.23989  1.0000
  H   H2312     1.0  0.52397  0.45695  0.38217  1.0000
  C   C1441     1.0  0.53342  0.40620  0.23396  1.0000
  C   C1442     1.0  0.49740  0.05470  0.38113  1.0000
  H   H2313     1.0  0.64362  0.02367  0.39662  1.0000
  Fe  Fe296     1.0  0.59773  0.23315  0.33609  1.0000
  S   S586      1.0  0.56695  0.23710  0.34227  1.0000
  S   S587      1.0  0.61581  0.23479  0.30788  1.0000
  Fe  Fe297     1.0  0.60025  0.22373  0.37643  1.0000
  S   S588      1.0  0.56963  0.22681  0.38583  1.0000
  S   S589      1.0  0.61632  0.21655  0.39905  1.0000
  Fe  Fe298     1.0  0.57110  0.21167  0.36388  1.0000
  S   S590      1.0  0.55898  0.18643  0.36918  1.0000
  Fe  Fe299     1.0  0.56835  0.25191  0.36359  1.0000
  S   S591      1.0  0.55018  0.27935  0.36688  1.0000
  S   S592      1.0  0.60196  0.20658  0.35630  1.0000
  S   S593      1.0  0.59889  0.24995  0.35563  1.0000
  Fe  Fe300     1.0  0.49877  0.11352  0.33395  1.0000
  S   S594      1.0  0.50516  0.13599  0.30978  1.0000
  S   S595      1.0  0.52084  0.08783  0.33612  1.0000
  N   N148      1.0  0.49276  0.97969  0.37274  1.0000
  C   C1443     1.0  0.50635  0.09509  0.28978  1.0000
  H   H2314     1.0  0.63995  0.15930  0.43550  1.0000
  H   H2315     1.0  0.53464  0.44984  0.23453  1.0000
  H   H2316     1.0  0.51557  0.43849  0.24265  1.0000
  H   H2317     1.0  0.51202  0.09718  0.30088  1.0000
  C   C1444     1.0  0.56205  0.47184  0.22669  1.0000
  H   H2318     1.0  0.51864  0.04879  0.29788  1.0000
  S   S596      1.0  0.71355  0.13053  0.45157  1.0000
  H   H2319     1.0  0.63084  0.17977  0.42071  1.0000
  H   H2320     1.0  0.52563  0.06459  0.30717  1.0000
  C   C1445     1.0  0.64361  0.13647  0.41288  1.0000
  S   S597      1.0  0.70741  0.04616  0.42017  1.0000
  H   H2321     1.0  0.63036  0.17936  0.38892  1.0000
  S   S598      1.0  0.57838  0.26058  0.23865  1.0000
  S   S599      1.0  0.70560  0.18408  0.43589  1.0000
  Fe  Fe301     1.0  0.54142  0.34915  0.42474  1.0000
  S   S600      1.0  0.51697  0.35679  0.41152  1.0000
  S   S601      1.0  0.55783  0.32018  0.42570  1.0000
  Fe  Fe302     1.0  0.52544  0.38395  0.40070  1.0000
  S   S602      1.0  0.52387  0.39690  0.37136  1.0000
  S   S603      1.0  0.55127  0.37566  0.41202  1.0000
  S   S604      1.0  0.50734  0.02004  0.40053  1.0000
  H   H2322     1.0  0.63870  0.15842  0.38057  1.0000
  S   S605      1.0  0.52567  0.35845  0.45082  1.0000
  C   C1446     1.0  0.70123  0.12857  0.42157  1.0000
  H   H2323     1.0  0.59147  0.99125  0.42245  1.0000
  C   C1447     1.0  0.63174  0.16423  0.39298  1.0000
  H   H2324     1.0  0.60523  0.00166  0.44291  1.0000
  C   C1448     1.0  0.52386  0.42044  0.36487  1.0000
  C   C1449     1.0  0.52159  0.42964  0.34718  1.0000
  C   C1450     1.0  0.52018  0.44867  0.34207  1.0000
  H   H2325     1.0  0.70124  0.99200  0.39518  1.0000
  C   C1451     1.0  0.52330  0.44936  0.37236  1.0000
  C   C1452     1.0  0.52486  0.43031  0.37743  1.0000
  H   H2326     1.0  0.52084  0.42205  0.33741  1.0000
  C   C1453     1.0  0.49171  0.99868  0.37426  1.0000
  H   H2327     1.0  0.72961  0.09119  0.46174  1.0000
  H   H2328     1.0  0.52671  0.42329  0.39108  1.0000
  N   N149      1.0  0.49552  0.30893  0.41664  1.0000
  H   H2329     1.0  0.49335  0.98635  0.34377  1.0000
  H   H2330     1.0  0.61830  0.16161  0.42912  1.0000
  Fe  Fe303     1.0  0.72370  0.15632  0.43583  1.0000
  H   H2331     1.0  0.52128  0.29098  0.40936  1.0000
  C   C1454     1.0  0.72363  0.00042  0.37408  1.0000
  H   H2332     1.0  0.48975  0.08229  0.36625  1.0000
  H   H2333     1.0  0.50450  0.28009  0.42626  1.0000
  H   H2334     1.0  0.72621  0.16926  0.36917  1.0000
  H   H2335     1.0  0.51659  0.31522  0.42670  1.0000
  C   C1455     1.0  0.55382  0.29045  0.38267  1.0000
  C   C1456     1.0  0.54953  0.30959  0.37965  1.0000
  C   C1457     1.0  0.55094  0.31883  0.39267  1.0000
  C   C1458     1.0  0.55632  0.30895  0.40897  1.0000
  C   C1459     1.0  0.56058  0.28979  0.41204  1.0000
  C   C1460     1.0  0.55956  0.28053  0.39883  1.0000
  H   H2336     1.0  0.54510  0.31733  0.36716  1.0000
  H   H2337     1.0  0.54793  0.33361  0.39001  1.0000
  H   H2338     1.0  0.56437  0.28210  0.42482  1.0000
  H   H2339     1.0  0.56254  0.26574  0.40143  1.0000
  C   C1461     1.0  0.60556  0.24370  0.28856  1.0000
  C   C1462     1.0  0.61629  0.24233  0.27111  1.0000
  C   C1463     1.0  0.60819  0.24794  0.25561  1.0000
  C   C1464     1.0  0.58928  0.25492  0.25750  1.0000
  C   C1465     1.0  0.57861  0.25659  0.27489  1.0000
  C   C1466     1.0  0.58672  0.25107  0.29037  1.0000
  H   H2340     1.0  0.63087  0.23659  0.26962  1.0000
  H   H2341     1.0  0.61650  0.24644  0.24228  1.0000
  H   H2342     1.0  0.56401  0.26218  0.27639  1.0000
  H   H2343     1.0  0.57838  0.25249  0.30368  1.0000
  C   C1467     1.0  0.54159  0.18570  0.35826  1.0000
  C   C1468     1.0  0.53248  0.20147  0.34808  1.0000
  C   C1469     1.0  0.51921  0.20022  0.33894  1.0000
  C   C1470     1.0  0.51509  0.18322  0.33983  1.0000
  C   C1471     1.0  0.52407  0.16749  0.35014  1.0000
  C   C1472     1.0  0.53724  0.16876  0.35937  1.0000
  H   H2344     1.0  0.53565  0.21460  0.34726  1.0000
  H   H2345     1.0  0.51220  0.21245  0.33107  1.0000
  H   H2346     1.0  0.52097  0.15433  0.35092  1.0000
  H   H2347     1.0  0.54426  0.15652  0.36724  1.0000
  Fe  Fe304     1.0  0.73036  0.19231  0.43995  1.0000
  H   H2348     1.0  0.65145  0.13019  0.42406  1.0000
  Fe  Fe305     1.0  0.69228  0.02949  0.44484  1.0000
  H   H2349     1.0  0.66870  0.15582  0.41292  1.0000
  H   H2350     1.0  0.50241  0.28648  0.40261  1.0000
  H   H2351     1.0  0.65822  0.98758  0.45488  1.0000
  S   S606      1.0  0.55130  0.98643  0.38056  1.0000
  C   C1473     1.0  0.68849  0.09620  0.43882  1.0000
  N   N150      1.0  0.50311  0.07631  0.29320  1.0000
  C   C1474     1.0  0.70294  0.12071  0.43966  1.0000
  Fe  Fe306     1.0  0.71804  0.19024  0.40594  1.0000
  H   H2352     1.0  0.48734  0.39243  0.38724  1.0000
  Fe  Fe307     1.0  0.53315  0.38572  0.43698  1.0000
  C   C1475     1.0  0.62409  0.01110  0.39060  1.0000
  H   H2353     1.0  0.53146  0.06534  0.28295  1.0000
  H   H2354     1.0  0.56747  0.37864  0.46102  1.0000
  C   C1476     1.0  0.67909  0.20738  0.38698  1.0000
  C   C1477     1.0  0.66970  0.21136  0.37252  1.0000
  C   C1478     1.0  0.65038  0.21440  0.37598  1.0000
  C   C1479     1.0  0.64041  0.21363  0.39393  1.0000
  C   C1480     1.0  0.64976  0.21008  0.40832  1.0000
  C   C1481     1.0  0.66905  0.20686  0.40488  1.0000
  H   H2355     1.0  0.67741  0.21188  0.35862  1.0000
  H   H2356     1.0  0.64325  0.21718  0.36479  1.0000
  H   H2357     1.0  0.64209  0.20960  0.42224  1.0000
  H   H2358     1.0  0.67613  0.20403  0.41608  1.0000
  C   C1482     1.0  0.69318  0.12028  0.41214  1.0000
  C   C1483     1.0  0.68688  0.10405  0.42072  1.0000
  H   H2359     1.0  0.69209  0.12625  0.39809  1.0000
  C   C1484     1.0  0.51098  0.03868  0.38233  1.0000
  H   H2360     1.0  0.51823  0.40792  0.23601  1.0000
  C   C1485     1.0  0.50019  0.06989  0.36693  1.0000
  C   C1486     1.0  0.51655  0.06903  0.35384  1.0000
  C   C1487     1.0  0.52997  0.05289  0.35484  1.0000
  C   C1488     1.0  0.52723  0.03778  0.36908  1.0000
  H   H2361     1.0  0.65098  0.12984  0.40105  1.0000
  Fe  Fe308     1.0  0.57266  0.98514  0.39661  1.0000
  H   H2362     1.0  0.54259  0.05214  0.34464  1.0000
  H   H2363     1.0  0.53775  0.02550  0.36982  1.0000
  C   C1489     1.0  0.60266  0.99850  0.41671  1.0000
  C   C1490     1.0  0.61056  0.00432  0.42831  1.0000
  C   C1491     1.0  0.62533  0.01342  0.42114  1.0000
  C   C1492     1.0  0.63220  0.01669  0.40226  1.0000
  H   H2364     1.0  0.51552  0.98065  0.34986  1.0000
  H   H2365     1.0  0.53748  0.39942  0.24732  1.0000
  C   C1493     1.0  0.66074  0.16076  0.40175  1.0000
  H   H2366     1.0  0.62933  0.01381  0.37599  1.0000
  H   H2367     1.0  0.49385  0.05999  0.27967  1.0000
  H   H2368     1.0  0.66372  0.01359  0.46443  1.0000
  S   S607      1.0  0.72284  0.02062  0.38109  1.0000
  H   H2369     1.0  0.53978  0.39662  0.22434  1.0000
  C   C1494     1.0  0.69627  0.10465  0.44834  1.0000
  H   H2370     1.0  0.51616  0.09840  0.27666  1.0000
  C   C1495     1.0  0.60924  0.00207  0.39780  1.0000
  N   N151      1.0  0.61751  0.27346  0.39216  1.0000
  C   C1496     1.0  0.63199  0.26231  0.38053  1.0000
  C   C1497     1.0  0.60533  0.28696  0.38081  1.0000
  C   C1498     1.0  0.62613  0.28317  0.40100  1.0000
  C   C1499     1.0  0.60660  0.26138  0.40639  1.0000
  H   H2371     1.0  0.64015  0.27094  0.36922  1.0000
  H   H2372     1.0  0.62599  0.25421  0.37427  1.0000
  H   H2373     1.0  0.64172  0.25234  0.38860  1.0000
  H   H2374     1.0  0.59459  0.29596  0.38909  1.0000
  H   H2375     1.0  0.61315  0.29596  0.36957  1.0000
  H   H2376     1.0  0.59804  0.28016  0.37442  1.0000
  H   H2377     1.0  0.63460  0.29230  0.39066  1.0000
  H   H2378     1.0  0.63524  0.27338  0.40986  1.0000
  H   H2379     1.0  0.61554  0.29183  0.40978  1.0000
  H   H2380     1.0  0.59635  0.26910  0.41617  1.0000
  H   H2381     1.0  0.61551  0.25024  0.41442  1.0000
  H   H2382     1.0  0.59896  0.25470  0.40026  1.0000
  N   N152      1.0  0.57156  0.20033  0.29849  1.0000
  C   C1500     1.0  0.59025  0.20441  0.29324  1.0000
  C   C1501     1.0  0.55789  0.21716  0.30144  1.0000
  C   C1502     1.0  0.57017  0.18629  0.31555  1.0000
  C   C1503     1.0  0.56791  0.19350  0.28371  1.0000
  H   H2383     1.0  0.59181  0.21498  0.28042  1.0000
  H   H2384     1.0  0.60098  0.19206  0.29092  1.0000
  H   H2385     1.0  0.59341  0.20966  0.30410  1.0000
  H   H2386     1.0  0.54364  0.21454  0.30563  1.0000
  H   H2387     1.0  0.56035  0.22285  0.31234  1.0000
  H   H2388     1.0  0.55847  0.22798  0.28877  1.0000
  H   H2389     1.0  0.55636  0.18257  0.31972  1.0000
  H   H2390     1.0  0.57241  0.19122  0.32710  1.0000
  H   H2391     1.0  0.58055  0.17354  0.31399  1.0000
  H   H2392     1.0  0.55385  0.19036  0.28725  1.0000
  H   H2393     1.0  0.57794  0.18078  0.28110  1.0000
  H   H2394     1.0  0.56889  0.20383  0.27065  1.0000
  S   S608      1.0  0.55279  0.99736  0.41925  1.0000
  H   H2395     1.0  0.62986  0.13265  0.41759  1.0000
  H   H2396     1.0  0.68341  0.08380  0.44558  1.0000
  S   S609      1.0  0.59848  0.99622  0.38294  1.0000
  H   H2397     1.0  0.66016  0.17570  0.39724  1.0000
  C   C1504     1.0  0.63238  0.16463  0.42404  1.0000
  H   H2398     1.0  0.70612  0.14102  0.41484  1.0000
  H   H2399     1.0  0.66872  0.15429  0.39001  1.0000
  C   C1505     1.0  0.55961  0.42086  0.22392  1.0000
  S   S610      1.0  0.49884  0.18217  0.32767  1.0000
  H   H2400     1.0  0.51290  0.32366  0.39451  1.0000
  H   H2401     1.0  0.51846  0.45565  0.32840  1.0000
  H   H2402     1.0  0.50669  0.07642  0.26453  1.0000
  N   N153      1.0  0.53935  0.42392  0.22675  1.0000
  C   C1506     1.0  0.50154  0.97733  0.35385  1.0000
  H   H2403     1.0  0.49337  0.10532  0.28906  1.0000
  H   H2404     1.0  0.69699  0.09873  0.46247  1.0000
  S   S611      1.0  0.50789  0.39584  0.42448  1.0000
  H   H2405     1.0  0.50566  0.00202  0.37113  1.0000
  S   S612      1.0  0.72619  0.20909  0.46151  1.0000
  H   H2406     1.0  0.48533  0.43431  0.37278  1.0000
  C   C1507     1.0  0.49654  0.07397  0.27759  1.0000
  N   N154      1.0  0.64211  0.15652  0.40791  1.0000
  C   C1508     1.0  0.49822  0.32252  0.39936  1.0000
  C   C1509     1.0  0.52091  0.45859  0.35470  1.0000
  C   C1510     1.0  0.52048  0.06314  0.29537  1.0000
  H   H2407     1.0  0.49387  0.31879  0.38826  1.0000
  S   S613      1.0  0.53619  0.40718  0.45096  1.0000
  H   H2408     1.0  0.61756  0.16137  0.39716  1.0000
  Fe  Fe309     1.0  0.50187  0.36791  0.43650  1.0000
  N   N155      1.0  0.56508  0.05082  0.39327  1.0000
  C   C1511     1.0  0.57089  0.03950  0.37914  1.0000
  C   C1512     1.0  0.54493  0.05310  0.39992  1.0000
  C   C1513     1.0  0.56999  0.06892  0.38528  1.0000
  C   C1514     1.0  0.57454  0.04173  0.40867  1.0000
  H   H2409     1.0  0.58612  0.03679  0.37436  1.0000
  H   H2410     1.0  0.56461  0.04621  0.36699  1.0000
  H   H2411     1.0  0.56684  0.02595  0.38450  1.0000
  H   H2412     1.0  0.54008  0.06117  0.41094  1.0000
  H   H2413     1.0  0.53737  0.06033  0.38871  1.0000
  H   H2414     1.0  0.54065  0.03966  0.40554  1.0000
  H   H2415     1.0  0.56306  0.07617  0.37361  1.0000
  H   H2416     1.0  0.58510  0.06763  0.38006  1.0000
  H   H2417     1.0  0.56586  0.07782  0.39558  1.0000
  H   H2418     1.0  0.57053  0.04980  0.41966  1.0000
  H   H2419     1.0  0.58979  0.03973  0.40411  1.0000
  H   H2420     1.0  0.57127  0.02797  0.41492  1.0000
  H   H2421     1.0  0.53537  0.43055  0.25320  1.0000
  C   C1515     1.0  0.50634  0.29081  0.41362  1.0000
  C   C1516     1.0  0.71170  0.98852  0.38356  1.0000
  H   H2422     1.0  0.71707  0.18182  0.34951  1.0000
  H   H2423     1.0  0.48965  0.42124  0.39454  1.0000
  H   H2424     1.0  0.57428  0.46444  0.23189  1.0000
  C   C1517     1.0  0.72914  0.17179  0.35396  1.0000
  H   H2425     1.0  0.48521  0.00093  0.38839  1.0000
  H   H2426     1.0  0.49021  0.33634  0.40106  1.0000
  C   C1518     1.0  0.55435  0.40671  0.46148  1.0000
  C   C1519     1.0  0.56761  0.39092  0.46534  1.0000
  H   H2427     1.0  0.73227  0.20630  0.34823  1.0000
  H   H2428     1.0  0.72984  0.15871  0.34992  1.0000
  H   H2429     1.0  0.50007  0.30431  0.44405  1.0000
  H   H2430     1.0  0.56460  0.43391  0.21843  1.0000
  Fe  Fe310     1.0  0.49128  0.15517  0.32895  1.0000
  H   H2431     1.0  0.49383  0.32792  0.43359  1.0000
  S   S614      1.0  0.48722  0.13265  0.35366  1.0000
  C   C1520     1.0  0.48906  0.07313  0.31011  1.0000
  H   H2432     1.0  0.49343  0.07512  0.32212  1.0000
  C   C1521     1.0  0.50176  0.31432  0.43086  1.0000
  H   H2433     1.0  0.48499  0.40534  0.36490  1.0000
  H   H2434     1.0  0.48644  0.05901  0.31327  1.0000
  H   H2435     1.0  0.54454  0.43484  0.46410  1.0000
  H   H2436     1.0  0.48478  0.05548  0.39134  1.0000
  S   S615      1.0  0.73447  0.16178  0.40560  1.0000
  Fe  Fe311     1.0  0.69724  0.01909  0.59897  1.0000
  H   H2437     1.0  0.68485  0.98408  0.46918  1.0000
  H   H2438     1.0  0.67804  0.32172  0.67949  1.0000
  Fe  Fe312     1.0  0.72305  0.38763  0.61287  1.0000
  H   H2439     1.0  0.54078  0.39513  0.50040  1.0000
  S   S616      1.0  0.70633  0.04555  0.58437  1.0000
  H   H2440     1.0  0.65972  0.01456  0.48801  1.0000
  C   C1522     1.0  0.70291  0.32866  0.69464  1.0000
  S   S617      1.0  0.71970  0.36854  0.59674  1.0000
  S   S618      1.0  0.70336  0.39739  0.55126  1.0000
  H   H2441     1.0  0.63672  0.45574  0.53826  1.0000
  Fe  Fe313     1.0  0.60190  0.43713  0.54307  1.0000
  S   S619      1.0  0.61339  0.44318  0.51281  1.0000
  S   S620      1.0  0.61770  0.42985  0.56596  1.0000
  Fe  Fe314     1.0  0.56212  0.44634  0.53810  1.0000
  S   S621      1.0  0.57035  0.45350  0.50761  1.0000
  S   S622      1.0  0.53156  0.44884  0.54875  1.0000
  Fe  Fe315     1.0  0.59227  0.42827  0.51060  1.0000
  S   S623      1.0  0.59714  0.40620  0.49420  1.0000
  H   H2442     1.0  0.60673  0.99450  0.66889  1.0000
  H   H2443     1.0  0.55766  0.01840  0.67265  1.0000
  S   S624      1.0  0.58284  0.42011  0.54103  1.0000
  S   S625      1.0  0.58013  0.46286  0.54286  1.0000
  C   C1523     1.0  0.62595  0.99788  0.61399  1.0000
  S   S626      1.0  0.72588  0.00335  0.60050  1.0000
  C   C1524     1.0  0.71534  0.32961  0.57227  1.0000
  N   N156      1.0  0.73239  0.08541  0.48981  1.0000
  H   H2444     1.0  0.50010  0.97850  0.57230  1.0000
  H   H2445     1.0  0.65848  0.33674  0.69000  1.0000
  H   H2446     1.0  0.68405  0.97744  0.61602  1.0000
  H   H2447     1.0  0.70724  0.32281  0.54301  1.0000
  H   H2448     1.0  0.68697  0.32428  0.56082  1.0000
  H   H2449     1.0  0.68019  0.34757  0.57999  1.0000
  H   H2450     1.0  0.53404  0.00797  0.70090  1.0000
  H   H2451     1.0  0.70649  0.32151  0.58342  1.0000
  H   H2452     1.0  0.66105  0.45452  0.53437  1.0000
  H   H2453     1.0  0.49195  0.45930  0.61735  1.0000
  H   H2454     1.0  0.72719  0.41958  0.62438  1.0000
  H   H2455     1.0  0.56798  0.43489  0.48107  1.0000
  H   H2456     1.0  0.71623  0.44086  0.65501  1.0000
  N   N157      1.0  0.68273  0.33195  0.70110  1.0000
  H   H2457     1.0  0.54581  0.42589  0.51556  1.0000
  C   C1525     1.0  0.73036  0.35970  0.69102  1.0000
  C   C1526     1.0  0.52435  0.43820  0.57151  1.0000
  C   C1527     1.0  0.50547  0.43961  0.57877  1.0000
  C   C1528     1.0  0.49924  0.43241  0.59729  1.0000
  H   H2458     1.0  0.55107  0.98140  0.68673  1.0000
  H   H2459     1.0  0.51629  0.39795  0.50798  1.0000
  C   C1529     1.0  0.53704  0.42897  0.58262  1.0000
  H   H2460     1.0  0.71232  0.09888  0.50979  1.0000
  C   C1530     1.0  0.65498  0.00953  0.47797  1.0000
  H   H2461     1.0  0.65028  0.99135  0.64736  1.0000
  H   H2462     1.0  0.68148  0.36525  0.55968  1.0000
  C   C1531     1.0  0.67951  0.40604  0.55574  1.0000
  C   C1532     1.0  0.67015  0.40947  0.57297  1.0000
  C   C1533     1.0  0.65107  0.41634  0.57607  1.0000
  C   C1534     1.0  0.64131  0.41986  0.56197  1.0000
  C   C1535     1.0  0.65067  0.41622  0.54480  1.0000
  C   C1536     1.0  0.66972  0.40932  0.54171  1.0000
  H   H2463     1.0  0.67759  0.40689  0.58388  1.0000
  H   H2464     1.0  0.64388  0.41909  0.58940  1.0000
  H   H2465     1.0  0.64326  0.41881  0.53387  1.0000
  H   H2466     1.0  0.67691  0.40663  0.52836  1.0000
  C   C1537     1.0  0.68975  0.35512  0.56914  1.0000
  C   C1538     1.0  0.71374  0.37234  0.69289  1.0000
  H   H2467     1.0  0.59107  0.37871  0.47816  1.0000
  S   S627      1.0  0.69766  0.05445  0.53413  1.0000
  H   H2468     1.0  0.50107  0.41140  0.53554  1.0000
  C   C1539     1.0  0.58097  0.40675  0.48109  1.0000
  H   H2469     1.0  0.64064  0.01690  0.47714  1.0000
  H   H2470     1.0  0.49562  0.44659  0.57014  1.0000
  Fe  Fe316     1.0  0.72569  0.99688  0.57386  1.0000
  H   H2471     1.0  0.59435  0.04464  0.66563  1.0000
  C   C1540     1.0  0.54358  0.99732  0.70783  1.0000
  H   H2472     1.0  0.51754  0.40218  0.70524  1.0000
  C   C1541     1.0  0.70736  0.02480  0.51758  1.0000
  C   C1542     1.0  0.70861  0.01606  0.50325  1.0000
  S   S628      1.0  0.69643  0.01072  0.57342  1.0000
  H   H2473     1.0  0.68198  0.30330  0.71026  1.0000
  C   C1543     1.0  0.67373  0.33416  0.68559  1.0000
  C   C1544     1.0  0.58812  0.02238  0.64697  1.0000
  N   N158      1.0  0.53033  0.40443  0.52582  1.0000
  C   C1545     1.0  0.51385  0.41631  0.53448  1.0000
  C   C1546     1.0  0.52840  0.40374  0.50741  1.0000
  C   C1547     1.0  0.53240  0.38580  0.53721  1.0000
  C   C1548     1.0  0.54676  0.41191  0.52425  1.0000
  H   H2474     1.0  0.51477  0.41684  0.54853  1.0000
  H   H2475     1.0  0.72400  0.36051  0.55126  1.0000
  H   H2476     1.0  0.51231  0.43065  0.52656  1.0000
  H   H2477     1.0  0.59718  0.02777  0.68611  1.0000
  H   H2478     1.0  0.60268  0.01863  0.63998  1.0000
  H   H2479     1.0  0.52599  0.45720  0.60682  1.0000
  C   C1549     1.0  0.56699  0.02589  0.67549  1.0000
  H   H2480     1.0  0.63542  0.99029  0.46830  1.0000
  C   C1550     1.0  0.59202  0.99972  0.67451  1.0000
  H   H2481     1.0  0.48789  0.41278  0.69476  1.0000
  H   H2482     1.0  0.71018  0.32779  0.70579  1.0000
  H   H2483     1.0  0.73028  0.05871  0.50615  1.0000
  H   H2484     1.0  0.54837  0.41293  0.53789  1.0000
  S   S629      1.0  0.70597  0.39062  0.64085  1.0000
  H   H2485     1.0  0.68297  0.06640  0.50107  1.0000
  H   H2486     1.0  0.70713  0.33989  0.68329  1.0000
  C   C1551     1.0  0.56787  0.42256  0.47694  1.0000
  H   H2487     1.0  0.52263  0.47075  0.58488  1.0000
  C   C1552     1.0  0.65110  0.01441  0.60343  1.0000
  H   H2488     1.0  0.70817  0.10633  0.48689  1.0000
  H   H2489     1.0  0.72759  0.34457  0.53665  1.0000
  H   H2490     1.0  0.70817  0.31569  0.68951  1.0000
  H   H2491     1.0  0.52189  0.98559  0.54262  1.0000
  C   C1553     1.0  0.71543  0.37835  0.65999  1.0000
  H   H2492     1.0  0.49035  0.44981  0.69702  1.0000
  H   H2493     1.0  0.56509  0.02386  0.69065  1.0000
  H   H2494     1.0  0.69354  0.39160  0.67888  1.0000
  C   C1554     1.0  0.70092  0.02551  0.48798  1.0000
  H   H2495     1.0  0.65991  0.45515  0.56583  1.0000
  H   H2496     1.0  0.72711  0.44348  0.62118  1.0000
  C   C1555     1.0  0.69175  0.04371  0.48718  1.0000
  C   C1556     1.0  0.70633  0.38169  0.67739  1.0000
  C   C1557     1.0  0.71685  0.35337  0.54506  1.0000
  C   C1558     1.0  0.72536  0.42712  0.65685  1.0000
  N   N159      1.0  0.65645  0.98951  0.48268  1.0000
  H   H2497     1.0  0.72495  0.27160  0.47980  1.0000
  Fe  Fe317     1.0  0.71996  0.39249  0.57313  1.0000
  H   H2498     1.0  0.67173  0.98125  0.58841  1.0000
  H   H2499     1.0  0.70378  0.08459  0.50026  1.0000
  S   S630      1.0  0.72050  0.41214  0.58992  1.0000
  H   H2500     1.0  0.48953  0.47206  0.59480  1.0000
  H   H2501     1.0  0.54477  0.37655  0.53101  1.0000
  H   H2502     1.0  0.72727  0.11108  0.61675  1.0000
  C   C1559     1.0  0.59824  0.02972  0.67108  1.0000
  C   C1560     1.0  0.69830  0.04302  0.51677  1.0000
  S   S631      1.0  0.70289  0.01400  0.47034  1.0000
  C   C1561     1.0  0.69035  0.05242  0.50161  1.0000
  S   S632      1.0  0.60658  0.99264  0.60974  1.0000
  H   H2503     1.0  0.70669  0.37504  0.70625  1.0000
  H   H2504     1.0  0.61297  0.02518  0.66486  1.0000
  S   S633      1.0  0.50450  0.41691  0.63233  1.0000
  H   H2505     1.0  0.68834  0.34191  0.54050  1.0000
  H   H2506     1.0  0.70905  0.36413  0.53563  1.0000
  C   C1562     1.0  0.55324  0.98231  0.69978  1.0000
  H   H2507     1.0  0.65855  0.02357  0.59284  1.0000
  H   H2508     1.0  0.73172  0.04154  0.61987  1.0000
  H   H2509     1.0  0.72940  0.42432  0.67034  1.0000
  C   C1563     1.0  0.69642  0.33245  0.55051  1.0000
  H   H2510     1.0  0.67960  0.36100  0.69812  1.0000
  H   H2511     1.0  0.50543  0.45939  0.70480  1.0000
  N   N160      1.0  0.58635  0.01942  0.66700  1.0000
  H   H2512     1.0  0.55164  0.42775  0.57707  1.0000
  C   C1564     1.0  0.65001  0.98366  0.46889  1.0000
  C   C1565     1.0  0.64499  0.98445  0.50095  1.0000
  C   C1566     1.0  0.51188  0.42385  0.60863  1.0000
  H   H2513     1.0  0.56222  0.04071  0.67027  1.0000
  H   H2514     1.0  0.72209  0.33681  0.57880  1.0000
  S   S634      1.0  0.67555  0.01363  0.62440  1.0000
  H   H2515     1.0  0.49035  0.97506  0.49260  1.0000
  Fe  Fe318     1.0  0.59029  0.46781  0.51248  1.0000
  H   H2516     1.0  0.55958  0.40321  0.51805  1.0000
  H   H2517     1.0  0.63028  0.99116  0.50123  1.0000
  H   H2518     1.0  0.53404  0.38586  0.55116  1.0000
  C   C1567     1.0  0.65628  0.00794  0.62041  1.0000
  C   C1568     1.0  0.63125  0.99119  0.63093  1.0000
  C   C1569     1.0  0.73201  0.36564  0.65812  1.0000
  C   C1570     1.0  0.67661  0.34877  0.70870  1.0000
  H   H2519     1.0  0.63171  0.01488  0.58724  1.0000
  H   H2520     1.0  0.54062  0.41491  0.60986  1.0000
  C   C1571     1.0  0.63587  0.00952  0.60030  1.0000
  H   H2521     1.0  0.59014  0.99690  0.68970  1.0000
  C   C1572     1.0  0.53079  0.42170  0.60116  1.0000
  H   H2522     1.0  0.63561  0.45589  0.57151  1.0000
  H   H2523     1.0  0.71356  0.01745  0.52918  1.0000
  C   C1573     1.0  0.64625  0.99642  0.63422  1.0000
  C   C1574     1.0  0.71334  0.09421  0.49697  1.0000
  H   H2524     1.0  0.52669  0.41761  0.49849  1.0000
  H   H2525     1.0  0.52022  0.37972  0.53878  1.0000
  H   H2526     1.0  0.73347  0.29521  0.49173  1.0000
  N   N161      1.0  0.70459  0.34263  0.55926  1.0000
  H   H2527     1.0  0.67733  0.34592  0.67453  1.0000
  Fe  Fe319     1.0  0.70797  0.03570  0.55869  1.0000
  H   H2528     1.0  0.58377  0.99142  0.67119  1.0000
  H   H2529     1.0  0.69541  0.36316  0.57576  1.0000
  H   H2530     1.0  0.58310  0.03695  0.64096  1.0000
  H   H2531     1.0  0.72961  0.21807  0.49427  1.0000
  C   C1575     1.0  0.49145  0.45617  0.70808  1.0000
  C   C1576     1.0  0.67588  0.98051  0.48284  1.0000
  H   H2532     1.0  0.73112  0.05356  0.64715  1.0000
  H   H2533     1.0  0.62365  0.98221  0.64153  1.0000
  H   H2534     1.0  0.68568  0.05105  0.47549  1.0000
  H   H2535     1.0  0.71700  0.41693  0.65753  1.0000
  H   H2536     1.0  0.72645  0.31979  0.56529  1.0000
  C   C1577     1.0  0.64749  0.46412  0.53477  1.0000
  C   C1578     1.0  0.64622  0.46454  0.56630  1.0000
  H   H2537     1.0  0.58018  0.01399  0.64328  1.0000
  H   H2538     1.0  0.68133  0.98500  0.49276  1.0000
  C   C1579     1.0  0.55467  0.42254  0.46716  1.0000
  H   H2539     1.0  0.71573  0.00197  0.50392  1.0000
  C   C1580     1.0  0.58092  0.39098  0.47509  1.0000
  H   H2540     1.0  0.64953  0.98873  0.51162  1.0000
  C   C1581     1.0  0.48817  0.41160  0.70899  1.0000
  S   S635      1.0  0.56675  0.97485  0.64805  1.0000
  H   H2541     1.0  0.53320  0.97463  0.57199  1.0000
  H   H2542     1.0  0.72313  0.07021  0.47511  1.0000
  C   C1582     1.0  0.50494  0.40560  0.71495  1.0000
  H   H2543     1.0  0.51662  0.97631  0.46601  1.0000
  C   C1583     1.0  0.73305  0.07935  0.47286  1.0000
  H   H2544     1.0  0.73210  0.12206  0.58276  1.0000
  H   H2545     1.0  0.48466  0.43371  0.60287  1.0000
  H   H2546     1.0  0.50906  0.46809  0.63511  1.0000
  H   H2547     1.0  0.66155  0.35130  0.71441  1.0000
  C   C1584     1.0  0.52311  0.47151  0.59901  1.0000
  Fe  Fe320     1.0  0.52426  0.03848  0.79366  1.0000
  S   S636      1.0  0.51088  0.01746  0.81504  1.0000
  S   S637      1.0  0.52538  0.06336  0.80375  1.0000
  Fe  Fe321     1.0  0.52893  0.01752  0.76349  1.0000
  Fe  Fe322     1.0  0.49513  0.23095  0.84975  1.0000
  H   H2548     1.0  0.51877  0.14276  0.83368  1.0000
  H   H2549     1.0  0.57684  0.03381  0.83873  1.0000
  Fe  Fe323     1.0  0.53289  0.99699  0.80192  1.0000
  S   S638      1.0  0.50654  0.03988  0.77383  1.0000
  S   S639      1.0  0.54765  0.01794  0.78168  1.0000
  Fe  Fe324     1.0  0.61176  0.12552  0.83949  1.0000
  S   S640      1.0  0.59985  0.12682  0.86896  1.0000
  S   S641      1.0  0.62787  0.14650  0.82124  1.0000
  Fe  Fe325     1.0  0.59683  0.09162  0.84177  1.0000
  S   S642      1.0  0.58416  0.08969  0.87167  1.0000
  S   S643      1.0  0.59736  0.07069  0.82540  1.0000
  Fe  Fe326     1.0  0.57493  0.12018  0.86380  1.0000
  S   S644      1.0  0.54614  0.13328  0.87570  1.0000
  Fe  Fe327     1.0  0.61011  0.09650  0.87433  1.0000
  S   S645      1.0  0.62700  0.08230  0.89599  1.0000
  S   S646      1.0  0.58573  0.12168  0.83367  1.0000
  S   S647      1.0  0.62386  0.09562  0.84509  1.0000
  H   H2550     1.0  0.50769  0.18187  0.79594  1.0000
  C   C1585     1.0  0.53329  0.41112  0.86398  1.0000
  C   C1586     1.0  0.51216  0.44183  0.84558  1.0000
  S   S648      1.0  0.52531  0.21875  0.84812  1.0000
  C   C1587     1.0  0.63630  0.47187  0.92590  1.0000
  Fe  Fe328     1.0  0.56043  0.38718  0.78960  1.0000
  S   S649      1.0  0.54295  0.37874  0.81697  1.0000
  S   S650      1.0  0.58892  0.39000  0.78971  1.0000
  Fe  Fe329     1.0  0.52939  0.39226  0.76941  1.0000
  S   S651      1.0  0.50909  0.38433  0.79522  1.0000
  S   S652      1.0  0.52685  0.39663  0.74002  1.0000
  Fe  Fe330     1.0  0.52113  0.40171  0.80695  1.0000
  S   S653      1.0  0.50471  0.42302  0.82333  1.0000
  Fe  Fe331     1.0  0.53270  0.36209  0.80305  1.0000
  S   S654      1.0  0.53449  0.33196  0.81451  1.0000
  S   S655      1.0  0.53946  0.41151  0.78042  1.0000
  S   S656      1.0  0.55205  0.36869  0.77641  1.0000
  S   S657      1.0  0.70278  0.14788  0.84087  1.0000
  Fe  Fe332     1.0  0.71712  0.31773  0.77447  1.0000
  H   H2551     1.0  0.51327  0.39737  0.96155  1.0000
  Fe  Fe333     1.0  0.68329  0.33842  0.75870  1.0000
  S   S658      1.0  0.69459  0.36401  0.74667  1.0000
  S   S659      1.0  0.65640  0.33524  0.75427  1.0000
  H   H2552     1.0  0.53630  0.45633  0.95418  1.0000
  S   S660      1.0  0.51640  0.99466  0.78260  1.0000
  Fe  Fe334     1.0  0.70399  0.35859  0.77332  1.0000
  C   C1588     1.0  0.71558  0.39498  0.80892  1.0000
  S   S661      1.0  0.70893  0.31958  0.74803  1.0000
  S   S662      1.0  0.69031  0.33452  0.78609  1.0000
  S   S663      1.0  0.53619  0.01906  0.73290  1.0000
  S   S664      1.0  0.69877  0.37972  0.79067  1.0000
  C   C1589     1.0  0.71792  0.38581  0.79465  1.0000
  H   H2553     1.0  0.70202  0.39853  0.81713  1.0000
  Fe  Fe335     1.0  0.72468  0.16072  0.81964  1.0000
  H   H2554     1.0  0.72818  0.28354  0.75885  1.0000
  H   H2555     1.0  0.63433  0.45748  0.93036  1.0000
  H   H2556     1.0  0.63933  0.08517  0.95435  1.0000
  H   H2557     1.0  0.55813  0.43934  0.79575  1.0000
  H   H2558     1.0  0.57484  0.98497  0.84369  1.0000
  C   C1590     1.0  0.50549  0.40410  0.73332  1.0000
  S   S665      1.0  0.71383  0.45912  0.86154  1.0000
  H   H2559     1.0  0.57632  0.45199  0.79003  1.0000
  C   C1591     1.0  0.60758  0.37533  0.77897  1.0000
  C   C1592     1.0  0.62531  0.37471  0.78127  1.0000
  C   C1593     1.0  0.64039  0.36252  0.77357  1.0000
  C   C1594     1.0  0.63776  0.35089  0.76356  1.0000
  C   C1595     1.0  0.62006  0.35159  0.76112  1.0000
  C   C1596     1.0  0.60498  0.36384  0.76878  1.0000
  H   H2560     1.0  0.62742  0.38360  0.78912  1.0000
  H   H2561     1.0  0.65403  0.36210  0.77545  1.0000
  H   H2562     1.0  0.61803  0.34271  0.75323  1.0000
  H   H2563     1.0  0.59142  0.36445  0.76669  1.0000
  C   C1597     1.0  0.51424  0.42472  0.84124  1.0000
  C   C1598     1.0  0.52445  0.40930  0.85081  1.0000
  H   H2564     1.0  0.52563  0.39598  0.84799  1.0000
  H   H2565     1.0  0.54153  0.39919  0.87101  1.0000
  H   H2566     1.0  0.73426  0.10470  0.77459  1.0000
  C   C1599     1.0  0.72933  0.25456  0.76446  1.0000
  C   C1600     1.0  0.50224  0.35732  0.76916  1.0000
  H   H2567     1.0  0.66587  0.46974  0.95312  1.0000
  H   H2568     1.0  0.55249  0.04194  0.84116  1.0000
  H   H2569     1.0  0.71230  0.33460  0.82895  1.0000
  H   H2570     1.0  0.50641  0.42119  0.96223  1.0000
  H   H2571     1.0  0.53043  0.29465  0.82358  1.0000
  H   H2572     1.0  0.56519  0.46304  0.81940  1.0000
  C   C1601     1.0  0.64938  0.14606  0.82574  1.0000
  C   C1602     1.0  0.65749  0.13156  0.83806  1.0000
  C   C1603     1.0  0.67424  0.13200  0.84213  1.0000
  C   C1604     1.0  0.68286  0.14694  0.83403  1.0000
  C   C1605     1.0  0.67519  0.16104  0.82110  1.0000
  C   C1606     1.0  0.65844  0.16061  0.81701  1.0000
  H   H2573     1.0  0.65075  0.12013  0.84460  1.0000
  H   H2574     1.0  0.68051  0.12080  0.85168  1.0000
  H   H2575     1.0  0.68183  0.17257  0.81471  1.0000
  H   H2576     1.0  0.65226  0.17179  0.80737  1.0000
  C   C1607     1.0  0.62147  0.09019  0.91659  1.0000
  C   C1608     1.0  0.63386  0.08414  0.92853  1.0000
  C   C1609     1.0  0.62970  0.08995  0.94524  1.0000
  C   C1610     1.0  0.61309  0.10183  0.95011  1.0000
  C   C1611     1.0  0.60080  0.10809  0.93804  1.0000
  C   C1612     1.0  0.60497  0.10228  0.92131  1.0000
  H   H2577     1.0  0.64670  0.07485  0.92486  1.0000
  H   H2578     1.0  0.56747  0.41436  0.84103  1.0000
  H   H2579     1.0  0.58790  0.11728  0.94175  1.0000
  H   H2580     1.0  0.59531  0.10697  0.91219  1.0000
  C   C1613     1.0  0.54103  0.15721  0.86919  1.0000
  C   C1614     1.0  0.55387  0.16667  0.85673  1.0000
  C   C1615     1.0  0.54905  0.18566  0.85069  1.0000
  C   C1616     1.0  0.53135  0.19521  0.85694  1.0000
  C   C1617     1.0  0.51863  0.18577  0.86963  1.0000
  C   C1618     1.0  0.52350  0.16682  0.87582  1.0000
  H   H2581     1.0  0.56741  0.15933  0.85152  1.0000
  H   H2582     1.0  0.55894  0.19292  0.84089  1.0000
  H   H2583     1.0  0.50508  0.19307  0.87478  1.0000
  H   H2584     1.0  0.51358  0.15954  0.88555  1.0000
  C   C1619     1.0  0.54571  0.06707  0.80786  1.0000
  C   C1620     1.0  0.54434  0.07830  0.82016  1.0000
  C   C1621     1.0  0.56017  0.08015  0.82511  1.0000
  C   C1622     1.0  0.57749  0.07081  0.81770  1.0000
  C   C1623     1.0  0.57892  0.06020  0.80483  1.0000
  C   C1624     1.0  0.56310  0.05845  0.79980  1.0000
  H   H2585     1.0  0.53093  0.08518  0.82629  1.0000
  H   H2586     1.0  0.55894  0.08839  0.83501  1.0000
  H   H2587     1.0  0.59231  0.05314  0.79888  1.0000
  H   H2588     1.0  0.56433  0.05025  0.78987  1.0000
  N   N162      1.0  0.63718  0.14385  0.89036  1.0000
  C   C1625     1.0  0.63481  0.15567  0.87240  1.0000
  C   C1626     1.0  0.64479  0.12475  0.88817  1.0000
  C   C1627     1.0  0.61918  0.14475  0.90316  1.0000
  C   C1628     1.0  0.64999  0.15019  0.89776  1.0000
  H   H2589     1.0  0.64826  0.15613  0.86274  1.0000
  H   H2590     1.0  0.62817  0.16999  0.87368  1.0000
  H   H2591     1.0  0.62614  0.15070  0.86580  1.0000
  H   H2592     1.0  0.64619  0.11538  0.90153  1.0000
  H   H2593     1.0  0.63586  0.11961  0.88204  1.0000
  H   H2594     1.0  0.65865  0.12338  0.87918  1.0000
  H   H2595     1.0  0.62053  0.13615  0.91690  1.0000
  H   H2596     1.0  0.60930  0.13972  0.89813  1.0000
  H   H2597     1.0  0.61283  0.15897  0.90501  1.0000
  H   H2598     1.0  0.65215  0.14151  0.91128  1.0000
  H   H2599     1.0  0.64469  0.16455  0.89963  1.0000
  H   H2600     1.0  0.66373  0.14964  0.88838  1.0000
  C   C1629     1.0  0.56325  0.03011  0.84561  1.0000
  H   H2601     1.0  0.56196  0.02871  0.86057  1.0000
  H   H2602     1.0  0.68311  0.11745  0.78198  1.0000
  C   C1630     1.0  0.51539  0.32220  0.81661  1.0000
  H   H2603     1.0  0.70524  0.13558  0.75990  1.0000
  C   C1631     1.0  0.48822  0.35608  0.74485  1.0000
  H   H2604     1.0  0.57522  0.99555  0.86196  1.0000
  C   C1632     1.0  0.51635  0.40171  0.92499  1.0000
  H   H2605     1.0  0.54666  0.45098  0.82458  1.0000
  N   N163      1.0  0.57349  0.43481  0.81689  1.0000
  H   H2606     1.0  0.71884  0.09122  0.79055  1.0000
  C   C1633     1.0  0.57234  0.43873  0.79737  1.0000
  C   C1634     1.0  0.56777  0.41727  0.82607  1.0000
  H   H2607     1.0  0.51997  0.45705  0.86145  1.0000
  C   C1635     1.0  0.71608  0.12193  0.80209  1.0000
  S   S666      1.0  0.72959  0.29225  0.79284  1.0000
  H   H2608     1.0  0.55385  0.41731  0.82413  1.0000
  H   H2609     1.0  0.48876  0.15206  0.82394  1.0000
  C   C1636     1.0  0.54633  0.99875  0.72470  1.0000
  C   C1637     1.0  0.65306  0.46823  0.94974  1.0000
  H   H2610     1.0  0.72882  0.40663  0.82369  1.0000
  H   H2611     1.0  0.53657  0.42618  0.94249  1.0000
  H   H2612     1.0  0.49530  0.18846  0.84392  1.0000
  H   H2613     1.0  0.73102  0.12219  0.79804  1.0000
  H   H2614     1.0  0.71429  0.10199  0.76811  1.0000
  H   H2615     1.0  0.56139  0.44690  0.84060  1.0000
  H   H2616     1.0  0.52303  0.38779  0.93127  1.0000
  H   H2617     1.0  0.48712  0.32805  0.77387  1.0000
  C   C1638     1.0  0.71022  0.13659  0.77193  1.0000
  H   H2618     1.0  0.52384  0.40486  0.91052  1.0000
  C   C1639     1.0  0.66943  0.46232  0.91997  1.0000
  C   C1640     1.0  0.52112  0.44369  0.85867  1.0000
  H   H2619     1.0  0.67035  0.46635  0.90488  1.0000
  N   N164      1.0  0.51660  0.41551  0.93520  1.0000
  C   C1641     1.0  0.51737  0.30314  0.82114  1.0000
  H   H2620     1.0  0.56267  0.00311  0.81707  1.0000
  S   S667      1.0  0.55065  0.46127  0.91260  1.0000
  H   H2621     1.0  0.68361  0.34783  0.72003  1.0000
  C   C1642     1.0  0.72967  0.27156  0.78694  1.0000
  S   S668      1.0  0.72553  0.16772  0.78944  1.0000
  H   H2622     1.0  0.54122  0.00687  0.86550  1.0000
  H   H2623     1.0  0.49408  0.19944  0.82074  1.0000
  C   C1643     1.0  0.50067  0.32814  0.76425  1.0000
  H   H2624     1.0  0.54309  0.40233  0.94172  1.0000
  H   H2625     1.0  0.56047  0.98575  0.74689  1.0000
  Fe  Fe336     1.0  0.72095  0.34484  0.73801  1.0000
  H   H2626     1.0  0.49211  0.41035  0.95497  1.0000
  H   H2627     1.0  0.60224  0.42249  0.81186  1.0000
  C   C1644     1.0  0.50755  0.43370  0.92638  1.0000
  H   H2628     1.0  0.51437  0.43735  0.91180  1.0000
  C   C1645     1.0  0.50682  0.46169  0.96271  1.0000
  C   C1646     1.0  0.73112  0.25520  0.80004  1.0000
  H   H2629     1.0  0.71992  0.34710  0.80649  1.0000
  H   H2630     1.0  0.50889  0.15549  0.85156  1.0000
  C   C1647     1.0  0.73160  0.23855  0.79535  1.0000
  H   H2631     1.0  0.68744  0.10669  0.80449  1.0000
  H   H2632     1.0  0.50803  0.44460  0.93328  1.0000
  C   C1648     1.0  0.59263  0.43356  0.81844  1.0000
  H   H2633     1.0  0.50143  0.31975  0.75413  1.0000
  H   H2634     1.0  0.51587  0.19283  0.82780  1.0000
  C   C1649     1.0  0.53202  0.42837  0.86759  1.0000
  H   H2635     1.0  0.70196  0.14925  0.77664  1.0000
  H   H2636     1.0  0.71974  0.32334  0.80983  1.0000
  S   S669      1.0  0.54515  0.43048  0.88240  1.0000
  H   H2637     1.0  0.54378  0.41924  0.92087  1.0000
  H   H2638     1.0  0.51144  0.32103  0.77245  1.0000
  C   C1650     1.0  0.52465  0.45229  0.96429  1.0000
  H   H2639     1.0  0.68266  0.46355  0.92267  1.0000
  H   H2640     1.0  0.57734  0.40563  0.82051  1.0000
  C   C1651     1.0  0.72883  0.27115  0.76915  1.0000
  C   C1652     1.0  0.55827  0.98473  0.73387  1.0000
  H   H2641     1.0  0.59744  0.44656  0.81170  1.0000
  H   H2642     1.0  0.50427  0.28016  0.82581  1.0000
  H   H2643     1.0  0.68415  0.31428  0.72736  1.0000
  C   C1653     1.0  0.57596  0.99790  0.84698  1.0000
  H   H2644     1.0  0.53260  0.33987  0.74981  1.0000
  H   H2645     1.0  0.65168  0.45371  0.95488  1.0000
  H   H2646     1.0  0.52227  0.33872  0.73165  1.0000
  H   H2647     1.0  0.59393  0.43049  0.83304  1.0000
  H   H2648     1.0  0.51396  0.98575  0.84307  1.0000
  H   H2649     1.0  0.50406  0.45377  0.83838  1.0000
  S   S670      1.0  0.73143  0.34151  0.76368  1.0000
  C   C1654     1.0  0.56306  0.01586  0.82110  1.0000
  C   C1655     1.0  0.50255  0.29491  0.82244  1.0000
  H   H2650     1.0  0.48949  0.40732  0.76003  1.0000
  C   C1656     1.0  0.49842  0.33306  0.81363  1.0000
  C   C1657     1.0  0.71105  0.47079  0.87926  1.0000
  H   H2651     1.0  0.72882  0.25436  0.75061  1.0000
  N   N165      1.0  0.56136  0.01322  0.84106  1.0000
  H   H2652     1.0  0.52977  0.15983  0.83598  1.0000
  C   C1658     1.0  0.51614  0.15655  0.83699  1.0000
  H   H2653     1.0  0.58162  0.42792  0.79025  1.0000
  C   C1659     1.0  0.48916  0.40841  0.74584  1.0000
  H   H2654     1.0  0.51339  0.35096  0.77704  1.0000
  C   C1660     1.0  0.50256  0.18861  0.82947  1.0000
  Fe  Fe337     1.0  0.54111  0.45862  0.88823  1.0000
  N   N166      1.0  0.50535  0.17057  0.82469  1.0000
  H   H2655     1.0  0.54127  0.99642  0.84704  1.0000
  N   N167      1.0  0.59184  0.32256  0.81469  1.0000
  C   C1661     1.0  0.60377  0.30418  0.81685  1.0000
  C   C1662     1.0  0.60256  0.33639  0.81379  1.0000
  C   C1663     1.0  0.57614  0.32324  0.83041  1.0000
  C   C1664     1.0  0.58482  0.32647  0.79763  1.0000
  H   H2656     1.0  0.59610  0.29344  0.81746  1.0000
  H   H2657     1.0  0.60927  0.30072  0.82963  1.0000
  H   H2658     1.0  0.61576  0.30327  0.80519  1.0000
  H   H2659     1.0  0.59397  0.35045  0.81205  1.0000
  H   H2660     1.0  0.60808  0.33393  0.82643  1.0000
  H   H2661     1.0  0.61449  0.33630  0.80203  1.0000
  H   H2662     1.0  0.56675  0.33690  0.82903  1.0000
  H   H2663     1.0  0.58081  0.32043  0.84357  1.0000
  H   H2664     1.0  0.56767  0.31304  0.83141  1.0000
  H   H2665     1.0  0.57602  0.34033  0.79552  1.0000
  H   H2666     1.0  0.57621  0.31662  0.79800  1.0000
  H   H2667     1.0  0.59624  0.32586  0.78544  1.0000
  H   H2668     1.0  0.71422  0.11042  0.81398  1.0000
  H   H2669     1.0  0.50204  0.40124  0.92464  1.0000
  H   H2670     1.0  0.55156  0.02656  0.81635  1.0000
  H   H2671     1.0  0.66851  0.44763  0.92411  1.0000
  C   C1665     1.0  0.71947  0.10378  0.77969  1.0000
  N   N168      1.0  0.70873  0.12025  0.78672  1.0000
  H   H2672     1.0  0.57620  0.02010  0.81343  1.0000
  H   H2673     1.0  0.59498  0.04696  0.94777  1.0000
  C   C1666     1.0  0.68918  0.11875  0.79318  1.0000
  C   C1667     1.0  0.56117  0.44960  0.82574  1.0000
  C   C1668     1.0  0.54312  0.00899  0.85039  1.0000
  H   H2674     1.0  0.73174  0.25542  0.81386  1.0000
  C   C1669     1.0  0.72256  0.33372  0.81598  1.0000
  H   H2675     1.0  0.68077  0.13103  0.79853  1.0000
  H   H2676     1.0  0.61001  0.06118  0.94820  1.0000
  C   C1670     1.0  0.52109  0.34644  0.74245  1.0000
  C   C1671     1.0  0.60400  0.04910  0.95602  1.0000
  Fe  Fe338     1.0  0.49532  0.01696  0.79415  1.0000
  H   H2677     1.0  0.70909  0.13476  0.80696  1.0000
  C   C1672     1.0  0.53585  0.41580  0.93508  1.0000
  H   H2678     1.0  0.58986  0.00071  0.83992  1.0000
  H   H2679     1.0  0.72819  0.46862  0.91662  1.0000
  C   C1673     1.0  0.73074  0.23823  0.77751  1.0000
  H   H2680     1.0  0.53183  0.02031  0.84604  1.0000
  H   H2681     1.0  0.73258  0.22602  0.80552  1.0000
  H   H2682     1.0  0.49664  0.34777  0.81069  1.0000
  H   H2683     1.0  0.48617  0.98477  0.82699  1.0000
  H   H2684     1.0  0.61553  0.03704  0.95687  1.0000
  H   H2685     1.0  0.72474  0.13843  0.76707  1.0000
  C   C1674     1.0  0.72185  0.46415  0.89257  1.0000
  S   S671      1.0  0.73247  0.21766  0.77060  1.0000
  N   N169      1.0  0.50304  0.34697  0.75516  1.0000
  C   C1675     1.0  0.73073  0.39955  0.81268  1.0000
  H   H2686     1.0  0.50392  0.37158  0.76282  1.0000
  H   H2687     1.0  0.48840  0.34864  0.73413  1.0000
  H   H2688     1.0  0.52327  0.36049  0.73544  1.0000
  H   H2689     1.0  0.66250  0.31841  0.72083  1.0000
  H   H2690     1.0  0.49055  0.44558  0.72091  1.0000
  H   H2691     1.0  0.49284  0.43420  0.92669  1.0000
  H   H2692     1.0  0.73151  0.45130  0.89257  1.0000
  C   C1676     1.0  0.50666  0.41086  0.95431  1.0000
  C   C1677     1.0  0.67763  0.31626  0.71544  1.0000
  H   H2693     1.0  0.52915  0.17473  0.80364  1.0000
  H   H2694     1.0  0.51767  0.15793  0.80145  1.0000
  C   C1678     1.0  0.51541  0.17130  0.80556  1.0000
  C   C1679     1.0  0.48726  0.16588  0.82675  1.0000
  S   S672      1.0  0.48576  0.24087  0.82295  1.0000
  H   H2695     1.0  0.48884  0.35804  0.77904  1.0000
  H   H2696     1.0  0.48966  0.37033  0.73786  1.0000
  C   C1680     1.0  0.48571  0.30572  0.81906  1.0000
  H   H2697     1.0  0.48466  0.97742  0.79750  1.0000
  H   H2698     1.0  0.56919  0.06701  0.96456  1.0000
  H   H2699     1.0  0.59343  0.87368  0.10888  1.0000
  H   H2700     1.0  0.58832  0.90184  0.07434  1.0000
  H   H2701     1.0  0.49023  0.48952  0.04384  1.0000
  S   S673      1.0  0.67621  0.91159  0.08515  1.0000
  H   H2702     1.0  0.53248  0.92107  0.03940  1.0000
  H   H2703     1.0  0.59211  0.88944  0.12312  1.0000
  C   C1681     1.0  0.69084  0.82222  0.20171  1.0000
  H   H2704     1.0  0.71907  0.68086  0.05422  1.0000
  S   S674      1.0  0.72643  0.56139  0.08972  1.0000
  H   H2705     1.0  0.61225  0.47633  0.14205  1.0000
  S   S675      1.0  0.71585  0.86564  0.08919  1.0000
  S   S676      1.0  0.66063  0.51221  0.11643  1.0000
  H   H2706     1.0  0.62465  0.50487  0.13339  1.0000
  Fe  Fe339     1.0  0.56474  0.93777  0.01665  1.0000
  H   H2707     1.0  0.70468  0.80537  0.99340  1.0000
  C   C1682     1.0  0.68197  0.47898  0.15412  1.0000
  Fe  Fe340     1.0  0.60114  0.93044  0.02944  1.0000
  S   S677      1.0  0.58943  0.94743  0.05097  1.0000
  S   S678      1.0  0.63063  0.91476  0.02591  1.0000
  Fe  Fe341     1.0  0.56516  0.93412  0.05702  1.0000
  S   S679      1.0  0.55222  0.92180  0.08572  1.0000
  H   H2708     1.0  0.69595  0.79091  0.01441  1.0000
  S   S680      1.0  0.57771  0.91538  0.03720  1.0000
  S   S681      1.0  0.58932  0.95136  0.00686  1.0000
  H   H2709     1.0  0.51988  0.92435  0.98502  1.0000
  C   C1683     1.0  0.49514  0.95344  0.10708  1.0000
  N   N170      1.0  0.66058  0.49496  0.06115  1.0000
  Fe  Fe342     1.0  0.68998  0.51195  0.10114  1.0000
  Fe  Fe343     1.0  0.71616  0.51155  0.06429  1.0000
  N   N171      1.0  0.69330  0.59140  0.96631  1.0000
  S   S682      1.0  0.69679  0.53414  0.07694  1.0000
  H   H2710     1.0  0.51457  0.95230  0.02955  1.0000
  H   H2711     1.0  0.73235  0.76652  0.02024  1.0000
  C   C1684     1.0  0.62327  0.88931  0.09754  1.0000
  H   H2712     1.0  0.63363  0.89562  0.08650  1.0000
  H   H2713     1.0  0.67681  0.58065  0.99183  1.0000
  C   C1685     1.0  0.56581  0.90860  0.98253  1.0000
  H   H2714     1.0  0.66737  0.50502  0.08165  1.0000
  C   C1686     1.0  0.49757  0.92393  0.03733  1.0000
  H   H2715     1.0  0.50965  0.95619  0.05250  1.0000
  H   H2716     1.0  0.48994  0.91462  0.07413  1.0000
  C   C1687     1.0  0.66585  0.95902  0.03043  1.0000
  H   H2717     1.0  0.71610  0.56893  0.97016  1.0000
  C   C1688     1.0  0.49424  0.95109  0.20402  1.0000
  H   H2718     1.0  0.66580  0.96486  0.01568  1.0000
  H   H2719     1.0  0.67744  0.47535  0.11098  1.0000
  N   N172      1.0  0.72303  0.79547  0.01236  1.0000
  S   S683      1.0  0.70759  0.48927  0.08759  1.0000
  S   S684      1.0  0.54396  0.93514  0.00142  1.0000
  H   H2720     1.0  0.64954  0.51456  0.03928  1.0000
  H   H2721     1.0  0.71204  0.68743  0.03251  1.0000
  H   H2722     1.0  0.71694  0.85621  0.19844  1.0000
  H   H2723     1.0  0.62540  0.89095  0.11077  1.0000
  C   C1689     1.0  0.53064  0.49098  0.21311  1.0000
  C   C1690     1.0  0.60253  0.89595  0.07670  1.0000
  C   C1691     1.0  0.50487  0.95043  0.04303  1.0000
  N   N173      1.0  0.50398  0.93094  0.05032  1.0000
  C   C1692     1.0  0.62645  0.47611  0.13519  1.0000
  H   H2724     1.0  0.69744  0.96969  0.01201  1.0000
  C   C1693     1.0  0.68624  0.59049  0.98615  1.0000
  C   C1694     1.0  0.66667  0.50896  0.06695  1.0000
  C   C1695     1.0  0.67690  0.54027  0.00061  1.0000
  C   C1696     1.0  0.67685  0.54513  0.01698  1.0000
  C   C1697     1.0  0.68999  0.53544  0.02756  1.0000
  C   C1698     1.0  0.70302  0.52058  0.02202  1.0000
  C   C1699     1.0  0.70322  0.51588  0.00550  1.0000
  C   C1700     1.0  0.69022  0.52574  0.99476  1.0000
  H   H2725     1.0  0.66661  0.55643  0.02151  1.0000
  H   H2726     1.0  0.68992  0.53939  0.04008  1.0000
  H   H2727     1.0  0.71724  0.48252  0.14515  1.0000
  C   C1701     1.0  0.54821  0.91882  0.98761  1.0000
  C   C1702     1.0  0.59108  0.88843  0.10927  1.0000
  H   H2728     1.0  0.65407  0.49112  0.03693  1.0000
  Fe  Fe344     1.0  0.70561  0.89612  0.08337  1.0000
  H   H2729     1.0  0.49688  0.90921  0.04231  1.0000
  H   H2730     1.0  0.51841  0.49833  0.20789  1.0000
  H   H2731     1.0  0.52226  0.90564  0.05861  1.0000
  C   C1703     1.0  0.52440  0.95218  0.08546  1.0000
  C   C1704     1.0  0.53062  0.93437  0.09438  1.0000
  C   C1705     1.0  0.51920  0.92621  0.10992  1.0000
  C   C1706     1.0  0.50148  0.93575  0.11631  1.0000
  S   S685      1.0  0.67838  0.87388  0.20229  1.0000
  H   H2732     1.0  0.49222  0.50815  0.01222  1.0000
  H   H2733     1.0  0.52397  0.91244  0.11692  1.0000
  S   S686      1.0  0.71844  0.50689  0.03590  1.0000
  C   C1707     1.0  0.69564  0.86943  0.18317  1.0000
  S   S687      1.0  0.71163  0.51406  0.11497  1.0000
  H   H2734     1.0  0.68594  0.96480  0.06274  1.0000
  C   C1708     1.0  0.72082  0.67662  0.04097  1.0000
  C   C1709     1.0  0.50666  0.96164  0.09172  1.0000
  H   H2735     1.0  0.71539  0.66383  0.04403  1.0000
  C   C1710     1.0  0.66466  0.91299  0.06767  1.0000
  C   C1711     1.0  0.67108  0.90131  0.05519  1.0000
  C   C1712     1.0  0.66074  0.90218  0.04213  1.0000
  C   C1713     1.0  0.64409  0.91482  0.04141  1.0000
  C   C1714     1.0  0.63819  0.92698  0.05341  1.0000
  C   C1715     1.0  0.64830  0.92594  0.06662  1.0000
  H   H2736     1.0  0.68375  0.89132  0.05588  1.0000
  H   H2737     1.0  0.66549  0.89281  0.03278  1.0000
  H   H2738     1.0  0.62587  0.93724  0.05251  1.0000
  H   H2739     1.0  0.64337  0.93513  0.07613  1.0000
  H   H2740     1.0  0.68447  0.49032  0.14216  1.0000
  C   C1716     1.0  0.69130  0.87479  0.16572  1.0000
  C   C1717     1.0  0.70460  0.87070  0.15029  1.0000
  H   H2741     1.0  0.67754  0.88198  0.16416  1.0000
  H   H2742     1.0  0.70109  0.87475  0.13690  1.0000
  C   C1718     1.0  0.70859  0.79316  0.00398  1.0000
  H   H2743     1.0  0.67837  0.60400  0.98908  1.0000
  H   H2744     1.0  0.66329  0.96060  0.06526  1.0000
  C   C1719     1.0  0.72666  0.85583  0.16972  1.0000
  C   C1720     1.0  0.72093  0.81420  0.20936  1.0000
  C   C1721     1.0  0.54523  0.48126  0.20197  1.0000
  H   H2745     1.0  0.49118  0.95885  0.04105  1.0000
  H   H2746     1.0  0.71295  0.82437  0.01098  1.0000
  H   H2747     1.0  0.70608  0.96933  0.03179  1.0000
  H   H2748     1.0  0.73168  0.80315  0.21504  1.0000
  C   C1722     1.0  0.63350  0.49223  0.13030  1.0000
  Fe  Fe345     1.0  0.72025  0.53425  0.08960  1.0000
  C   C1723     1.0  0.60041  0.91731  0.09571  1.0000
  C   C1724     1.0  0.52246  0.92033  0.05267  1.0000
  C   C1725     1.0  0.64245  0.49219  0.07254  1.0000
  H   H2749     1.0  0.49576  0.93411  0.07835  1.0000
  H   H2750     1.0  0.50709  0.92521  0.02369  1.0000
  C   C1726     1.0  0.53355  0.91655  0.98107  1.0000
  H   H2751     1.0  0.69040  0.52197  0.98209  1.0000
  H   H2752     1.0  0.61005  0.92483  0.08498  1.0000
  H   H2753     1.0  0.57664  0.89463  0.10763  1.0000
  C   C1727     1.0  0.67419  0.47762  0.06345  1.0000
  H   H2754     1.0  0.60162  0.91919  0.10919  1.0000
  C   C1728     1.0  0.72225  0.86104  0.15232  1.0000
  H   H2755     1.0  0.71333  0.50443  0.00112  1.0000
  C   C1729     1.0  0.71343  0.86017  0.18510  1.0000
  H   H2756     1.0  0.62654  0.87444  0.09743  1.0000
  H   H2757     1.0  0.58623  0.92411  0.09366  1.0000
  H   H2758     1.0  0.70378  0.81010  0.03193  1.0000
  H   H2759     1.0  0.49264  0.92936  0.12821  1.0000
  H   H2760     1.0  0.69592  0.83008  0.18788  1.0000
  S   S688      1.0  0.66028  0.55282  0.98768  1.0000
  H   H2761     1.0  0.71339  0.78112  0.99718  1.0000
  H   H2762     1.0  0.72689  0.81347  0.02779  1.0000
  H   H2763     1.0  0.65720  0.52249  0.06486  1.0000
  H   H2764     1.0  0.64310  0.48758  0.08732  1.0000
  N   N174      1.0  0.60434  0.89775  0.09480  1.0000
  H   H2765     1.0  0.71564  0.77674  0.03761  1.0000
  C   C1730     1.0  0.69674  0.96353  0.02681  1.0000
  H   H2766     1.0  0.51240  0.47709  0.01857  1.0000
  C   C1731     1.0  0.67751  0.95875  0.05689  1.0000
  H   H2767     1.0  0.68810  0.47938  0.05521  1.0000
  H   H2768     1.0  0.63739  0.48166  0.06863  1.0000
  C   C1732     1.0  0.56876  0.89652  0.97061  1.0000
  C   C1733     1.0  0.65195  0.49202  0.12164  1.0000
  C   C1734     1.0  0.65911  0.50111  0.04169  1.0000
  H   H2769     1.0  0.61196  0.90321  0.06539  1.0000
  H   H2770     1.0  0.53328  0.95879  0.07382  1.0000
  H   H2771     1.0  0.72282  0.78305  0.19890  1.0000
  H   H2772     1.0  0.72523  0.89510  0.16249  1.0000
  S   S689      1.0  0.55067  0.95557  0.03716  1.0000
  S   S690      1.0  0.72077  0.90138  0.10237  1.0000
  C   C1735     1.0  0.71635  0.81157  0.02111  1.0000
  Fe  Fe346     1.0  0.73306  0.87152  0.10599  1.0000
  H   H2773     1.0  0.69574  0.56260  0.96838  1.0000
  H   H2774     1.0  0.71679  0.60198  0.96631  1.0000
  H   H2775     1.0  0.72044  0.90455  0.14008  1.0000
  H   H2776     1.0  0.71745  0.80210  0.18081  1.0000
  Fe  Fe347     1.0  0.57613  0.96732  0.02909  1.0000
  H   H2777     1.0  0.67270  0.50278  0.03274  1.0000
  H   H2778     1.0  0.67058  0.94393  0.03193  1.0000
  H   H2779     1.0  0.68324  0.94380  0.05880  1.0000
  H   H2780     1.0  0.70036  0.78884  0.19334  1.0000
  H   H2781     1.0  0.71076  0.47637  0.16957  1.0000
  H   H2782     1.0  0.67859  0.81735  0.20099  1.0000
  H   H2783     1.0  0.60575  0.88141  0.07535  1.0000
  H   H2784     1.0  0.67801  0.48496  0.16661  1.0000
  H   H2785     1.0  0.57720  0.91023  0.98752  1.0000
  C   C1736     1.0  0.72765  0.77896  0.02630  1.0000
  C   C1737     1.0  0.49110  0.92912  0.06823  1.0000
  S   S691      1.0  0.54317  0.48080  0.17984  1.0000
  H   H2786     1.0  0.69760  0.58591  0.99389  1.0000
  H   H2787     1.0  0.68066  0.51076  0.05926  1.0000
  N   N175      1.0  0.70533  0.80691  0.20796  1.0000
  C   C1738     1.0  0.71177  0.79466  0.19466  1.0000
  H   H2788     1.0  0.65132  0.96162  0.03797  1.0000
  H   H2789     1.0  0.52795  0.92560  0.06192  1.0000
  C   C1739     1.0  0.66327  0.47566  0.11766  1.0000
  H   H2790     1.0  0.63193  0.50508  0.07122  1.0000
  H   H2791     1.0  0.50930  0.94949  0.20287  1.0000
  C   C1740     1.0  0.72921  0.73243  0.96937  1.0000
  H   H2792     1.0  0.72754  0.82130  0.19579  1.0000
  H   H2793     1.0  0.71948  0.74526  0.96759  1.0000
  N   N176      1.0  0.67769  0.96709  0.03737  1.0000
  S   S692      1.0  0.72762  0.90174  0.05860  1.0000
  H   H2794     1.0  0.71769  0.91928  0.15572  1.0000
  H   H2795     1.0  0.70238  0.94857  0.02802  1.0000
  H   H2796     1.0  0.68603  0.83210  0.21108  1.0000
  C   C1741     1.0  0.72645  0.90692  0.15082  1.0000
  H   H2797     1.0  0.49181  0.95199  0.19013  1.0000
  H   H2798     1.0  0.66989  0.47410  0.15294  1.0000
  C   C1742     1.0  0.53646  0.90431  0.96936  1.0000
  H   H2799     1.0  0.73308  0.59203  0.10009  1.0000
  H   H2800     1.0  0.58248  0.88891  0.96641  1.0000
  Fe  Fe348     1.0  0.72999  0.49290  0.09951  1.0000
  H   H2801     1.0  0.49018  0.93831  0.21277  1.0000
  H   H2802     1.0  0.50006  0.88690  0.21355  1.0000
  H   H2803     1.0  0.73374  0.67906  0.00481  1.0000
  H   H2804     1.0  0.67558  0.47258  0.07799  1.0000
  H   H2805     1.0  0.55276  0.55494  0.24718  1.0000
  H   H2806     1.0  0.64031  0.57522  0.42395  1.0000
  H   H2807     1.0  0.57028  0.54494  0.26051  1.0000
  H   H2808     1.0  0.63072  0.54740  0.44845  1.0000
  H   H2809     1.0  0.64398  0.61855  0.41140  1.0000
  H   H2810     1.0  0.54499  0.96182  0.32427  1.0000
  S   S693      1.0  0.50474  0.48692  0.30030  1.0000
  H   H2811     1.0  0.68212  0.67040  0.24799  1.0000
  Fe  Fe349     1.0  0.55054  0.96835  0.43267  1.0000
  S   S694      1.0  0.57213  0.95613  0.41102  1.0000
  N   N177      1.0  0.50093  0.79825  0.38834  1.0000
  H   H2812     1.0  0.66019  0.60268  0.39877  1.0000
  H   H2813     1.0  0.50213  0.96407  0.22983  1.0000
  Fe  Fe350     1.0  0.54876  0.95847  0.39737  1.0000
  S   S695      1.0  0.54396  0.93408  0.38922  1.0000
  C   C1743     1.0  0.61299  0.52153  0.44722  1.0000
  H   H2814     1.0  0.57979  0.55616  0.46184  1.0000
  Fe  Fe351     1.0  0.52581  0.91301  0.30329  1.0000
  S   S696      1.0  0.54101  0.88396  0.30938  1.0000
  S   S697      1.0  0.53254  0.93735  0.30984  1.0000
  Fe  Fe352     1.0  0.50318  0.90442  0.27993  1.0000
  S   S698      1.0  0.51671  0.87479  0.28363  1.0000
  H   H2815     1.0  0.61070  0.56175  0.45914  1.0000
  Fe  Fe353     1.0  0.51356  0.87631  0.31303  1.0000
  C   C1744     1.0  0.54734  0.48126  0.23794  1.0000
  Fe  Fe354     1.0  0.54299  0.88469  0.27964  1.0000
  S   S699      1.0  0.56905  0.87562  0.26010  1.0000
  H   H2816     1.0  0.71486  0.63714  0.27462  1.0000
  S   S700      1.0  0.52963  0.91430  0.27320  1.0000
  Fe  Fe355     1.0  0.71363  0.66860  0.31027  1.0000
  H   H2817     1.0  0.69988  0.94136  0.31309  1.0000
  S   S701      1.0  0.69861  0.64513  0.32269  1.0000
  Fe  Fe356     1.0  0.71447  0.70906  0.30168  1.0000
  H   H2818     1.0  0.63758  0.65111  0.39804  1.0000
  S   S702      1.0  0.69660  0.73672  0.30439  1.0000
  H   H2819     1.0  0.71214  0.62420  0.24875  1.0000
  C   C1745     1.0  0.51950  0.78665  0.38787  1.0000
  C   C1746     1.0  0.62593  0.59376  0.44206  1.0000
  N   N178      1.0  0.60495  0.54075  0.44876  1.0000
  S   S703      1.0  0.70862  0.69092  0.28593  1.0000
  S   S704      1.0  0.71696  0.68717  0.32703  1.0000
  Fe  Fe357     1.0  0.66803  0.85512  0.27089  1.0000
  S   S705      1.0  0.64184  0.85286  0.29185  1.0000
  Fe  Fe358     1.0  0.70086  0.87373  0.25904  1.0000
  Fe  Fe359     1.0  0.70551  0.83419  0.25591  1.0000
  H   H2820     1.0  0.55010  0.53550  0.26528  1.0000
  S   S706      1.0  0.69522  0.84843  0.27977  1.0000
  H   H2821     1.0  0.68575  0.79117  0.22577  1.0000
  Fe  Fe360     1.0  0.58841  0.59079  0.34401  1.0000
  S   S707      1.0  0.57835  0.59219  0.37378  1.0000
  S   S708      1.0  0.58717  0.56528  0.33504  1.0000
  Fe  Fe361     1.0  0.60401  0.62557  0.33531  1.0000
  S   S709      1.0  0.59517  0.62958  0.36425  1.0000
  S   S710      1.0  0.61750  0.64767  0.31526  1.0000
  Fe  Fe362     1.0  0.60540  0.59943  0.37200  1.0000
  S   S711      1.0  0.62356  0.58629  0.39271  1.0000
  Fe  Fe363     1.0  0.56890  0.62221  0.36338  1.0000
  S   S712      1.0  0.54274  0.63829  0.37747  1.0000
  S   S713      1.0  0.61642  0.59584  0.34299  1.0000
  S   S714      1.0  0.57683  0.62041  0.33366  1.0000
  C   C1747     1.0  0.70116  0.63642  0.24578  1.0000
  H   H2822     1.0  0.64182  0.63879  0.36248  1.0000
  H   H2823     1.0  0.52733  0.53828  0.38319  1.0000
  C   C1748     1.0  0.49125  0.90014  0.23679  1.0000
  C   C1749     1.0  0.49102  0.79198  0.37763  1.0000
  C   C1750     1.0  0.67630  0.65907  0.25800  1.0000
  C   C1751     1.0  0.58632  0.54185  0.46040  1.0000
  H   H2824     1.0  0.59019  0.51427  0.25670  1.0000
  C   C1752     1.0  0.70251  0.90486  0.32212  1.0000
  H   H2825     1.0  0.61390  0.51257  0.46090  1.0000
  Fe  Fe364     1.0  0.52240  0.53209  0.29358  1.0000
  H   H2826     1.0  0.66812  0.61757  0.40844  1.0000
  S   S715      1.0  0.53025  0.55934  0.29043  1.0000
  H   H2827     1.0  0.72415  0.77631  0.30460  1.0000
  S   S716      1.0  0.51176  0.52587  0.27155  1.0000
  C   C1753     1.0  0.57184  0.56435  0.32174  1.0000
  C   C1754     1.0  0.55878  0.57962  0.31601  1.0000
  C   C1755     1.0  0.54631  0.57800  0.30608  1.0000
  C   C1756     1.0  0.54661  0.56109  0.30214  1.0000
  C   C1757     1.0  0.55979  0.54589  0.30769  1.0000
  C   C1758     1.0  0.57244  0.54757  0.31733  1.0000
  H   H2828     1.0  0.55825  0.59262  0.31927  1.0000
  H   H2829     1.0  0.53621  0.58984  0.30172  1.0000
  H   H2830     1.0  0.56030  0.53286  0.30452  1.0000
  H   H2831     1.0  0.58265  0.53577  0.32158  1.0000
  H   H2832     1.0  0.49899  0.69610  0.36628  1.0000
  C   C1759     1.0  0.60115  0.61710  0.43143  1.0000
  C   C1760     1.0  0.60438  0.61006  0.41551  1.0000
  C   C1761     1.0  0.61855  0.59500  0.41277  1.0000
  C   C1762     1.0  0.62925  0.58681  0.42609  1.0000
  S   S717      1.0  0.49891  0.52450  0.31576  1.0000
  H   H2833     1.0  0.59024  0.62884  0.43346  1.0000
  H   H2834     1.0  0.59593  0.61633  0.40538  1.0000
  S   S718      1.0  0.54040  0.50451  0.29935  1.0000
  H   H2835     1.0  0.69652  0.65414  0.28328  1.0000
  C   C1763     1.0  0.52988  0.65592  0.36365  1.0000
  C   C1764     1.0  0.51745  0.67001  0.37138  1.0000
  C   C1765     1.0  0.50816  0.68503  0.36030  1.0000
  C   C1766     1.0  0.51114  0.68583  0.34149  1.0000
  C   C1767     1.0  0.52297  0.67139  0.33389  1.0000
  C   C1768     1.0  0.53243  0.65652  0.34492  1.0000
  H   H2836     1.0  0.51538  0.66956  0.38590  1.0000
  H   H2837     1.0  0.70799  0.64699  0.23557  1.0000
  H   H2838     1.0  0.52511  0.67188  0.31936  1.0000
  H   H2839     1.0  0.54168  0.64555  0.33892  1.0000
  C   C1769     1.0  0.67597  0.64649  0.32053  1.0000
  C   C1770     1.0  0.66812  0.63094  0.32777  1.0000
  C   C1771     1.0  0.65012  0.63133  0.32638  1.0000
  C   C1772     1.0  0.63995  0.64718  0.31743  1.0000
  C   C1773     1.0  0.64783  0.66272  0.30998  1.0000
  C   C1774     1.0  0.66577  0.66244  0.31168  1.0000
  H   H2840     1.0  0.67604  0.61848  0.33439  1.0000
  H   H2841     1.0  0.64425  0.61924  0.33198  1.0000
  H   H2842     1.0  0.64000  0.67503  0.30302  1.0000
  H   H2843     1.0  0.67171  0.67452  0.30613  1.0000
  C   C1775     1.0  0.70342  0.75612  0.28908  1.0000
  C   C1776     1.0  0.69325  0.77357  0.29120  1.0000
  C   C1777     1.0  0.69935  0.78931  0.28025  1.0000
  C   C1778     1.0  0.71578  0.78761  0.26729  1.0000
  H   H2844     1.0  0.64667  0.61461  0.37133  1.0000
  H   H2845     1.0  0.52737  0.79084  0.39595  1.0000
  H   H2846     1.0  0.68082  0.77492  0.30162  1.0000
  H   H2847     1.0  0.69162  0.80272  0.28225  1.0000
  H   H2848     1.0  0.63430  0.58742  0.45222  1.0000
  H   H2849     1.0  0.67517  0.63943  0.35946  1.0000
  H   H2850     1.0  0.48873  0.82669  0.38081  1.0000
  C   C1779     1.0  0.55565  0.52557  0.23299  1.0000
  C   C1780     1.0  0.50449  0.83224  0.31384  1.0000
  H   H2851     1.0  0.72709  0.74112  0.27347  1.0000
  H   H2852     1.0  0.69340  0.80518  0.23659  1.0000
  C   C1781     1.0  0.57908  0.51206  0.25104  1.0000
  S   S719      1.0  0.50141  0.85570  0.33661  1.0000
  H   H2853     1.0  0.51550  0.83860  0.30502  1.0000
  H   H2854     1.0  0.50496  0.95243  0.38491  1.0000
  C   C1782     1.0  0.48932  0.89638  0.22048  1.0000
  H   H2855     1.0  0.69342  0.61646  0.27996  1.0000
  S   S720      1.0  0.71132  0.89725  0.26274  1.0000
  H   H2856     1.0  0.68177  0.92872  0.34303  1.0000
  H   H2857     1.0  0.66141  0.65137  0.39602  1.0000
  H   H2858     1.0  0.72311  0.93017  0.30561  1.0000
  H   H2859     1.0  0.70836  0.78473  0.23109  1.0000
  H   H2860     1.0  0.50571  0.81457  0.29566  1.0000
  Fe  Fe365     1.0  0.51598  0.49622  0.31989  1.0000
  H   H2861     1.0  0.58527  0.50191  0.24203  1.0000
  H   H2862     1.0  0.71762  0.94207  0.32421  1.0000
  C   C1783     1.0  0.62198  0.85732  0.28268  1.0000
  C   C1784     1.0  0.62270  0.86339  0.26386  1.0000
  C   C1785     1.0  0.60642  0.86845  0.25699  1.0000
  C   C1786     1.0  0.58936  0.86760  0.26889  1.0000
  C   C1787     1.0  0.58869  0.86117  0.28765  1.0000
  C   C1788     1.0  0.60497  0.85602  0.29453  1.0000
  H   H2863     1.0  0.63577  0.86451  0.25463  1.0000
  H   H2864     1.0  0.60701  0.87339  0.24245  1.0000
  H   H2865     1.0  0.57565  0.86007  0.29686  1.0000
  H   H2866     1.0  0.60438  0.85123  0.30908  1.0000
  C   C1789     1.0  0.53166  0.49096  0.23110  1.0000
  H   H2867     1.0  0.50531  0.52062  0.35506  1.0000
  C   C1790     1.0  0.64297  0.62826  0.37521  1.0000
  C   C1791     1.0  0.72711  0.96741  0.36308  1.0000
  C   C1792     1.0  0.61194  0.60899  0.44471  1.0000
  Fe  Fe366     1.0  0.68535  0.86459  0.23039  1.0000
  N   N179      1.0  0.69098  0.64319  0.26258  1.0000
  C   C1793     1.0  0.49072  0.79680  0.40750  1.0000
  S   S721      1.0  0.67283  0.88144  0.25196  1.0000
  C   C1794     1.0  0.54176  0.93483  0.36685  1.0000
  C   C1795     1.0  0.54518  0.94970  0.35269  1.0000
  C   C1796     1.0  0.54243  0.95025  0.33519  1.0000
  C   C1797     1.0  0.53628  0.93595  0.33179  1.0000
  C   C1798     1.0  0.53316  0.92096  0.34586  1.0000
  C   C1799     1.0  0.53588  0.92043  0.36336  1.0000
  H   H2868     1.0  0.59769  0.56670  0.43104  1.0000
  H   H2869     1.0  0.54806  0.53829  0.22546  1.0000
  H   H2870     1.0  0.52847  0.90985  0.34332  1.0000
  H   H2871     1.0  0.53329  0.90886  0.37428  1.0000
  H   H2872     1.0  0.48960  0.78240  0.41402  1.0000
  C   C1800     1.0  0.71936  0.75449  0.27547  1.0000
  C   C1801     1.0  0.58302  0.53810  0.22640  1.0000
  H   H2873     1.0  0.54010  0.51528  0.38310  1.0000
  N   N180      1.0  0.65669  0.63072  0.38445  1.0000
  H   H2874     1.0  0.73068  0.86408  0.28327  1.0000
  C   C1802     1.0  0.70373  0.64881  0.27069  1.0000
  H   H2875     1.0  0.59023  0.52905  0.21647  1.0000
  C   C1803     1.0  0.60377  0.55211  0.43037  1.0000
  S   S722      1.0  0.49813  0.90546  0.30967  1.0000
  C   C1804     1.0  0.65142  0.64913  0.38890  1.0000
  S   S723      1.0  0.67788  0.83883  0.24875  1.0000
  H   H2876     1.0  0.70436  0.96271  0.38552  1.0000
  S   S724      1.0  0.71378  0.85892  0.23586  1.0000
  H   H2877     1.0  0.59510  0.54738  0.42357  1.0000
  N   N181      1.0  0.52891  0.52832  0.35904  1.0000
  C   C1805     1.0  0.53691  0.52908  0.37435  1.0000
  C   C1806     1.0  0.52499  0.54685  0.34772  1.0000
  C   C1807     1.0  0.51164  0.52134  0.36633  1.0000
  C   C1808     1.0  0.54213  0.51596  0.34774  1.0000
  C   C1809     1.0  0.68269  0.62850  0.27588  1.0000
  H   H2878     1.0  0.54998  0.53433  0.36923  1.0000
  H   H2879     1.0  0.56941  0.50557  0.26277  1.0000
  S   S725      1.0  0.54918  0.48043  0.26044  1.0000
  H   H2880     1.0  0.53755  0.55287  0.34276  1.0000
  H   H2881     1.0  0.51985  0.54667  0.33546  1.0000
  H   H2882     1.0  0.60450  0.51596  0.44098  1.0000
  C   C1810     1.0  0.49910  0.81846  0.30867  1.0000
  H   H2883     1.0  0.51875  0.77201  0.39367  1.0000
  H   H2884     1.0  0.54482  0.50167  0.35566  1.0000
  H   H2885     1.0  0.68982  0.91230  0.31691  1.0000
  H   H2886     1.0  0.53680  0.51549  0.33573  1.0000
  N   N182      1.0  0.56953  0.52938  0.24110  1.0000
  H   H2887     1.0  0.67924  0.61521  0.36812  1.0000
  S   S726      1.0  0.72479  0.80690  0.25469  1.0000
  C   C1811     1.0  0.56033  0.54175  0.25401  1.0000
  H   H2888     1.0  0.66839  0.66452  0.27040  1.0000
  S   S727      1.0  0.55386  0.95456  0.46145  1.0000
  C   C1812     1.0  0.49571  0.83763  0.33041  1.0000
  C   C1813     1.0  0.61670  0.54751  0.45710  1.0000
  H   H2889     1.0  0.68581  0.63011  0.37886  1.0000
  C   C1814     1.0  0.67501  0.62875  0.37222  1.0000
  H   H2890     1.0  0.51413  0.50723  0.37469  1.0000
  H   H2891     1.0  0.71304  0.90076  0.31022  1.0000
  H   H2892     1.0  0.49758  0.80169  0.41597  1.0000
  H   H2893     1.0  0.51445  0.55635  0.35557  1.0000
  C   C1815     1.0  0.72559  0.77020  0.26468  1.0000
  H   H2894     1.0  0.51806  0.96945  0.38247  1.0000
  H   H2895     1.0  0.62713  0.52015  0.43867  1.0000
  Fe  Fe367     1.0  0.48942  0.51606  0.29437  1.0000
  H   H2896     1.0  0.69952  0.92965  0.35400  1.0000
  H   H2897     1.0  0.57622  0.55117  0.21860  1.0000
  C   C1816     1.0  0.72941  0.89308  0.27441  1.0000
  H   H2898     1.0  0.57714  0.53661  0.45467  1.0000
  Fe  Fe368     1.0  0.52799  0.49735  0.27912  1.0000
  C   C1817     1.0  0.73231  0.77538  0.31499  1.0000
  H   H2899     1.0  0.65095  0.66001  0.37631  1.0000
  H   H2900     1.0  0.56204  0.51612  0.22329  1.0000
  C   C1818     1.0  0.50380  0.96695  0.38560  1.0000
  N   N183      1.0  0.58832  0.91416  0.29447  1.0000
  C   C1819     1.0  0.57802  0.91576  0.28008  1.0000
  C   C1820     1.0  0.58079  0.90197  0.31132  1.0000
  C   C1821     1.0  0.58648  0.93242  0.29836  1.0000
  C   C1822     1.0  0.60796  0.90648  0.28811  1.0000
  H   H2901     1.0  0.58356  0.92449  0.26702  1.0000
  H   H2902     1.0  0.56321  0.92179  0.28426  1.0000
  H   H2903     1.0  0.57873  0.90218  0.27711  1.0000
  H   H2904     1.0  0.58815  0.90048  0.32252  1.0000
  H   H2905     1.0  0.56595  0.90731  0.31638  1.0000
  H   H2906     1.0  0.58201  0.88804  0.30891  1.0000
  H   H2907     1.0  0.59394  0.93168  0.30928  1.0000
  H   H2908     1.0  0.57179  0.93859  0.30308  1.0000
  H   H2909     1.0  0.59203  0.94199  0.28595  1.0000
  H   H2910     1.0  0.61425  0.91549  0.27565  1.0000
  H   H2911     1.0  0.60972  0.89300  0.28450  1.0000
  H   H2912     1.0  0.61611  0.90435  0.29883  1.0000
  N   N184      1.0  0.57341  0.68804  0.33162  1.0000
  C   C1823     1.0  0.57247  0.67443  0.32153  1.0000
  C   C1824     1.0  0.56042  0.68602  0.34943  1.0000
  C   C1825     1.0  0.56841  0.70663  0.32078  1.0000
  C   C1826     1.0  0.59230  0.68504  0.33471  1.0000
  H   H2913     1.0  0.58267  0.67499  0.30836  1.0000
  H   H2914     1.0  0.55863  0.67667  0.31831  1.0000
  H   H2915     1.0  0.57548  0.66027  0.32961  1.0000
  H   H2916     1.0  0.56121  0.69558  0.35775  1.0000
  H   H2917     1.0  0.54598  0.68896  0.34754  1.0000
  H   H2918     1.0  0.56316  0.67185  0.35766  1.0000
  H   H2919     1.0  0.56894  0.71729  0.32797  1.0000
  H   H2920     1.0  0.55415  0.70928  0.31828  1.0000
  H   H2921     1.0  0.57787  0.70859  0.30720  1.0000
  H   H2922     1.0  0.59362  0.69508  0.34222  1.0000
  H   H2923     1.0  0.60251  0.68623  0.32154  1.0000
  H   H2924     1.0  0.59643  0.67107  0.34280  1.0000
  C   C1827     1.0  0.71256  0.93320  0.31791  1.0000
  H   H2925     1.0  0.71031  0.65983  0.26100  1.0000
  H   H2926     1.0  0.50348  0.89363  0.24236  1.0000
  C   C1828     1.0  0.65732  0.61676  0.40149  1.0000
  H   H2927     1.0  0.54993  0.96075  0.35525  1.0000
  S   S728      1.0  0.49188  0.74979  0.34751  1.0000
  S   S729      1.0  0.51845  0.48253  0.34895  1.0000
  H   H2928     1.0  0.55556  0.52038  0.34255  1.0000
  C   C1829     1.0  0.69495  0.92096  0.34707  1.0000
  H   H2929     1.0  0.52024  0.49824  0.23969  1.0000
  H   H2930     1.0  0.67464  0.63325  0.28857  1.0000
  N   N185      1.0  0.70905  0.91623  0.33105  1.0000
  S   S730      1.0  0.50079  0.70487  0.32700  1.0000
  H   H2931     1.0  0.69195  0.63238  0.23904  1.0000
  H   H2932     1.0  0.52758  0.78751  0.37360  1.0000
  H   H2933     1.0  0.62907  0.62915  0.38424  1.0000
  H   H2934     1.0  0.50978  0.81921  0.36576  1.0000
  H   H2935     1.0  0.61759  0.55176  0.42121  1.0000
  H   H2936     1.0  0.51023  0.82257  0.38786  1.0000
  C   C1830     1.0  0.50250  0.81749  0.38036  1.0000
  H   H2937     1.0  0.48693  0.85329  0.28407  1.0000
  H   H2938     1.0  0.54530  0.51893  0.24371  1.0000
  H   H2939     1.0  0.69946  0.89204  0.33169  1.0000
  H   H2940     1.0  0.72428  0.89282  0.34668  1.0000
  C   C1831     1.0  0.72624  0.90594  0.33711  1.0000
  H   H2941     1.0  0.50134  0.53019  0.37505  1.0000
  H   H2942     1.0  0.66635  0.65534  0.25191  1.0000
  S   S731      1.0  0.52705  0.96879  0.42009  1.0000
  H   H2943     1.0  0.67317  0.62373  0.27014  1.0000
  H   H2944     1.0  0.59366  0.54126  0.23203  1.0000
  S   S732      1.0  0.73027  0.94607  0.35719  1.0000
  H   H2945     1.0  0.69207  0.90851  0.35739  1.0000
  H   H2946     1.0  0.72319  0.77255  0.32868  1.0000
  H   H2947     1.0  0.50315  0.96295  0.35238  1.0000
  H   H2948     1.0  0.49824  0.79301  0.36306  1.0000
  H   H2949     1.0  0.73139  0.91395  0.34423  1.0000
  H   H2950     1.0  0.48985  0.77743  0.38312  1.0000
  C   C1832     1.0  0.69785  0.79653  0.22609  1.0000
  C   C1833     1.0  0.48726  0.96537  0.23016  1.0000
  H   H2951     1.0  0.71637  0.82419  0.21862  1.0000
  H   H2952     1.0  0.49772  0.96842  0.40000  1.0000
  H   H2953     1.0  0.73149  0.92144  0.26772  1.0000
  S   S733      1.0  0.60787  0.61832  0.46431  1.0000
  C   C1834     1.0  0.48528  0.80965  0.32027  1.0000
  C   C1835     1.0  0.71346  0.97200  0.37805  1.0000
  C   C1836     1.0  0.49036  0.47327  0.60865  1.0000
  H   H2954     1.0  0.48648  0.69673  0.57148  1.0000
  S   S734      1.0  0.71198  0.62831  0.55841  1.0000
  H   H2955     1.0  0.50681  0.83881  0.57392  1.0000
  C   C1837     1.0  0.69328  0.96461  0.61264  1.0000
  N   N186      1.0  0.64433  0.47599  0.54810  1.0000
  Fe  Fe369     1.0  0.59841  0.92845  0.63998  1.0000
  S   S735      1.0  0.57148  0.93007  0.66003  1.0000
  S   S736      1.0  0.61857  0.90249  0.63504  1.0000
  Fe  Fe370     1.0  0.56078  0.95227  0.63801  1.0000
  S   S737      1.0  0.53340  0.95427  0.63095  1.0000
  Fe  Fe371     1.0  0.57989  0.95219  0.66829  1.0000
  H   H2956     1.0  0.58673  0.53351  0.47441  1.0000
  S   S738      1.0  0.58711  0.94906  0.61728  1.0000
  S   S739      1.0  0.60785  0.94881  0.64996  1.0000
  N   N187      1.0  0.68484  0.95563  0.60289  1.0000
  H   H2957     1.0  0.72145  0.75728  0.59705  1.0000
  H   H2958     1.0  0.55058  0.64244  0.49414  1.0000
  S   S740      1.0  0.50850  0.90095  0.55003  1.0000
  H   H2959     1.0  0.55720  0.66921  0.51497  1.0000
  H   H2960     1.0  0.63080  0.48660  0.49172  1.0000
  C   C1838     1.0  0.50292  0.90145  0.50180  1.0000
  Fe  Fe372     1.0  0.50153  0.89889  0.58042  1.0000
  S   S741      1.0  0.52545  0.89193  0.59494  1.0000
  H   H2961     1.0  0.62362  0.49611  0.53576  1.0000
  H   H2962     1.0  0.60294  0.86974  0.69212  1.0000
  S   S742      1.0  0.61329  0.79679  0.64687  1.0000
  H   H2963     1.0  0.58071  0.66970  0.61640  1.0000
  Fe  Fe373     1.0  0.59800  0.77393  0.65967  1.0000
  S   S743      1.0  0.57777  0.77280  0.64335  1.0000
  Fe  Fe374     1.0  0.60494  0.80378  0.67468  1.0000
  H   H2964     1.0  0.54959  0.95671  0.56219  1.0000
  Fe  Fe375     1.0  0.65861  0.60020  0.50117  1.0000
  S   S744      1.0  0.63081  0.61873  0.50360  1.0000
  S   S745      1.0  0.68433  0.61200  0.49431  1.0000
  Fe  Fe376     1.0  0.64269  0.56638  0.50593  1.0000
  S   S746      1.0  0.61366  0.58223  0.50899  1.0000
  S   S747      1.0  0.65082  0.53603  0.50602  1.0000
  Fe  Fe377     1.0  0.62486  0.60302  0.48560  1.0000
  Fe  Fe378     1.0  0.62205  0.59648  0.52678  1.0000
  S   S748      1.0  0.60224  0.60130  0.55307  1.0000
  S   S749      1.0  0.65343  0.58625  0.48107  1.0000
  S   S750      1.0  0.65036  0.57886  0.52574  1.0000
  Fe  Fe379     1.0  0.52283  0.72675  0.59158  1.0000
  S   S751      1.0  0.51982  0.70429  0.57960  1.0000
  H   H2965     1.0  0.62719  0.67954  0.60910  1.0000
  Fe  Fe380     1.0  0.54464  0.70029  0.61869  1.0000
  S   S752      1.0  0.54264  0.67551  0.60942  1.0000
  S   S753      1.0  0.56252  0.69701  0.63897  1.0000
  Fe  Fe381     1.0  0.54932  0.69245  0.58126  1.0000
  S   S754      1.0  0.57205  0.68427  0.55811  1.0000
  H   H2966     1.0  0.60664  0.90071  0.67452  1.0000
  S   S755      1.0  0.55292  0.71641  0.59058  1.0000
  S   S756      1.0  0.51459  0.71290  0.62078  1.0000
  C   C1839     1.0  0.51430  0.74559  0.54904  1.0000
  H   H2967     1.0  0.52668  0.73636  0.55242  1.0000
  C   C1840     1.0  0.48844  0.77005  0.55561  1.0000
  C   C1841     1.0  0.59483  0.62413  0.55577  1.0000
  C   C1842     1.0  0.57875  0.62905  0.56847  1.0000
  C   C1843     1.0  0.57181  0.64747  0.56970  1.0000
  C   C1844     1.0  0.58095  0.66099  0.55816  1.0000
  C   C1845     1.0  0.59729  0.65602  0.54587  1.0000
  C   C1846     1.0  0.60428  0.63762  0.54478  1.0000
  H   H2968     1.0  0.57143  0.61862  0.57707  1.0000
  H   H2969     1.0  0.55916  0.65122  0.57920  1.0000
  H   H2970     1.0  0.60451  0.66644  0.53705  1.0000
  H   H2971     1.0  0.61700  0.63390  0.53543  1.0000
  C   C1847     1.0  0.57391  0.75149  0.64241  1.0000
  C   C1848     1.0  0.56161  0.75111  0.63182  1.0000
  C   C1849     1.0  0.55807  0.73444  0.63077  1.0000
  C   C1850     1.0  0.56681  0.71800  0.64033  1.0000
  C   C1851     1.0  0.57915  0.71833  0.65094  1.0000
  C   C1852     1.0  0.58272  0.73506  0.65197  1.0000
  H   H2972     1.0  0.55474  0.76377  0.62443  1.0000
  H   H2973     1.0  0.54842  0.73435  0.62269  1.0000
  H   H2974     1.0  0.58589  0.70566  0.65842  1.0000
  H   H2975     1.0  0.59217  0.73526  0.66022  1.0000
  C   C1853     1.0  0.62643  0.49922  0.49676  1.0000
  C   C1854     1.0  0.63956  0.50844  0.49810  1.0000
  C   C1855     1.0  0.63401  0.52506  0.50415  1.0000
  H   H2976     1.0  0.51442  0.93817  0.55057  1.0000
  C   C1856     1.0  0.52470  0.93982  0.55765  1.0000
  H   H2977     1.0  0.65407  0.50279  0.49427  1.0000
  H   H2978     1.0  0.53409  0.95127  0.58349  1.0000
  C   C1857     1.0  0.61028  0.88236  0.64578  1.0000
  C   C1858     1.0  0.62250  0.86542  0.64732  1.0000
  C   C1859     1.0  0.61619  0.84947  0.65736  1.0000
  C   C1860     1.0  0.59774  0.85060  0.66614  1.0000
  C   C1861     1.0  0.58547  0.86743  0.66418  1.0000
  C   C1862     1.0  0.59166  0.88319  0.65373  1.0000
  H   H2979     1.0  0.63692  0.86468  0.64106  1.0000
  H   H2980     1.0  0.62570  0.83644  0.65877  1.0000
  H   H2981     1.0  0.58202  0.89597  0.65189  1.0000
  C   C1863     1.0  0.53122  0.93617  0.62207  1.0000
  C   C1864     1.0  0.54631  0.92232  0.61778  1.0000
  C   C1865     1.0  0.54436  0.90858  0.60976  1.0000
  C   C1866     1.0  0.52734  0.90865  0.60597  1.0000
  C   C1867     1.0  0.51221  0.92232  0.61058  1.0000
  C   C1868     1.0  0.51415  0.93604  0.61858  1.0000
  H   H2982     1.0  0.55953  0.92233  0.62041  1.0000
  H   H2983     1.0  0.55617  0.89812  0.60615  1.0000
  H   H2984     1.0  0.49894  0.92223  0.60818  1.0000
  C   C1869     1.0  0.50041  0.81203  0.56123  1.0000
  C   C1870     1.0  0.70329  0.62564  0.54030  1.0000
  C   C1871     1.0  0.71135  0.63148  0.52200  1.0000
  C   C1872     1.0  0.70518  0.62755  0.50795  1.0000
  C   C1873     1.0  0.69075  0.61802  0.51210  1.0000
  C   C1874     1.0  0.68236  0.61265  0.53037  1.0000
  C   C1875     1.0  0.68868  0.61638  0.54442  1.0000
  H   H2985     1.0  0.51361  0.97034  0.53385  1.0000
  H   H2986     1.0  0.67124  0.60531  0.53370  1.0000
  H   H2987     1.0  0.68237  0.61185  0.55854  1.0000
  C   C1876     1.0  0.71414  0.78116  0.65748  1.0000
  C   C1877     1.0  0.71708  0.76981  0.64502  1.0000
  C   C1878     1.0  0.70210  0.76700  0.63944  1.0000
  C   C1879     1.0  0.68413  0.77555  0.64620  1.0000
  C   C1880     1.0  0.68118  0.78712  0.65847  1.0000
  C   C1881     1.0  0.69618  0.78990  0.66412  1.0000
  H   H2988     1.0  0.50042  0.82918  0.59780  1.0000
  H   H2989     1.0  0.70446  0.75796  0.63009  1.0000
  H   H2990     1.0  0.66740  0.79403  0.66349  1.0000
  H   H2991     1.0  0.69389  0.79881  0.67367  1.0000
  S   S757      1.0  0.66564  0.77086  0.63965  1.0000
  H   H2992     1.0  0.72084  0.59082  0.52413  1.0000
  H   H2993     1.0  0.53861  0.93539  0.54951  1.0000
  H   H2994     1.0  0.54800  0.64877  0.52484  1.0000
  H   H2995     1.0  0.69426  0.74454  0.56998  1.0000
  C   C1882     1.0  0.71294  0.71774  0.59203  1.0000
  H   H2996     1.0  0.51485  0.65139  0.63217  1.0000
  H   H2997     1.0  0.66965  0.94193  0.62780  1.0000
  H   H2998     1.0  0.61494  0.47865  0.55363  1.0000
  C   C1883     1.0  0.53600  0.93982  0.49506  1.0000
  C   C1884     1.0  0.52107  0.93880  0.50988  1.0000
  C   C1885     1.0  0.50462  0.95157  0.50911  1.0000
  H   H2999     1.0  0.54886  0.93016  0.49588  1.0000
  H   H3000     1.0  0.52255  0.92836  0.52194  1.0000
  N   N188      1.0  0.52168  0.95891  0.55982  1.0000
  H   H3001     1.0  0.69176  0.93161  0.59122  1.0000
  C   C1886     1.0  0.48765  0.65512  0.70735  1.0000
  S   S758      1.0  0.50947  0.75589  0.58166  1.0000
  C   C1887     1.0  0.56095  0.65412  0.51953  1.0000
  Fe  Fe382     1.0  0.63736  0.77742  0.65727  1.0000
  H   H3002     1.0  0.58303  0.66642  0.59360  1.0000
  H   H3003     1.0  0.54890  0.81910  0.64140  1.0000
  H   H3004     1.0  0.53905  0.84905  0.65166  1.0000
  C   C1888     1.0  0.50181  0.64702  0.63720  1.0000
  H   H3005     1.0  0.49831  0.90195  0.51655  1.0000
  S   S759      1.0  0.57933  0.95055  0.69811  1.0000
  H   H3006     1.0  0.55896  0.66327  0.48393  1.0000
  C   C1889     1.0  0.50083  0.63009  0.64919  1.0000
  C   C1890     1.0  0.49233  0.75705  0.52897  1.0000
  H   H3007     1.0  0.55961  0.84388  0.66066  1.0000
  C   C1891     1.0  0.66742  0.95109  0.61455  1.0000
  H   H3008     1.0  0.62257  0.90050  0.68811  1.0000
  H   H3009     1.0  0.52339  0.93019  0.57110  1.0000
  H   H3010     1.0  0.49253  0.83473  0.51943  1.0000
  H   H3011     1.0  0.58622  0.62257  0.52255  1.0000
  H   H3012     1.0  0.60311  0.91897  0.68626  1.0000
  H   H3013     1.0  0.67761  0.96538  0.48650  1.0000
  C   C1892     1.0  0.69763  0.93872  0.59865  1.0000
  C   C1893     1.0  0.50835  0.74519  0.53340  1.0000
  H   H3014     1.0  0.59755  0.65110  0.50871  1.0000
  H   H3015     1.0  0.50012  0.65384  0.69622  1.0000
  C   C1894     1.0  0.50554  0.82574  0.58398  1.0000
  S   S760      1.0  0.73259  0.78374  0.66564  1.0000
  H   H3016     1.0  0.62269  0.49649  0.55912  1.0000
  Fe  Fe383     1.0  0.61424  0.76441  0.69420  1.0000
  C   C1895     1.0  0.72415  0.74247  0.59677  1.0000
  H   H3017     1.0  0.59140  0.83675  0.61652  1.0000
  H   H3018     1.0  0.58639  0.66819  0.49230  1.0000
  H   H3019     1.0  0.48595  0.80169  0.60742  1.0000
  H   H3020     1.0  0.58691  0.61830  0.50061  1.0000
  H   H3021     1.0  0.57111  0.81382  0.62702  1.0000
  H   H3022     1.0  0.72151  0.59001  0.55576  1.0000
  H   H3023     1.0  0.50143  0.50116  0.58305  1.0000
  H   H3024     1.0  0.51836  0.48859  0.62675  1.0000
  H   H3025     1.0  0.70085  0.92898  0.61132  1.0000
  Fe  Fe384     1.0  0.51325  0.68966  0.60878  1.0000
  C   C1896     1.0  0.66557  0.76266  0.70924  1.0000
  C   C1897     1.0  0.50684  0.48221  0.62672  1.0000
  C   C1898     1.0  0.58340  0.84302  0.62838  1.0000
  H   H3026     1.0  0.54084  0.84847  0.61946  1.0000
  C   C1899     1.0  0.56327  0.82131  0.63811  1.0000
  H   H3027     1.0  0.56279  0.84280  0.60476  1.0000
  H   H3028     1.0  0.51372  0.50798  0.59645  1.0000
  C   C1900     1.0  0.53444  0.95328  0.47920  1.0000
  C   C1901     1.0  0.60355  0.87398  0.70471  1.0000
  N   N189      1.0  0.59665  0.89386  0.70354  1.0000
  C   C1902     1.0  0.60212  0.52331  0.50729  1.0000
  C   C1903     1.0  0.55559  0.84945  0.61658  1.0000
  H   H3029     1.0  0.50540  0.78984  0.59347  1.0000
  C   C1904     1.0  0.57821  0.62546  0.51161  1.0000
  H   H3030     1.0  0.49390  0.49004  0.63379  1.0000
  H   H3031     1.0  0.49272  0.49011  0.68918  1.0000
  H   H3032     1.0  0.66073  0.94414  0.60771  1.0000
  C   C1905     1.0  0.69175  0.74170  0.60600  1.0000
  H   H3033     1.0  0.69346  0.73412  0.62000  1.0000
  H   H3034     1.0  0.51595  0.73538  0.52496  1.0000
  H   H3035     1.0  0.50359  0.82434  0.55088  1.0000
  C   C1906     1.0  0.70579  0.74804  0.57392  1.0000
  H   H3036     1.0  0.72253  0.63875  0.51869  1.0000
  H   H3037     1.0  0.57554  0.89484  0.68925  1.0000
  C   C1907     1.0  0.68104  0.96816  0.58570  1.0000
  N   N190      1.0  0.50571  0.48200  0.60791  1.0000
  H   H3038     1.0  0.50421  0.91594  0.46615  1.0000
  N   N191      1.0  0.56400  0.84097  0.63278  1.0000
  H   H3039     1.0  0.50240  0.94663  0.62207  1.0000
  H   H3040     1.0  0.55607  0.86426  0.61215  1.0000
  H   H3041     1.0  0.70638  0.96837  0.60417  1.0000
  H   H3042     1.0  0.67434  0.96202  0.57813  1.0000
  H   H3043     1.0  0.65103  0.96861  0.47184  1.0000
  H   H3044     1.0  0.48930  0.50913  0.60369  1.0000
  H   H3045     1.0  0.58762  0.52919  0.51067  1.0000
  C   C1908     1.0  0.49167  0.79909  0.59334  1.0000
  H   H3046     1.0  0.50972  0.88703  0.50100  1.0000
  C   C1909     1.0  0.66617  0.74224  0.68980  1.0000
  C   C1910     1.0  0.69430  0.74386  0.69752  1.0000
  H   H3047     1.0  0.49368  0.62430  0.69396  1.0000
  H   H3048     1.0  0.70144  0.71328  0.58905  1.0000
  C   C1911     1.0  0.56317  0.64842  0.48951  1.0000
  H   H3049     1.0  0.67977  0.73802  0.60308  1.0000
  C   C1912     1.0  0.50242  0.50093  0.59730  1.0000
  H   H3050     1.0  0.51349  0.91010  0.49587  1.0000
  H   H3051     1.0  0.72493  0.56638  0.52905  1.0000
  H   H3052     1.0  0.57155  0.91348  0.70078  1.0000
  H   H3053     1.0  0.69709  0.75446  0.68497  1.0000
  H   H3054     1.0  0.71833  0.74517  0.56321  1.0000
  H   H3055     1.0  0.65740  0.96362  0.61769  1.0000
  H   H3056     1.0  0.56593  0.61908  0.51749  1.0000
  S   S761      1.0  0.58948  0.83144  0.67994  1.0000
  H   H3057     1.0  0.58455  0.85767  0.62508  1.0000
  H   H3058     1.0  0.57113  0.86831  0.67080  1.0000
  N   N192      1.0  0.67432  0.74470  0.70429  1.0000
  C   C1913     1.0  0.58976  0.65321  0.49771  1.0000
  H   H3059     1.0  0.59561  0.64970  0.60914  1.0000
  H   H3060     1.0  0.60585  0.67783  0.62513  1.0000
  H   H3061     1.0  0.61082  0.54499  0.51388  1.0000
  H   H3062     1.0  0.66776  0.75334  0.67751  1.0000
  Fe  Fe385     1.0  0.48674  0.88467  0.55426  1.0000
  C   C1914     1.0  0.60769  0.50669  0.50128  1.0000
  H   H3063     1.0  0.48816  0.93619  0.48795  1.0000
  C   C1915     1.0  0.61525  0.53239  0.50889  1.0000
  H   H3064     1.0  0.56935  0.81455  0.65044  1.0000
  H   H3065     1.0  0.67271  0.72905  0.68536  1.0000
  H   H3066     1.0  0.65119  0.74242  0.69451  1.0000
  S   S762      1.0  0.63052  0.78673  0.68403  1.0000
  H   H3067     1.0  0.59030  0.83616  0.64010  1.0000
  S   S763      1.0  0.59127  0.49675  0.49711  1.0000
  C   C1916     1.0  0.57718  0.89854  0.70173  1.0000
  N   N193      1.0  0.70864  0.73749  0.59220  1.0000
  H   H3068     1.0  0.71093  0.94171  0.58987  1.0000
  H   H3069     1.0  0.55434  0.86493  0.64470  1.0000
  N   N194      1.0  0.60608  0.67453  0.59820  1.0000
  C   C1917     1.0  0.61913  0.66712  0.58285  1.0000
  C   C1918     1.0  0.59886  0.69418  0.59191  1.0000
  C   C1919     1.0  0.61549  0.67224  0.61343  1.0000
  C   C1920     1.0  0.59069  0.66463  0.60463  1.0000
  H   H3070     1.0  0.63100  0.67417  0.57766  1.0000
  H   H3071     1.0  0.61232  0.66884  0.57115  1.0000
  H   H3072     1.0  0.62468  0.65224  0.58699  1.0000
  H   H3073     1.0  0.58886  0.70019  0.60314  1.0000
  H   H3074     1.0  0.61005  0.70212  0.58701  1.0000
  H   H3075     1.0  0.59165  0.69641  0.58040  1.0000
  H   H3076     1.0  0.62099  0.65757  0.61863  1.0000
  H   H3077     1.0  0.53775  0.96723  0.53307  1.0000
  C   C1921     1.0  0.50409  0.75769  0.56042  1.0000
  C   C1922     1.0  0.60774  0.90393  0.68743  1.0000
  H   H3078     1.0  0.56784  0.65153  0.53129  1.0000
  S   S764      1.0  0.58805  0.78215  0.68694  1.0000
  S   S765      1.0  0.62272  0.75385  0.66798  1.0000
  C   C1923     1.0  0.62557  0.48731  0.54923  1.0000
  N   N195      1.0  0.57301  0.64532  0.50459  1.0000
  Fe  Fe386     1.0  0.59414  0.96970  0.62905  1.0000
  H   H3079     1.0  0.59923  0.64679  0.48648  1.0000
  H   H3080     1.0  0.71582  0.70928  0.60540  1.0000
  H   H3081     1.0  0.61840  0.53888  0.47070  1.0000
  H   H3082     1.0  0.51314  0.62147  0.65342  1.0000
  H   H3083     1.0  0.72719  0.56553  0.56129  1.0000
  C   C1924     1.0  0.55379  0.85012  0.64812  1.0000
  H   H3084     1.0  0.71167  0.63179  0.49383  1.0000
  H   H3085     1.0  0.57205  0.64200  0.47799  1.0000
  H   H3086     1.0  0.70088  0.74619  0.70785  1.0000
  C   C1925     1.0  0.53524  0.96048  0.56976  1.0000
  H   H3087     1.0  0.56839  0.89122  0.71368  1.0000
  H   H3088     1.0  0.51960  0.81715  0.58357  1.0000
  H   H3089     1.0  0.70250  0.76302  0.57356  1.0000
  H   H3090     1.0  0.51328  0.80140  0.56086  1.0000
  H   H3091     1.0  0.69638  0.95562  0.62569  1.0000
  H   H3092     1.0  0.70142  0.73040  0.69393  1.0000
  H   H3093     1.0  0.68799  0.75655  0.60641  1.0000
  H   H3094     1.0  0.53504  0.47774  0.59801  1.0000
  H   H3095     1.0  0.66761  0.77405  0.69725  1.0000
  H   H3096     1.0  0.50067  0.95519  0.58407  1.0000
  C   C1926     1.0  0.56574  0.96865  0.70860  1.0000
  N   N196      1.0  0.49304  0.81626  0.57971  1.0000
  S   S766      1.0  0.48672  0.67925  0.61631  1.0000
  H   H3097     1.0  0.67232  0.47980  0.54111  1.0000
  H   H3098     1.0  0.72535  0.71415  0.58142  1.0000
  C   C1927     1.0  0.50303  0.96508  0.49325  1.0000
  S   S767      1.0  0.49348  0.86257  0.53779  1.0000
  H   H3099     1.0  0.65600  0.49719  0.55180  1.0000
  H   H3100     1.0  0.65699  0.49686  0.52848  1.0000
  H   H3101     1.0  0.50068  0.89289  0.47087  1.0000
  H   H3102     1.0  0.61813  0.86990  0.70632  1.0000
  C   C1928     1.0  0.65802  0.48794  0.54214  1.0000
  H   H3103     1.0  0.72680  0.73469  0.61043  1.0000
  C   C1929     1.0  0.49392  0.90705  0.47276  1.0000
  C   C1930     1.0  0.51784  0.96579  0.47818  1.0000
  H   H3104     1.0  0.48869  0.71699  0.55407  1.0000
  H   H3105     1.0  0.64572  0.96942  0.50495  1.0000
  N   N197      1.0  0.48723  0.90773  0.49235  1.0000
  C   C1931     1.0  0.48597  0.65811  0.63155  1.0000
  S   S768      1.0  0.48605  0.95125  0.52794  1.0000
  C   C1932     1.0  0.50286  0.96420  0.57028  1.0000
  C   C1933     1.0  0.73314  0.57803  0.55551  1.0000
  H   H3106     1.0  0.73089  0.76304  0.63983  1.0000
  C   C1934     1.0  0.73186  0.57831  0.52448  1.0000
  H   H3107     1.0  0.49039  0.80691  0.55655  1.0000
  H   H3108     1.0  0.49229  0.96321  0.56308  1.0000
  Fe  Fe387     1.0  0.48529  0.92519  0.54915  1.0000
  S   S769      1.0  0.73317  0.67242  0.55050  1.0000
  H   H3109     1.0  0.65046  0.76373  0.71442  1.0000
  H   H3110     1.0  0.64458  0.47302  0.57656  1.0000
  C   C1935     1.0  0.52386  0.97107  0.54155  1.0000
  H   H3111     1.0  0.69396  0.97160  0.57643  1.0000
  H   H3112     1.0  0.64716  0.47225  0.52071  1.0000
  H   H3113     1.0  0.55347  0.93557  0.84029  1.0000
  H   H3114     1.0  0.67415  0.74852  0.84832  1.0000
  Fe  Fe388     1.0  0.51307  0.90523  0.90577  1.0000
  S   S770      1.0  0.50794  0.89523  0.93633  1.0000
  H   H3115     1.0  0.49624  0.81797  0.87536  1.0000
  Fe  Fe389     1.0  0.53367  0.86789  0.89808  1.0000
  S   S771      1.0  0.53100  0.85498  0.92783  1.0000
  S   S772      1.0  0.54649  0.85398  0.87406  1.0000
  C   C1936     1.0  0.67118  0.73006  0.72060  1.0000
  Fe  Fe390     1.0  0.53745  0.88066  0.93143  1.0000
  H   H3116     1.0  0.51627  0.81193  0.88512  1.0000
  S   S773      1.0  0.50404  0.88200  0.90019  1.0000
  S   S774      1.0  0.54295  0.89221  0.90119  1.0000
  C   C1937     1.0  0.51249  0.57543  0.84271  1.0000
  C   C1938     1.0  0.53370  0.67572  0.84615  1.0000
  H   H3117     1.0  0.56408  0.68894  0.79041  1.0000
  Fe  Fe391     1.0  0.52658  0.49956  0.87773  1.0000
  C   C1939     1.0  0.65542  0.49316  0.92381  1.0000
  S   S775      1.0  0.51511  0.52083  0.85524  1.0000
  H   H3118     1.0  0.52924  0.72183  0.83877  1.0000
  H   H3119     1.0  0.54147  0.73177  0.76217  1.0000
  H   H3120     1.0  0.68982  0.71946  0.87941  1.0000
  H   H3121     1.0  0.53320  0.96367  0.90678  1.0000
  C   C1940     1.0  0.51034  0.56586  0.87546  1.0000
  S   S776      1.0  0.53436  0.50557  0.90149  1.0000
  H   H3122     1.0  0.52373  0.93404  0.91915  1.0000
  H   H3123     1.0  0.52741  0.93414  0.94118  1.0000
  S   S777      1.0  0.49096  0.69045  0.81979  1.0000
  H   H3124     1.0  0.67717  0.73147  0.73181  1.0000
  H   H3125     1.0  0.66859  0.58629  0.96176  1.0000
  H   H3126     1.0  0.68957  0.49232  0.86964  1.0000
  Fe  Fe392     1.0  0.56670  0.75434  0.86083  1.0000
  S   S778      1.0  0.58078  0.72497  0.86796  1.0000
  H   H3127     1.0  0.53582  0.92057  0.86935  1.0000
  Fe  Fe393     1.0  0.57427  0.75367  0.82049  1.0000
  S   S779      1.0  0.58897  0.72442  0.82430  1.0000
  S   S780      1.0  0.56839  0.76994  0.79315  1.0000
  Fe  Fe394     1.0  0.56621  0.71972  0.84852  1.0000
  Fe  Fe395     1.0  0.60237  0.73202  0.84335  1.0000
  S   S781      1.0  0.63252  0.71994  0.84234  1.0000
  S   S782      1.0  0.55015  0.74845  0.84340  1.0000
  S   S783      1.0  0.58962  0.76192  0.83751  1.0000
  S   S784      1.0  0.55664  0.69298  0.85476  1.0000
  S   S785      1.0  0.70451  0.50166  0.92473  1.0000
  H   H3128     1.0  0.70845  0.73020  0.87802  1.0000
  S   S786      1.0  0.58898  0.49303  0.88820  1.0000
  C   C1941     1.0  0.54357  0.95928  0.91572  1.0000
  Fe  Fe396     1.0  0.50179  0.87057  0.93024  1.0000
  C   C1942     1.0  0.58345  0.76415  0.77318  1.0000
  C   C1943     1.0  0.59931  0.75050  0.77403  1.0000
  C   C1944     1.0  0.61013  0.74499  0.75794  1.0000
  C   C1945     1.0  0.60538  0.75340  0.74092  1.0000
  C   C1946     1.0  0.58990  0.76749  0.74003  1.0000
  C   C1947     1.0  0.57891  0.77276  0.75613  1.0000
  H   H3129     1.0  0.60310  0.74401  0.78708  1.0000
  H   H3130     1.0  0.62216  0.73416  0.75872  1.0000
  H   H3131     1.0  0.49700  0.97109  0.87266  1.0000
  H   H3132     1.0  0.56673  0.78342  0.75538  1.0000
  S   S787      1.0  0.55364  0.48141  0.86931  1.0000
  C   C1948     1.0  0.50846  0.69110  0.83056  1.0000
  H   H3133     1.0  0.55510  0.96657  0.90903  1.0000
  C   C1949     1.0  0.69613  0.49703  0.89353  1.0000
  H   H3134     1.0  0.53870  0.91516  0.93025  1.0000
  H   H3135     1.0  0.54842  0.70738  0.76441  1.0000
  H   H3136     1.0  0.51597  0.55382  0.82823  1.0000
  H   H3137     1.0  0.68631  0.50979  0.89374  1.0000
  C   C1950     1.0  0.65411  0.70583  0.89540  1.0000
  C   C1951     1.0  0.66452  0.69898  0.88000  1.0000
  C   C1952     1.0  0.65770  0.70336  0.86383  1.0000
  C   C1953     1.0  0.64025  0.71432  0.86304  1.0000
  C   C1954     1.0  0.62947  0.72066  0.87860  1.0000
  C   C1955     1.0  0.63642  0.71643  0.89476  1.0000
  H   H3138     1.0  0.67788  0.69041  0.88040  1.0000
  H   H3139     1.0  0.66601  0.69826  0.85187  1.0000
  H   H3140     1.0  0.61601  0.72925  0.87807  1.0000
  H   H3141     1.0  0.62823  0.72177  0.90663  1.0000
  S   S788      1.0  0.50284  0.48006  0.94446  1.0000
  H   H3142     1.0  0.57993  0.51574  0.94457  1.0000
  S   S789      1.0  0.66121  0.54067  0.91139  1.0000
  C   C1956     1.0  0.52652  0.70876  0.83864  1.0000
  H   H3143     1.0  0.66079  0.73895  0.86953  1.0000
  H   H3144     1.0  0.54870  0.93680  0.89213  1.0000
  S   S790      1.0  0.66319  0.70227  0.91519  1.0000
  H   H3145     1.0  0.50974  0.96091  0.81452  1.0000
  H   H3146     1.0  0.50881  0.56919  0.88867  1.0000
  H   H3147     1.0  0.66596  0.76356  0.89264  1.0000
  C   C1957     1.0  0.51887  0.97161  0.84876  1.0000
  C   C1958     1.0  0.59487  0.50375  0.90294  1.0000
  C   C1959     1.0  0.61127  0.51043  0.89749  1.0000
  C   C1960     1.0  0.50926  0.96328  0.86554  1.0000
  C   C1961     1.0  0.58347  0.50588  0.91983  1.0000
  H   H3148     1.0  0.58615  0.77411  0.72700  1.0000
  H   H3149     1.0  0.49090  0.82154  0.93104  1.0000
  H   H3150     1.0  0.57077  0.50082  0.92410  1.0000
  C   C1962     1.0  0.54303  0.71858  0.77224  1.0000
  H   H3151     1.0  0.71670  0.71950  0.95500  1.0000
  C   C1963     1.0  0.51340  0.54341  0.85719  1.0000
  H   H3152     1.0  0.61261  0.89590  0.72202  1.0000
  C   C1964     1.0  0.51198  0.70801  0.83091  1.0000
  H   H3153     1.0  0.65869  0.76318  0.86286  1.0000
  C   C1965     1.0  0.54990  0.82999  0.87729  1.0000
  C   C1966     1.0  0.55454  0.82182  0.86196  1.0000
  C   C1967     1.0  0.55644  0.80283  0.86410  1.0000
  C   C1968     1.0  0.55371  0.79190  0.88163  1.0000
  C   C1969     1.0  0.54943  0.80001  0.89697  1.0000
  C   C1970     1.0  0.54756  0.81901  0.89482  1.0000
  H   H3154     1.0  0.55644  0.83025  0.84836  1.0000
  H   H3155     1.0  0.55971  0.79670  0.85219  1.0000
  H   H3156     1.0  0.53693  0.96394  0.92883  1.0000
  H   H3157     1.0  0.54430  0.82512  0.90670  1.0000
  H   H3158     1.0  0.62004  0.50894  0.88433  1.0000
  H   H3159     1.0  0.58992  0.89168  0.73274  1.0000
  C   C1971     1.0  0.58866  0.51434  0.93138  1.0000
  H   H3160     1.0  0.56419  0.91850  0.90337  1.0000
  H   H3161     1.0  0.65589  0.49796  0.90886  1.0000
  H   H3162     1.0  0.57993  0.70964  0.76520  1.0000
  C   C1972     1.0  0.51402  0.55725  0.84144  1.0000
  H   H3163     1.0  0.71856  0.49949  0.84436  1.0000
  S   S791      1.0  0.55425  0.76835  0.88487  1.0000
  H   H3164     1.0  0.66903  0.61004  0.95892  1.0000
  H   H3165     1.0  0.50359  0.72054  0.82501  1.0000
  H   H3166     1.0  0.69985  0.76299  0.84865  1.0000
  Fe  Fe397     1.0  0.49367  0.62253  0.84245  1.0000
  C   C1973     1.0  0.51528  0.94485  0.87305  1.0000
  C   C1974     1.0  0.53118  0.93485  0.86383  1.0000
  C   C1975     1.0  0.54112  0.94336  0.84732  1.0000
  H   H3167     1.0  0.54745  0.79158  0.91056  1.0000
  C   C1976     1.0  0.53492  0.96171  0.83965  1.0000
  H   H3168     1.0  0.50426  0.93969  0.81417  1.0000
  H   H3169     1.0  0.67137  0.76500  0.72013  1.0000
  S   S792      1.0  0.61854  0.74556  0.72111  1.0000
  C   C1977     1.0  0.69657  0.73111  0.87175  1.0000
  C   C1978     1.0  0.69804  0.48716  0.87987  1.0000
  H   H3170     1.0  0.68248  0.59740  0.94181  1.0000
  Fe  Fe398     1.0  0.52345  0.48055  0.91773  1.0000
  H   H3171     1.0  0.55738  0.93711  0.94477  1.0000
  S   S793      1.0  0.66549  0.59335  0.90278  1.0000
  S   S794      1.0  0.51046  0.60203  0.86136  1.0000
  H   H3172     1.0  0.70966  0.57353  0.94827  1.0000
  H   H3173     1.0  0.68653  0.74898  0.89935  1.0000
  S   S795      1.0  0.65878  0.51997  0.95512  1.0000
  C   C1979     1.0  0.50127  0.81203  0.88836  1.0000
  H   H3174     1.0  0.51652  0.66185  0.83830  1.0000
  Fe  Fe399     1.0  0.68078  0.52502  0.92999  1.0000
  C   C1980     1.0  0.61636  0.51909  0.90896  1.0000
  C   C1981     1.0  0.70698  0.49034  0.90683  1.0000
  N   N198      1.0  0.55536  0.71821  0.78439  1.0000
  C   C1982     1.0  0.55713  0.70050  0.79748  1.0000
  C   C1983     1.0  0.54763  0.73328  0.79449  1.0000
  C   C1984     1.0  0.57370  0.72053  0.77330  1.0000
  H   H3175     1.0  0.54344  0.69765  0.80510  1.0000
  H   H3176     1.0  0.56517  0.70026  0.80780  1.0000
  H   H3177     1.0  0.54655  0.74689  0.78503  1.0000
  H   H3178     1.0  0.53365  0.73224  0.80275  1.0000
  H   H3179     1.0  0.55642  0.73333  0.80399  1.0000
  H   H3180     1.0  0.57294  0.73389  0.76345  1.0000
  H   H3181     1.0  0.58335  0.72012  0.78213  1.0000
  C   C1985     1.0  0.53428  0.93027  0.92777  1.0000
  H   H3182     1.0  0.48757  0.58624  0.80884  1.0000
  Fe  Fe400     1.0  0.72319  0.65630  0.91174  1.0000
  H   H3183     1.0  0.51306  0.81340  0.91811  1.0000
  H   H3184     1.0  0.52903  0.71690  0.78021  1.0000
  H   H3185     1.0  0.49027  0.84854  0.88384  1.0000
  H   H3186     1.0  0.66778  0.73927  0.89882  1.0000
  H   H3187     1.0  0.70230  0.72903  0.85748  1.0000
  H   H3188     1.0  0.49738  0.56328  0.80568  1.0000
  C   C1986     1.0  0.70507  0.60521  0.95916  1.0000
  H   H3189     1.0  0.71103  0.60592  0.94434  1.0000
  H   H3190     1.0  0.68420  0.77744  0.86328  1.0000
  S   S796      1.0  0.55879  0.88084  0.94721  1.0000
  H   H3191     1.0  0.57050  0.94035  0.89395  1.0000
  C   C1987     1.0  0.60519  0.52079  0.92606  1.0000
  H   H3192     1.0  0.49966  0.79752  0.89265  1.0000
  C   C1988     1.0  0.71522  0.59896  0.90762  1.0000
  S   S797      1.0  0.71119  0.67834  0.89053  1.0000
  H   H3193     1.0  0.62888  0.52443  0.90458  1.0000
  H   H3194     1.0  0.64128  0.47681  0.95754  1.0000
  S   S798      1.0  0.70397  0.66696  0.93558  1.0000
  C   C1989     1.0  0.68136  0.62151  0.90282  1.0000
  S   S799      1.0  0.71315  0.70760  0.91454  1.0000
  N   N199      1.0  0.55009  0.93925  0.91893  1.0000
  C   C1990     1.0  0.51134  0.54778  0.87423  1.0000
  Fe  Fe401     1.0  0.63945  0.53751  0.93706  1.0000
  Fe  Fe402     1.0  0.66448  0.56522  0.92034  1.0000
  C   C1991     1.0  0.69565  0.62905  0.90445  1.0000
  N   N200      1.0  0.60816  0.67097  0.88651  1.0000
  C   C1992     1.0  0.60024  0.65433  0.89157  1.0000
  C   C1993     1.0  0.60800  0.67929  0.86704  1.0000
  C   C1994     1.0  0.62730  0.66614  0.88940  1.0000
  C   C1995     1.0  0.59706  0.68417  0.89800  1.0000
  H   H3195     1.0  0.60835  0.64405  0.88321  1.0000
  H   H3196     1.0  0.58583  0.65757  0.88938  1.0000
  H   H3197     1.0  0.60001  0.64773  0.90621  1.0000
  H   H3198     1.0  0.59377  0.68304  0.86432  1.0000
  H   H3199     1.0  0.61365  0.69200  0.86281  1.0000
  H   H3200     1.0  0.61641  0.66987  0.85788  1.0000
  H   H3201     1.0  0.62796  0.65982  0.90395  1.0000
  H   H3202     1.0  0.63361  0.67845  0.88577  1.0000
  H   H3203     1.0  0.63615  0.65629  0.88086  1.0000
  H   H3204     1.0  0.60273  0.69687  0.89458  1.0000
  H   H3205     1.0  0.59679  0.67836  0.91280  1.0000
  H   H3206     1.0  0.58256  0.68827  0.89602  1.0000
  N   N201      1.0  0.56705  0.55514  0.87621  1.0000
  C   C1996     1.0  0.57351  0.55857  0.89136  1.0000
  C   C1997     1.0  0.58302  0.54783  0.86289  1.0000
  C   C1998     1.0  0.55662  0.57237  0.86704  1.0000
  C   C1999     1.0  0.55502  0.54162  0.88359  1.0000
  H   H3207     1.0  0.56177  0.56391  0.90176  1.0000
  H   H3208     1.0  0.58266  0.56871  0.88634  1.0000
  H   H3209     1.0  0.58141  0.54580  0.89857  1.0000
  H   H3210     1.0  0.57857  0.54516  0.85126  1.0000
  H   H3211     1.0  0.59262  0.55750  0.85718  1.0000
  H   H3212     1.0  0.59091  0.53460  0.86935  1.0000
  H   H3213     1.0  0.55127  0.57020  0.85573  1.0000
  H   H3214     1.0  0.56524  0.58292  0.86114  1.0000
  H   H3215     1.0  0.54446  0.57827  0.87673  1.0000
  H   H3216     1.0  0.56240  0.52854  0.89078  1.0000
  H   H3217     1.0  0.55015  0.53840  0.87251  1.0000
  H   H3218     1.0  0.54264  0.54666  0.89353  1.0000
  C   C2000     1.0  0.71263  0.61777  0.90679  1.0000
  S   S800      1.0  0.50270  0.93489  0.89399  1.0000
  H   H3219     1.0  0.56923  0.91880  0.93314  1.0000
  C   C2001     1.0  0.67564  0.75028  0.89161  1.0000
  C   C2002     1.0  0.50078  0.95088  0.82194  1.0000
  H   H3220     1.0  0.70293  0.57686  0.90695  1.0000
  C   C2003     1.0  0.59809  0.89904  0.72028  1.0000
  H   H3221     1.0  0.65618  0.73048  0.72606  1.0000
  H   H3222     1.0  0.66824  0.63026  0.90101  1.0000
  C   C2004     1.0  0.51920  0.67496  0.83841  1.0000
  C   C2005     1.0  0.68383  0.60263  0.90397  1.0000
  S   S801      1.0  0.64097  0.56341  0.94434  1.0000
  S   S802      1.0  0.61145  0.53060  0.94132  1.0000
  H   H3223     1.0  0.49199  0.48400  0.72293  1.0000
  S   S803      1.0  0.50520  0.63780  0.81482  1.0000
  H   H3224     1.0  0.69719  0.61914  0.96078  1.0000
  H   H3225     1.0  0.54211  0.66317  0.85198  1.0000
  H   H3226     1.0  0.57555  0.94075  0.92508  1.0000
  C   C2006     1.0  0.56366  0.93382  0.93098  1.0000
  C   C2007     1.0  0.55876  0.93353  0.90129  1.0000
  Fe  Fe403     1.0  0.69349  0.69035  0.91417  1.0000
  C   C2008     1.0  0.70082  0.59138  0.90635  1.0000
  H   H3227     1.0  0.70488  0.76337  0.87006  1.0000
  C   C2009     1.0  0.53756  0.69260  0.84608  1.0000
  H   H3228     1.0  0.59286  0.91398  0.71978  1.0000
  N   N202      1.0  0.68360  0.74880  0.87233  1.0000
  Fe  Fe404     1.0  0.66210  0.54616  0.96031  1.0000
  S   S804      1.0  0.51326  0.47627  0.89449  1.0000
  C   C2010     1.0  0.66869  0.74995  0.86281  1.0000
  H   H3229     1.0  0.50467  0.94489  0.83551  1.0000
  H   H3230     1.0  0.49218  0.64908  0.72063  1.0000
  H   H3231     1.0  0.69350  0.64357  0.90391  1.0000
  S   S805      1.0  0.68583  0.54983  0.93685  1.0000
  H   H3232     1.0  0.51313  0.58606  0.83050  1.0000
  Fe  Fe405     1.0  0.48511  0.66230  0.82338  1.0000
  N   N203      1.0  0.49147  0.82262  0.90272  1.0000
  H   H3233     1.0  0.51022  0.53730  0.88649  1.0000
  C   C2011     1.0  0.69355  0.76385  0.86317  1.0000
  C   C2012     1.0  0.51085  0.57969  0.85973  1.0000
  Fe  Fe406     1.0  0.56080  0.48597  0.89414  1.0000
  C   C2013     1.0  0.49501  0.84140  0.89679  1.0000
  H   H3234     1.0  0.57756  0.95914  0.73274  1.0000
  H   H3235     1.0  0.64373  0.50223  0.93106  1.0000
  H   H3236     1.0  0.50997  0.84145  0.89438  1.0000
  C   C2014     1.0  0.67766  0.59654  0.95680  1.0000
  H   H3237     1.0  0.48781  0.84970  0.90737  1.0000
  C   C2015     1.0  0.72978  0.49817  0.83213  1.0000
  H   H3238     1.0  0.73368  0.52129  0.85121  1.0000
  C   C2016     1.0  0.70422  0.57334  0.96313  1.0000
  C   C2017     1.0  0.72768  0.71790  0.96213  1.0000
  Fe  Fe407     1.0  0.72534  0.68315  0.93388  1.0000
  C   C2018     1.0  0.49809  0.81387  0.91991  1.0000
  H   H3239     1.0  0.66822  0.49516  0.92670  1.0000
  H   H3240     1.0  0.49587  0.79958  0.92477  1.0000
  C   C2019     1.0  0.56798  0.96972  0.72580  1.0000
  H   H3241     1.0  0.72833  0.59018  0.90943  1.0000
  S   S806      1.0  0.73067  0.62671  0.90925  1.0000
  H   H3242     1.0  0.48687  0.61961  0.71848  1.0000
  H   H3243     1.0  0.52505  0.90262  0.96448  1.0000
  C   C2020     1.0  0.55415  0.89452  0.96377  1.0000
  H   H3244     1.0  0.72517  0.50826  0.82026  1.0000
  S   S807      1.0  0.48785  0.62072  0.78047  1.0000
  H   H3245     1.0  0.48808  0.60243  0.75239  1.0000
  H   H3246     1.0  0.67737  0.71630  0.71735  1.0000
  H   H3247     1.0  0.63622  0.47606  0.91099  1.0000
  H   H3248     1.0  0.62407  0.48056  0.93302  1.0000
  N   N204      1.0  0.65355  0.47386  0.92985  1.0000
  Fe  Fe408     1.0  0.73174  0.69367  0.89229  1.0000
  C   C2021     1.0  0.71986  0.47393  0.90627  1.0000
  H   H3249     1.0  0.73126  0.48425  0.82947  1.0000
  H   H3250     1.0  0.59527  0.86588  0.71648  1.0000
  C   C2022     1.0  0.48518  0.57451  0.80436  1.0000
  S   S808      1.0  0.54766  0.97200  0.81895  1.0000
  H   H3251     1.0  0.48472  0.57906  0.78955  1.0000
  C   C2023     1.0  0.80352  0.21154  0.20797  1.0000
  S   S809      1.0  0.92524  0.44816  0.16586  1.0000
  C   C2024     1.0  0.86378  0.15566  0.20508  1.0000
  S   S810      1.0  0.96478  0.43328  0.13964  1.0000
  C   C2025     1.0  0.98071  0.00520  0.20695  1.0000
  Fe  Fe409     1.0  0.93575  0.44640  0.13623  1.0000
  S   S811      1.0  0.92252  0.43988  0.11601  1.0000
  Fe  Fe410     1.0  0.95480  0.43755  0.16869  1.0000
  C   C2026     1.0  0.90842  0.35737  0.97323  1.0000
  H   H3252     1.0  0.74767  0.21809  0.12465  1.0000
  S   S812      1.0  0.87898  0.97769  0.07209  1.0000
  S   S813      1.0  0.79060  0.01584  0.10172  1.0000
  Fe  Fe411     1.0  0.74718  0.12364  0.05066  1.0000
  H   H3253     1.0  0.85229  0.41627  0.11710  1.0000
  H   H3254     1.0  0.76978  0.43407  0.12624  1.0000
  S   S814      1.0  0.78146  0.23762  0.11808  1.0000
  H   H3255     1.0  0.83608  0.20111  0.00457  1.0000
  S   S815      1.0  0.76482  0.18174  0.05510  1.0000
  H   H3256     1.0  0.79472  0.27074  0.18310  1.0000
  C   C2027     1.0  0.73795  0.21705  0.11655  1.0000
  H   H3257     1.0  0.82269  0.46262  0.11412  1.0000
  S   S816      1.0  0.88537  0.02813  0.17549  1.0000
  S   S817      1.0  0.85178  0.36139  0.98231  1.0000
  H   H3258     1.0  0.81428  0.26761  0.20567  1.0000
  H   H3259     1.0  0.87452  0.15270  0.19290  1.0000
  S   S818      1.0  0.96193  0.46519  0.16250  1.0000
  H   H3260     1.0  0.82115  0.30099  0.07932  1.0000
  C   C2028     1.0  0.83060  0.04733  0.15073  1.0000
  H   H3261     1.0  0.75344  0.03259  0.04153  1.0000
  C   C2029     1.0  0.79202  0.43083  0.10304  1.0000
  Fe  Fe412     1.0  0.78667  0.11418  0.05565  1.0000
  S   S819      1.0  0.79384  0.13928  0.03585  1.0000
  S   S820      1.0  0.80914  0.09408  0.06808  1.0000
  H   H3262     1.0  0.80548  0.26664  0.16054  1.0000
  H   H3263     1.0  0.76913  0.21153  0.06867  1.0000
  Fe  Fe413     1.0  0.77754  0.13325  0.01850  1.0000
  S   S821      1.0  0.78921  0.13377  0.98860  1.0000
  Fe  Fe414     1.0  0.76680  0.15373  0.04970  1.0000
  H   H3264     1.0  0.75316  0.08250  0.02974  1.0000
  S   S822      1.0  0.77274  0.10672  0.03708  1.0000
  S   S823      1.0  0.76074  0.12899  0.07106  1.0000
  Fe  Fe415     1.0  0.78276  0.22303  0.16988  1.0000
  S   S824      1.0  0.80746  0.21638  0.14822  1.0000
  S   S825      1.0  0.78269  0.21653  0.20018  1.0000
  H   H3265     1.0  0.90750  0.36609  0.00504  1.0000
  Fe  Fe416     1.0  0.78817  0.20933  0.13458  1.0000
  S   S826      1.0  0.79533  0.18331  0.12362  1.0000
  Fe  Fe417     1.0  0.79864  0.24519  0.13368  1.0000
  S   S827      1.0  0.82162  0.26079  0.12140  1.0000
  H   H3266     1.0  0.81119  0.02776  0.12727  1.0000
  C   C2030     1.0  0.74702  0.04003  0.05293  1.0000
  Fe  Fe418     1.0  0.82856  0.36124  0.10767  1.0000
  S   S828      1.0  0.83113  0.37450  0.07792  1.0000
  S   S829      1.0  0.80601  0.34524  0.12117  1.0000
  Fe  Fe419     1.0  0.85892  0.37798  0.11237  1.0000
  S   S830      1.0  0.86422  0.39215  0.08289  1.0000
  S   S831      1.0  0.87202  0.38110  0.13443  1.0000
  Fe  Fe420     1.0  0.83342  0.39940  0.08653  1.0000
  H   H3267     1.0  0.82426  0.01670  0.14482  1.0000
  Fe  Fe421     1.0  0.86151  0.36599  0.07687  1.0000
  S   S832      1.0  0.88067  0.35179  0.05487  1.0000
  S   S833      1.0  0.82820  0.38698  0.11645  1.0000
  S   S834      1.0  0.85883  0.35095  0.10621  1.0000
  S   S835      1.0  0.84102  0.99759  0.11194  1.0000
  C   C2031     1.0  0.93750  0.46738  0.20721  1.0000
  H   H3268     1.0  0.82562  0.31838  0.03808  1.0000
  H   H3269     1.0  0.75045  0.03071  0.06576  1.0000
  S   S836      1.0  0.75078  0.14982  0.03057  1.0000
  H   H3270     1.0  0.84971  0.05270  0.11608  1.0000
  H   H3271     1.0  0.83852  0.03961  0.10763  1.0000
  H   H3272     1.0  0.96731  0.00484  0.17807  1.0000
  C   C2032     1.0  0.87222  0.35411  0.03503  1.0000
  C   C2033     1.0  0.88030  0.34166  0.02337  1.0000
  C   C2034     1.0  0.87377  0.34337  0.00740  1.0000
  C   C2035     1.0  0.85935  0.35772  0.00290  1.0000
  C   C2036     1.0  0.85108  0.36993  0.01475  1.0000
  C   C2037     1.0  0.85751  0.36815  0.03076  1.0000
  H   H3273     1.0  0.89158  0.33065  0.02675  1.0000
  H   H3274     1.0  0.87999  0.33367  0.99854  1.0000
  H   H3275     1.0  0.83992  0.38107  0.01133  1.0000
  H   H3276     1.0  0.85136  0.37794  0.03954  1.0000
  Fe  Fe422     1.0  0.81494  0.99332  0.10691  1.0000
  C   C2038     1.0  0.77389  0.46452  0.08575  1.0000
  Fe  Fe423     1.0  0.88470  0.03059  0.20431  1.0000
  H   H3277     1.0  0.84704  0.31509  0.07760  1.0000
  H   H3278     1.0  0.79881  0.41779  0.10976  1.0000
  N   N205      1.0  0.75359  0.05728  0.04961  1.0000
  C   C2039     1.0  0.81712  0.28407  0.12210  1.0000
  C   C2040     1.0  0.79919  0.29360  0.12712  1.0000
  C   C2041     1.0  0.79600  0.31231  0.12728  1.0000
  C   C2042     1.0  0.81070  0.32152  0.12244  1.0000
  C   C2043     1.0  0.82868  0.31181  0.11800  1.0000
  C   C2044     1.0  0.83186  0.29317  0.11762  1.0000
  H   H3279     1.0  0.78775  0.28668  0.13053  1.0000
  H   H3280     1.0  0.78206  0.31976  0.13078  1.0000
  H   H3281     1.0  0.84012  0.31872  0.11462  1.0000
  H   H3282     1.0  0.84579  0.28577  0.11388  1.0000
  H   H3283     1.0  0.85152  0.02865  0.12519  1.0000
  C   C2045     1.0  0.78081  0.17121  0.98222  1.0000
  H   H3284     1.0  0.82287  0.35516  0.04826  1.0000
  H   H3285     1.0  0.88734  0.37887  0.99655  1.0000
  H   H3286     1.0  0.77036  0.16981  0.99457  1.0000
  H   H3287     1.0  0.87201  0.43019  0.08932  1.0000
  C   C2046     1.0  0.77513  0.18211  0.07298  1.0000
  C   C2047     1.0  0.78298  0.16590  0.08359  1.0000
  C   C2048     1.0  0.78997  0.16649  0.09861  1.0000
  C   C2049     1.0  0.78911  0.18326  0.10311  1.0000
  C   C2050     1.0  0.78198  0.19951  0.09201  1.0000
  C   C2051     1.0  0.77497  0.19893  0.07699  1.0000
  H   H3288     1.0  0.78337  0.15286  0.08047  1.0000
  H   H3289     1.0  0.79557  0.15387  0.10708  1.0000
  H   H3290     1.0  0.83866  0.28724  0.17256  1.0000
  N   N206      1.0  0.84805  0.44489  0.10478  1.0000
  H   H3291     1.0  0.90491  0.39036  0.99681  1.0000
  H   H3292     1.0  0.80299  0.31310  0.06727  1.0000
  S   S837      1.0  0.74583  0.46818  0.11581  1.0000
  H   H3293     1.0  0.77918  0.06577  0.04637  1.0000
  C   C2052     1.0  0.82055  0.21062  0.19583  1.0000
  H   H3294     1.0  0.80862  0.06083  0.11486  1.0000
  H   H3295     1.0  0.83159  0.33487  0.08485  1.0000
  H   H3296     1.0  0.83904  0.23936  0.17067  1.0000
  H   H3297     1.0  0.82116  0.21244  0.18134  1.0000
  H   H3298     1.0  0.84993  0.20698  0.19296  1.0000
  C   C2053     1.0  0.74459  0.18409  0.12567  1.0000
  H   H3299     1.0  0.82429  0.24481  0.20236  1.0000
  H   H3300     1.0  0.79631  0.46143  0.06266  1.0000
  H   H3301     1.0  0.84829  0.33747  0.06409  1.0000
  H   H3302     1.0  0.93783  0.36214  0.98319  1.0000
  N   N207      1.0  0.82526  0.32715  0.06260  1.0000
  C   C2054     1.0  0.81310  0.06215  0.12706  1.0000
  C   C2055     1.0  0.97913  0.43749  0.20506  1.0000
  C   C2056     1.0  0.83864  0.32866  0.07274  1.0000
  H   H3303     1.0  0.82438  0.28958  0.15654  1.0000
  N   N208      1.0  0.82528  0.04516  0.13433  1.0000
  H   H3304     1.0  0.85988  0.17080  0.20369  1.0000
  C   C2057     1.0  0.98063  0.02116  0.00033  1.0000
  C   C2058     1.0  0.79595  0.03748  0.09224  1.0000
  C   C2059     1.0  0.81409  0.03942  0.08458  1.0000
  C   C2060     1.0  0.81807  0.05689  0.07712  1.0000
  C   C2061     1.0  0.80387  0.07237  0.07692  1.0000
  C   C2062     1.0  0.78568  0.07041  0.08437  1.0000
  C   C2063     1.0  0.78178  0.05298  0.09229  1.0000
  H   H3305     1.0  0.82503  0.02748  0.08419  1.0000
  H   H3306     1.0  0.83213  0.05842  0.07124  1.0000
  H   H3307     1.0  0.77472  0.08239  0.08446  1.0000
  H   H3308     1.0  0.76781  0.05148  0.09862  1.0000
  C   C2064     1.0  0.85160  0.99040  0.16752  1.0000
  C   C2065     1.0  0.86402  0.99810  0.15274  1.0000
  C   C2066     1.0  0.87442  0.00960  0.15534  1.0000
  C   C2067     1.0  0.87256  0.01330  0.17272  1.0000
  C   C2068     1.0  0.86020  0.00552  0.18749  1.0000
  C   C2069     1.0  0.84971  0.99419  0.18484  1.0000
  H   H3309     1.0  0.86577  0.99505  0.13938  1.0000
  H   H3310     1.0  0.88405  0.01553  0.14389  1.0000
  H   H3311     1.0  0.84401  0.30603  0.04977  1.0000
  H   H3312     1.0  0.97203  0.01877  0.20873  1.0000
  C   C2070     1.0  0.90966  0.42248  0.12157  1.0000
  C   C2071     1.0  0.90294  0.41463  0.13970  1.0000
  C   C2072     1.0  0.89166  0.40170  0.14351  1.0000
  C   C2073     1.0  0.88709  0.39652  0.12924  1.0000
  C   C2074     1.0  0.89418  0.40406  0.11113  1.0000
  C   C2075     1.0  0.90531  0.41708  0.10732  1.0000
  H   H3313     1.0  0.90624  0.41870  0.15078  1.0000
  H   H3314     1.0  0.88631  0.39580  0.15756  1.0000
  H   H3315     1.0  0.89118  0.39978  0.10006  1.0000
  H   H3316     1.0  0.91063  0.42298  0.09326  1.0000
  H   H3317     1.0  0.84446  0.32884  0.03686  1.0000
  H   H3318     1.0  0.81836  0.05045  0.16163  1.0000
  H   H3319     1.0  0.83887  0.26072  0.19932  1.0000
  C   C2076     1.0  0.84199  0.04136  0.12020  1.0000
  C   C2077     1.0  0.79959  0.43851  0.08511  1.0000
  H   H3320     1.0  0.78105  0.04662  0.03627  1.0000
  H   H3321     1.0  0.80524  0.32024  0.08692  1.0000
  H   H3322     1.0  0.83837  0.05857  0.14744  1.0000
  N   N209      1.0  0.96955  0.99247  0.20593  1.0000
  H   H3323     1.0  0.78261  0.18861  0.01533  1.0000
  H   H3324     1.0  0.83209  0.42993  0.12821  1.0000
  H   H3325     1.0  0.85140  0.15081  0.20462  1.0000
  H   H3326     1.0  0.91319  0.34554  0.98378  1.0000
  Fe  Fe424     1.0  0.75839  0.24214  0.14216  1.0000
  N   N210      1.0  0.81053  0.19174  0.01156  1.0000
  C   C2078     1.0  0.81742  0.17790  0.99989  1.0000
  C   C2079     1.0  0.82120  0.20648  0.00446  1.0000
  C   C2080     1.0  0.81259  0.18313  0.03057  1.0000
  C   C2081     1.0  0.79089  0.19952  0.01128  1.0000
  H   H3327     1.0  0.80928  0.16687  0.00437  1.0000
  H   H3328     1.0  0.83204  0.17130  0.00019  1.0000
  H   H3329     1.0  0.81655  0.18409  0.98536  1.0000
  H   H3330     1.0  0.82717  0.17677  0.03136  1.0000
  H   H3331     1.0  0.82001  0.21317  0.99007  1.0000
  S   S838      1.0  0.89264  0.05494  0.20909  1.0000
  H   H3332     1.0  0.80765  0.19322  0.03972  1.0000
  C   C2082     1.0  0.77377  0.05317  0.04813  1.0000
  H   H3333     1.0  0.80435  0.17227  0.03647  1.0000
  H   H3334     1.0  0.78484  0.20899  0.02099  1.0000
  H   H3335     1.0  0.97986  0.44594  0.19154  1.0000
  H   H3336     1.0  0.78897  0.20729  0.99741  1.0000
  C   C2083     1.0  0.76640  0.45690  0.10372  1.0000
  H   H3337     1.0  0.74718  0.05789  0.07829  1.0000
  H   H3338     1.0  0.80045  0.06563  0.13740  1.0000
  C   C2084     1.0  0.81408  0.34547  0.05710  1.0000
  C   C2085     1.0  0.79052  0.45540  0.07653  1.0000
  H   H3339     1.0  0.81625  0.21728  0.01281  1.0000
  H   H3340     1.0  0.89800  0.15117  0.21082  1.0000
  H   H3341     1.0  0.85326  0.25555  0.16812  1.0000
  H   H3342     1.0  0.85863  0.00834  0.20090  1.0000
  H   H3343     1.0  0.74570  0.21694  0.10230  1.0000
  C   C2086     1.0  0.83525  0.31974  0.04611  1.0000
  H   H3344     1.0  0.83958  0.03464  0.15669  1.0000
  C   C2087     1.0  0.77553  0.44006  0.11236  1.0000
  H   H3345     1.0  0.85261  0.43795  0.07842  1.0000
  H   H3346     1.0  0.77781  0.04369  0.06062  1.0000
  N   N211      1.0  0.82433  0.26519  0.17751  1.0000
  C   C2088     1.0  0.83967  0.25413  0.16655  1.0000
  C   C2089     1.0  0.82552  0.25937  0.19705  1.0000
  C   C2090     1.0  0.82542  0.28472  0.17120  1.0000
  H   H3347     1.0  0.86485  0.46162  0.10879  1.0000
  C   C2091     1.0  0.83245  0.46012  0.10121  1.0000
  C   C2092     1.0  0.84093  0.42822  0.11466  1.0000
  C   C2093     1.0  0.86015  0.44163  0.08718  1.0000
  C   C2094     1.0  0.85863  0.44951  0.11604  1.0000
  S   S839      1.0  0.77497  0.25242  0.15624  1.0000
  C   C2095     1.0  0.83683  0.20746  0.20244  1.0000
  H   H3348     1.0  0.80638  0.35146  0.06926  1.0000
  C   C2096     1.0  0.80668  0.26254  0.17517  1.0000
  H   H3349     1.0  0.82446  0.45709  0.09243  1.0000
  H   H3350     1.0  0.81404  0.29351  0.17913  1.0000
  C   C2097     1.0  0.81313  0.31482  0.07450  1.0000
  H   H3351     1.0  0.83925  0.25832  0.15170  1.0000
  Fe  Fe425     1.0  0.85507  0.97537  0.09606  1.0000
  H   H3352     1.0  0.82017  0.07400  0.12275  1.0000
  H   H3353     1.0  0.80280  0.03217  0.14996  1.0000
  S   S840      1.0  0.76396  0.21328  0.15775  1.0000
  H   H3354     1.0  0.74983  0.07943  0.06337  1.0000
  H   H3355     1.0  0.78154  0.21249  0.09519  1.0000
  H   H3356     1.0  0.84982  0.45245  0.12924  1.0000
  H   H3357     1.0  0.80388  0.34493  0.04930  1.0000
  H   H3358     1.0  0.88675  0.12314  0.21197  1.0000
  S   S841      1.0  0.82081  0.42784  0.07343  1.0000
  C   C2098     1.0  0.81546  0.02979  0.13931  1.0000
  H   H3359     1.0  0.97638  0.03181  0.98860  1.0000
  H   H3360     1.0  0.94895  0.01405  0.19498  1.0000
  H   H3361     1.0  0.87009  0.43799  0.11946  1.0000
  C   C2099     1.0  0.74888  0.06915  0.03243  1.0000
  C   C2100     1.0  0.98190  0.97552  0.20122  1.0000
  H   H3362     1.0  0.73906  0.17152  0.13264  1.0000
  H   H3363     1.0  0.77456  0.20066  0.97690  1.0000
  H   H3364     1.0  0.83998  0.98848  0.19622  1.0000
  H   H3365     1.0  0.80530  0.24796  0.17984  1.0000
  C   C2101     1.0  0.90249  0.37763  0.99433  1.0000
  C   C2102     1.0  0.79171  0.15566  0.97601  1.0000
  Fe  Fe426     1.0  0.96942  0.46202  0.13325  1.0000
  S   S842      1.0  0.82919  0.97331  0.08872  1.0000
  C   C2103     1.0  0.74463  0.06673  0.06501  1.0000
  H   H3366     1.0  0.75569  0.06270  0.02041  1.0000
  C   C2104     1.0  0.78326  0.18864  0.97229  1.0000
  H   H3367     1.0  0.75471  0.18513  0.13337  1.0000
  S   S843      1.0  0.96107  0.41661  0.19390  1.0000
  C   C2105     1.0  0.95843  0.00119  0.19173  1.0000
  H   H3368     1.0  0.83250  0.42467  0.10673  1.0000
  H   H3369     1.0  0.86576  0.45393  0.07930  1.0000
  H   H3370     1.0  0.94976  0.99205  0.19060  1.0000
  H   H3371     1.0  0.97755  0.02779  0.01233  1.0000
  H   H3372     1.0  0.97180  0.01080  0.00365  1.0000
  H   H3373     1.0  0.75230  0.18192  0.11186  1.0000
  C   C2106     1.0  0.97099  0.42216  0.20960  1.0000
  H   H3374     1.0  0.93959  0.45226  0.20902  1.0000
  N   N212      1.0  0.91165  0.37464  0.97570  1.0000
  H   H3375     1.0  0.95095  0.47138  0.20049  1.0000
  H   H3376     1.0  0.89357  0.35809  0.97405  1.0000
  H   H3377     1.0  0.93467  0.38646  0.97466  1.0000
  C   C2107     1.0  0.93164  0.37359  0.97313  1.0000
  S   S844      1.0  0.83814  0.97610  0.16488  1.0000
  Fe  Fe427     1.0  0.83723  0.97459  0.13615  1.0000
  H   H3378     1.0  0.95733  0.29817  0.36622  1.0000
  H   H3379     1.0  0.83525  0.12786  0.27516  1.0000
  H   H3380     1.0  0.91419  0.45247  0.23593  1.0000
  H   H3381     1.0  0.94199  0.29828  0.26721  1.0000
  H   H3382     1.0  0.91039  0.25822  0.45052  1.0000
  S   S845      1.0  0.78596  0.16200  0.39798  1.0000
  Fe  Fe428     1.0  0.90937  0.03446  0.22806  1.0000
  H   H3383     1.0  0.94624  0.44984  0.23947  1.0000
  H   H3384     1.0  0.76027  0.16305  0.36785  1.0000
  H   H3385     1.0  0.88061  0.11990  0.23645  1.0000
  H   H3386     1.0  0.83900  0.01015  0.29552  1.0000
  Fe  Fe429     1.0  0.83537  0.18798  0.29852  1.0000
  S   S846      1.0  0.85402  0.20662  0.28043  1.0000
  S   S847      1.0  0.80962  0.20123  0.31588  1.0000
  S   S848      1.0  0.85803  0.16710  0.30977  1.0000
  H   H3387     1.0  0.95933  0.29303  0.29202  1.0000
  H   H3388     1.0  0.94672  0.31412  0.38095  1.0000
  H   H3389     1.0  0.85055  0.16603  0.23690  1.0000
  C   C2108     1.0  0.85558  0.15107  0.23797  1.0000
  Fe  Fe430     1.0  0.87872  0.01303  0.24461  1.0000
  C   C2109     1.0  0.97030  0.01006  0.27112  1.0000
  S   S849      1.0  0.93782  0.23333  0.37814  1.0000
  H   H3390     1.0  0.84158  0.19172  0.38055  1.0000
  S   S850      1.0  0.94207  0.27217  0.34973  1.0000
  C   C2110     1.0  0.74463  0.19616  0.35184  1.0000
  S   S851      1.0  0.91094  0.24800  0.33659  1.0000
  C   C2111     1.0  0.94347  0.46506  0.23710  1.0000
  H   H3391     1.0  0.92578  0.27921  0.31619  1.0000
  S   S852      1.0  0.85973  0.03175  0.22688  1.0000
  C   C2112     1.0  0.80296  0.20888  0.22678  1.0000
  H   H3392     1.0  0.81859  0.20378  0.24792  1.0000
  C   C2113     1.0  0.87186  0.19945  0.35573  1.0000
  H   H3393     1.0  0.94701  0.00027  0.22730  1.0000
  C   C2114     1.0  0.76325  0.20759  0.45814  1.0000
  C   C2115     1.0  0.96384  0.25364  0.43910  1.0000
  H   H3394     1.0  0.82311  0.03135  0.27170  1.0000
  Fe  Fe431     1.0  0.94653  0.25908  0.37815  1.0000
  H   H3395     1.0  0.88305  0.16902  0.22176  1.0000
  Fe  Fe432     1.0  0.96784  0.22363  0.36663  1.0000
  S   S853      1.0  0.88042  0.16983  0.26744  1.0000
  H   H3396     1.0  0.97387  0.24134  0.44246  1.0000
  C   C2116     1.0  0.87065  0.08578  0.26039  1.0000
  H   H3397     1.0  0.80830  0.99988  0.25672  1.0000
  H   H3398     1.0  0.85693  0.05320  0.28116  1.0000
  C   C2117     1.0  0.76189  0.16523  0.35272  1.0000
  H   H3399     1.0  0.87460  0.19332  0.36972  1.0000
  H   H3400     1.0  0.74615  0.00520  0.35149  1.0000
  S   S854      1.0  0.97785  0.36010  0.31202  1.0000
  C   C2118     1.0  0.94378  0.27264  0.41880  1.0000
  H   H3401     1.0  0.95449  0.27681  0.26138  1.0000
  C   C2119     1.0  0.95729  0.26584  0.45117  1.0000
  C   C2120     1.0  0.94437  0.28173  0.44670  1.0000
  C   C2121     1.0  0.93752  0.28503  0.43065  1.0000
  H   H3402     1.0  0.97663  0.28204  0.38933  1.0000
  H   H3403     1.0  0.92735  0.29725  0.42739  1.0000
  Fe  Fe433     1.0  0.97157  0.25966  0.34061  1.0000
  H   H3404     1.0  0.84874  0.01901  0.30963  1.0000
  H   H3405     1.0  0.97183  0.27152  0.28626  1.0000
  C   C2122     1.0  0.83038  0.04190  0.27243  1.0000
  S   S855      1.0  0.84830  0.07876  0.24107  1.0000
  H   H3406     1.0  0.75110  0.16918  0.32110  1.0000
  Fe  Fe434     1.0  0.86941  0.05417  0.23345  1.0000
  H   H3407     1.0  0.77334  0.97411  0.36594  1.0000
  H   H3408     1.0  0.78985  0.20957  0.23626  1.0000
  S   S856      1.0  0.97664  0.24848  0.36911  1.0000
  H   H3409     1.0  0.96622  0.33194  0.38847  1.0000
  N   N213      1.0  0.97630  0.30961  0.37422  1.0000
  H   H3410     1.0  0.95895  0.30140  0.32729  1.0000
  H   H3411     1.0  0.92975  0.28140  0.26655  1.0000
  C   C2123     1.0  0.83598  0.99540  0.26096  1.0000
  C   C2124     1.0  0.73874  0.97949  0.35343  1.0000
  H   H3412     1.0  0.76319  0.15172  0.34929  1.0000
  H   H3413     1.0  0.83934  0.00690  0.25044  1.0000
  C   C2125     1.0  0.84107  0.10622  0.26006  1.0000
  C   C2126     1.0  0.83958  0.19830  0.36639  1.0000
  H   H3414     1.0  0.82797  0.11026  0.25578  1.0000
  C   C2127     1.0  0.91460  0.24727  0.46209  1.0000
  H   H3415     1.0  0.78759  0.97675  0.37998  1.0000
  C   C2128     1.0  0.95711  0.25702  0.42293  1.0000
  H   H3416     1.0  0.94307  0.24918  0.30804  1.0000
  C   C2129     1.0  0.81838  0.99138  0.26453  1.0000
  C   C2130     1.0  0.94992  0.02800  0.24366  1.0000
  C   C2131     1.0  0.90447  0.20418  0.30915  1.0000
  C   C2132     1.0  0.89154  0.22058  0.30922  1.0000
  C   C2133     1.0  0.89367  0.23388  0.31773  1.0000
  C   C2134     1.0  0.90880  0.23097  0.32606  1.0000
  C   C2135     1.0  0.92188  0.21474  0.32571  1.0000
  H   H3417     1.0  0.87996  0.22303  0.30267  1.0000
  H   H3418     1.0  0.88358  0.24650  0.31783  1.0000
  C   C2136     1.0  0.95717  0.98797  0.22380  1.0000
  C   C2137     1.0  0.97079  0.41091  0.22702  1.0000
  H   H3419     1.0  0.97356  0.04016  0.23029  1.0000
  H   H3420     1.0  0.85911  0.01979  0.28592  1.0000
  N   N214      1.0  0.83400  0.03954  0.29092  1.0000
  H   H3421     1.0  0.79185  0.20823  0.45519  1.0000
  S   S857      1.0  0.90202  0.18654  0.29961  1.0000
  H   H3422     1.0  0.93949  0.29140  0.45570  1.0000
  H   H3423     1.0  0.92977  0.24534  0.46030  1.0000
  N   N215      1.0  0.74634  0.17878  0.34612  1.0000
  H   H3424     1.0  0.84655  0.05268  0.30485  1.0000
  C   C2138     1.0  0.85383  0.09103  0.25469  1.0000
  S   S858      1.0  0.98273  0.99843  0.28846  1.0000
  H   H3425     1.0  0.93359  0.21236  0.33206  1.0000
  H   H3426     1.0  0.83527  0.06785  0.28727  1.0000
  C   C2139     1.0  0.94235  0.01609  0.25900  1.0000
  C   C2140     1.0  0.79325  0.17339  0.37553  1.0000
  C   C2141     1.0  0.80731  0.16407  0.36363  1.0000
  C   C2142     1.0  0.81261  0.17256  0.34529  1.0000
  C   C2143     1.0  0.80415  0.19054  0.33894  1.0000
  C   C2144     1.0  0.79066  0.20009  0.35103  1.0000
  C   C2145     1.0  0.78503  0.19147  0.36924  1.0000
  H   H3427     1.0  0.81367  0.15005  0.36847  1.0000
  H   H3428     1.0  0.82285  0.16501  0.33600  1.0000
  H   H3429     1.0  0.78430  0.21412  0.34621  1.0000
  H   H3430     1.0  0.77439  0.19882  0.37843  1.0000
  S   S859      1.0  0.74747  0.16392  0.44232  1.0000
  S   S860      1.0  0.83539  0.17319  0.27675  1.0000
  S   S861      1.0  0.88667  0.03550  0.25287  1.0000
  Fe  Fe435     1.0  0.87682  0.18462  0.29021  1.0000
  S   S862      1.0  0.93483  0.27733  0.39884  1.0000
  C   C2146     1.0  0.97850  0.41503  0.23988  1.0000
  H   H3431     1.0  0.88066  0.07420  0.25622  1.0000
  S   S863      1.0  0.86776  0.12310  0.29026  1.0000
  H   H3432     1.0  0.82190  0.05561  0.26811  1.0000
  C   C2147     1.0  0.95895  0.27826  0.29445  1.0000
  H   H3433     1.0  0.86924  0.21459  0.35406  1.0000
  Fe  Fe436     1.0  0.85578  0.19025  0.25938  1.0000
  H   H3434     1.0  0.88473  0.19545  0.34582  1.0000
  C   C2148     1.0  0.81924  0.20554  0.23342  1.0000
  H   H3435     1.0  0.81857  0.03931  0.31840  1.0000
  H   H3436     1.0  0.84931  0.16819  0.35190  1.0000
  C   C2149     1.0  0.84916  0.98439  0.27084  1.0000
  C   C2150     1.0  0.86206  0.11101  0.27658  1.0000
  H   H3437     1.0  0.92978  0.18877  0.31723  1.0000
  H   H3438     1.0  0.92871  0.01372  0.26028  1.0000
  H   H3439     1.0  0.77515  0.16978  0.34649  1.0000
  H   H3440     1.0  0.94661  0.99799  0.28457  1.0000
  C   C2151     1.0  0.97784  0.02195  0.25577  1.0000
  H   H3441     1.0  0.95472  0.24833  0.28494  1.0000
  H   H3442     1.0  0.87325  0.16909  0.34382  1.0000
  H   H3443     1.0  0.95947  0.27245  0.30909  1.0000
  C   C2152     1.0  0.95838  0.31112  0.36944  1.0000
  S   S864      1.0  0.93821  0.03840  0.22553  1.0000
  C   C2153     1.0  0.81637  0.04098  0.30428  1.0000
  H   H3444     1.0  0.97809  0.40638  0.25336  1.0000
  H   H3445     1.0  0.93833  0.46901  0.25068  1.0000
  H   H3446     1.0  0.91295  0.28203  0.29892  1.0000
  H   H3447     1.0  0.96695  0.29927  0.40282  1.0000
  H   H3448     1.0  0.75677  0.20251  0.34515  1.0000
  H   H3449     1.0  0.86352  0.16605  0.36793  1.0000
  C   C2154     1.0  0.92577  0.28450  0.30136  1.0000
  S   S865      1.0  0.98257  0.19533  0.37796  1.0000
  H   H3450     1.0  0.80634  0.97348  0.24222  1.0000
  C   C2155     1.0  0.91248  0.46763  0.23334  1.0000
  S   S866      1.0  0.85677  0.20153  0.22907  1.0000
  H   H3451     1.0  0.76237  0.29705  0.45594  1.0000
  S   S867      1.0  0.87139  0.98899  0.26661  1.0000
  C   C2156     1.0  0.87464  0.09561  0.27151  1.0000
  C   C2157     1.0  0.96765  0.03093  0.24212  1.0000
  H   H3452     1.0  0.92995  0.25291  0.29081  1.0000
  C   C2158     1.0  0.97035  0.30830  0.32152  1.0000
  H   H3453     1.0  0.86371  0.12099  0.22357  1.0000
  H   H3454     1.0  0.89185  0.14760  0.23536  1.0000
  C   C2159     1.0  0.95254  0.00715  0.27270  1.0000
  H   H3455     1.0  0.80722  0.05454  0.30094  1.0000
  H   H3456     1.0  0.82757  0.19386  0.36438  1.0000
  H   H3457     1.0  0.84351  0.14508  0.23885  1.0000
  H   H3458     1.0  0.94917  0.97777  0.22374  1.0000
  Fe  Fe437     1.0  0.85994  0.15388  0.28632  1.0000
  H   H3459     1.0  0.88767  0.09144  0.27594  1.0000
  C   C2160     1.0  0.91970  0.20141  0.31728  1.0000
  C   C2161     1.0  0.94213  0.28333  0.27039  1.0000
  H   H3460     1.0  0.83572  0.21335  0.36555  1.0000
  H   H3461     1.0  0.84342  0.04080  0.26210  1.0000
  Fe  Fe438     1.0  0.93581  0.24547  0.34879  1.0000
  C   C2162     1.0  0.74975  0.18200  0.32593  1.0000
  C   C2163     1.0  0.97748  0.32745  0.37725  1.0000
  H   H3462     1.0  0.76523  0.20352  0.44521  1.0000
  H   H3463     1.0  0.97637  0.33832  0.36469  1.0000
  C   C2164     1.0  0.87560  0.12687  0.22359  1.0000
  N   N216      1.0  0.94235  0.27543  0.28992  1.0000
  H   H3464     1.0  0.92490  0.29953  0.29871  1.0000
  N   N217      1.0  0.87039  0.14689  0.22227  1.0000
  H   H3465     1.0  0.80882  0.03030  0.30443  1.0000
  S   S868      1.0  0.96518  0.23389  0.33721  1.0000
  C   C2165     1.0  0.98206  0.33656  0.31229  1.0000
  H   H3466     1.0  0.96205  0.24743  0.41381  1.0000
  H   H3467     1.0  0.97399  0.97272  0.32307  1.0000
  S   S869      1.0  0.90324  0.01008  0.22151  1.0000
  C   C2166     1.0  0.84569  0.02135  0.29576  1.0000
  H   H3468     1.0  0.95370  0.33498  0.32374  1.0000
  H   H3469     1.0  0.86047  0.14573  0.25110  1.0000
  C   C2167     1.0  0.84358  0.05392  0.29113  1.0000
  C   C2168     1.0  0.84518  0.11622  0.27097  1.0000
  C   C2169     1.0  0.94256  0.25562  0.29351  1.0000
  Fe  Fe439     1.0  0.75673  0.17189  0.41185  1.0000
  C   C2170     1.0  0.96738  0.32735  0.31946  1.0000
  N   N218      1.0  0.85626  0.19333  0.35262  1.0000
  C   C2171     1.0  0.85283  0.20227  0.33412  1.0000
  C   C2172     1.0  0.86079  0.17328  0.35416  1.0000
  H   H3470     1.0  0.84989  0.21743  0.33218  1.0000
  H   H3471     1.0  0.84086  0.19836  0.33146  1.0000
  H   H3472     1.0  0.86489  0.19829  0.32337  1.0000
  H   H3473     1.0  0.76272  0.18723  0.31962  1.0000
  H   H3474     1.0  0.96456  0.39900  0.23062  1.0000
  C   C2173     1.0  0.97794  0.29555  0.39107  1.0000
  H   H3475     1.0  0.95624  0.32222  0.35734  1.0000
  C   C2174     1.0  0.77830  0.21028  0.46381  1.0000
  H   H3476     1.0  0.95694  0.46935  0.23121  1.0000
  H   H3477     1.0  0.74328  0.19407  0.36692  1.0000
  C   C2175     1.0  0.73706  0.99591  0.35897  1.0000
  H   H3478     1.0  0.96495  0.98238  0.23508  1.0000
  H   H3479     1.0  0.91163  0.23435  0.46064  1.0000
  H   H3480     1.0  0.73851  0.29668  0.45821  1.0000
  C   C2176     1.0  0.83620  0.20497  0.22124  1.0000
  H   H3481     1.0  0.74893  0.97632  0.34157  1.0000
  C   C2177     1.0  0.75235  0.28790  0.45894  1.0000
  H   H3482     1.0  0.75611  0.27999  0.44779  1.0000
  S   S870      1.0  0.74133  0.20097  0.40978  1.0000
  C   C2178     1.0  0.81392  0.97622  0.27789  1.0000
  H   H3483     1.0  0.81492  0.97848  0.21800  1.0000
  H   H3484     1.0  0.73835  0.19227  0.32048  1.0000
  C   C2179     1.0  0.88655  0.15397  0.22252  1.0000
  H   H3485     1.0  0.90648  0.47201  0.24666  1.0000
  H   H3486     1.0  0.84003  0.01281  0.66759  1.0000
  C   C2180     1.0  0.97786  0.24611  0.55928  1.0000
  Fe  Fe440     1.0  0.96620  0.10024  0.67273  1.0000
  S   S871      1.0  0.94161  0.12161  0.68044  1.0000
  S   S872      1.0  0.81166  0.44427  0.62356  1.0000
  H   H3487     1.0  0.75504  0.12220  0.56954  1.0000
  N   N219      1.0  0.79052  0.98304  0.59803  1.0000
  S   S873      1.0  0.76657  0.42762  0.57296  1.0000
  C   C2181     1.0  0.92565  0.45817  0.57340  1.0000
  C   C2182     1.0  0.81779  0.30999  0.57573  1.0000
  H   H3488     1.0  0.93084  0.35997  0.57500  1.0000
  H   H3489     1.0  0.93946  0.38631  0.52701  1.0000
  C   C2183     1.0  0.93760  0.36764  0.56183  1.0000
  Fe  Fe441     1.0  0.78302  0.11730  0.67024  1.0000
  S   S874      1.0  0.81138  0.11711  0.65300  1.0000
  C   C2184     1.0  0.96301  0.46259  0.50739  1.0000
  Fe  Fe442     1.0  0.77794  0.08553  0.65603  1.0000
  S   S875      1.0  0.80605  0.08258  0.63817  1.0000
  S   S876      1.0  0.75703  0.06910  0.65659  1.0000
  Fe  Fe443     1.0  0.81542  0.08659  0.66199  1.0000
  S   S877      1.0  0.84072  0.06882  0.67200  1.0000
  Fe  Fe444     1.0  0.79943  0.11322  0.63087  1.0000
  S   S878      1.0  0.80573  0.12673  0.60118  1.0000
  S   S879      1.0  0.78771  0.08696  0.68086  1.0000
  S   S880      1.0  0.77067  0.11601  0.64716  1.0000
  Fe  Fe445     1.0  0.79165  0.23034  0.51245  1.0000
  S   S881      1.0  0.80490  0.21210  0.53522  1.0000
  Fe  Fe446     1.0  0.78034  0.26303  0.53127  1.0000
  S   S882      1.0  0.79262  0.24732  0.55554  1.0000
  S   S883      1.0  0.76685  0.29309  0.52689  1.0000
  Fe  Fe447     1.0  0.81638  0.23617  0.53505  1.0000
  S   S884      1.0  0.84543  0.23060  0.53941  1.0000
  Fe  Fe448     1.0  0.78002  0.22463  0.55372  1.0000
  S   S885      1.0  0.76597  0.20897  0.58013  1.0000
  S   S886      1.0  0.80528  0.25359  0.51070  1.0000
  S   S887      1.0  0.76564  0.24123  0.53098  1.0000
  H   H3490     1.0  0.78557  0.06397  0.62426  1.0000
  Fe  Fe449     1.0  0.73505  0.02894  0.58369  1.0000
  H   H3491     1.0  0.75690  0.13258  0.61346  1.0000
  H   H3492     1.0  0.80263  0.31124  0.58032  1.0000
  H   H3493     1.0  0.88174  0.24045  0.48175  1.0000
  Fe  Fe450     1.0  0.75045  0.36388  0.58829  1.0000
  H   H3494     1.0  0.76027  0.98798  0.54614  1.0000
  S   S888      1.0  0.75065  0.38647  0.56353  1.0000
  S   S889      1.0  0.90186  0.11380  0.66373  1.0000
  S   S890      1.0  0.94973  0.08166  0.66887  1.0000
  C   C2185     1.0  0.91205  0.23762  0.49478  1.0000
  H   H3495     1.0  0.87887  0.03115  0.63443  1.0000
  H   H3496     1.0  0.84908  0.29493  0.51406  1.0000
  H   H3497     1.0  0.93121  0.40004  0.57184  1.0000
  C   C2186     1.0  0.84691  0.26683  0.52562  1.0000
  H   H3498     1.0  0.83357  0.26840  0.52241  1.0000
  C   C2187     1.0  0.85881  0.08034  0.66859  1.0000
  C   C2188     1.0  0.85910  0.09695  0.65615  1.0000
  C   C2189     1.0  0.87263  0.10688  0.65456  1.0000
  C   C2190     1.0  0.88614  0.10014  0.66521  1.0000
  C   C2191     1.0  0.88636  0.08315  0.67719  1.0000
  C   C2192     1.0  0.87267  0.07324  0.67887  1.0000
  H   H3499     1.0  0.84899  0.10212  0.64760  1.0000
  H   H3500     1.0  0.87261  0.11987  0.64508  1.0000
  C   C2193     1.0  0.76815  0.13641  0.70980  1.0000
  H   H3501     1.0  0.95621  0.03051  0.62802  1.0000
  C   C2194     1.0  0.79322  0.14898  0.59546  1.0000
  C   C2195     1.0  0.78197  0.15824  0.60899  1.0000
  C   C2196     1.0  0.77308  0.17650  0.60411  1.0000
  C   C2197     1.0  0.77552  0.18556  0.58573  1.0000
  C   C2198     1.0  0.78627  0.17608  0.57219  1.0000
  C   C2199     1.0  0.79512  0.15783  0.57705  1.0000
  H   H3502     1.0  0.78049  0.15154  0.62326  1.0000
  H   H3503     1.0  0.76471  0.18377  0.61464  1.0000
  C   C2200     1.0  0.77107  0.26424  0.47731  1.0000
  H   H3504     1.0  0.80367  0.15065  0.56652  1.0000
  C   C2201     1.0  0.75900  0.04594  0.60662  1.0000
  C   C2202     1.0  0.82803  0.17462  0.59908  1.0000
  H   H3505     1.0  0.85329  0.12276  0.70854  1.0000
  H   H3506     1.0  0.90458  0.28077  0.46953  1.0000
  H   H3507     1.0  0.96045  0.00116  0.70810  1.0000
  Fe  Fe451     1.0  0.94688  0.31151  0.50846  1.0000
  C   C2203     1.0  0.74561  0.21064  0.46899  1.0000
  H   H3508     1.0  0.82015  0.31352  0.53036  1.0000
  C   C2204     1.0  0.76494  0.32370  0.57149  1.0000
  C   C2205     1.0  0.76220  0.33338  0.55410  1.0000
  C   C2206     1.0  0.76278  0.32387  0.54050  1.0000
  C   C2207     1.0  0.76589  0.30469  0.54426  1.0000
  C   C2208     1.0  0.76824  0.29510  0.56176  1.0000
  C   C2209     1.0  0.76794  0.30456  0.57526  1.0000
  N   N220      1.0  0.92519  0.38466  0.55506  1.0000
  C   C2210     1.0  0.91860  0.45096  0.56229  1.0000
  H   H3509     1.0  0.77023  0.28039  0.56498  1.0000
  Fe  Fe452     1.0  0.94164  0.10620  0.70929  1.0000
  H   H3510     1.0  0.95988  0.19690  0.59050  1.0000
  C   C2211     1.0  0.93504  0.39456  0.53788  1.0000
  S   S891      1.0  0.77196  0.14035  0.68574  1.0000
  C   C2212     1.0  0.80037  0.43944  0.60852  1.0000
  C   C2213     1.0  0.79384  0.45313  0.59460  1.0000
  C   C2214     1.0  0.78382  0.44921  0.58354  1.0000
  C   C2215     1.0  0.78011  0.43166  0.58644  1.0000
  C   C2216     1.0  0.78691  0.41788  0.60015  1.0000
  C   C2217     1.0  0.79704  0.42176  0.61114  1.0000
  H   H3511     1.0  0.82138  0.21695  0.57212  1.0000
  H   H3512     1.0  0.78443  0.40423  0.60221  1.0000
  H   H3513     1.0  0.80220  0.41110  0.62181  1.0000
  C   C2218     1.0  0.75829  0.05970  0.63753  1.0000
  C   C2219     1.0  0.77382  0.05913  0.62338  1.0000
  H   H3514     1.0  0.77159  0.25471  0.49070  1.0000
  C   C2220     1.0  0.77587  0.21573  0.48047  1.0000
  H   H3515     1.0  0.84216  0.03628  0.66163  1.0000
  H   H3516     1.0  0.94700  0.98483  0.69250  1.0000
  H   H3517     1.0  0.81870  0.46428  0.69864  1.0000
  C   C2221     1.0  0.81408  0.33746  0.55252  1.0000
  H   H3518     1.0  0.80116  0.30969  0.54885  1.0000
  N   N221      1.0  0.75247  0.27556  0.47702  1.0000
  H   H3519     1.0  0.94759  0.39789  0.53999  1.0000
  C   C2222     1.0  0.74319  0.05317  0.63624  1.0000
  N   N222      1.0  0.90512  0.25201  0.48001  1.0000
  C   C2223     1.0  0.73858  0.06939  0.50363  1.0000
  H   H3520     1.0  0.89332  0.02653  0.65085  1.0000
  S   S892      1.0  0.92192  0.99799  0.66764  1.0000
  H   H3521     1.0  0.78467  0.00673  0.61009  1.0000
  H   H3522     1.0  0.94014  0.45441  0.57378  1.0000
  C   C2224     1.0  0.74455  0.09870  0.48577  1.0000
  C   C2225     1.0  0.89976  0.45580  0.56206  1.0000
  H   H3523     1.0  0.87597  0.99853  0.64248  1.0000
  H   H3524     1.0  0.81598  0.98909  0.59956  1.0000
  H   H3525     1.0  0.81862  0.34524  0.56040  1.0000
  H   H3526     1.0  0.87346  0.47172  0.57256  1.0000
  C   C2226     1.0  0.77270  0.10433  0.59680  1.0000
  H   H3527     1.0  0.82415  0.29521  0.57891  1.0000
  H   H3528     1.0  0.74748  0.27750  0.50530  1.0000
  H   H3529     1.0  0.84847  0.32307  0.55821  1.0000
  H   H3530     1.0  0.87944  0.26437  0.47140  1.0000
  C   C2227     1.0  0.93068  0.03720  0.68893  1.0000
  H   H3531     1.0  0.75735  0.29550  0.48953  1.0000
  H   H3532     1.0  0.83879  0.16189  0.59914  1.0000
  H   H3533     1.0  0.96440  0.17391  0.58685  1.0000
  C   C2228     1.0  0.81857  0.10720  0.70097  1.0000
  Fe  Fe453     1.0  0.96224  0.42625  0.55220  1.0000
  Fe  Fe454     1.0  0.75127  0.40427  0.58238  1.0000
  H   H3534     1.0  0.74699  0.07174  0.46766  1.0000
  H   H3535     1.0  0.82232  0.29324  0.54796  1.0000
  Fe  Fe455     1.0  0.92506  0.10197  0.67896  1.0000
  H   H3536     1.0  0.91300  0.03546  0.67187  1.0000
  H   H3537     1.0  0.75638  0.22208  0.50460  1.0000
  C   C2229     1.0  0.77420  0.05219  0.60803  1.0000
  H   H3538     1.0  0.83988  0.19345  0.55398  1.0000
  S   S893      1.0  0.88369  0.29876  0.51880  1.0000
  H   H3539     1.0  0.95933  0.17801  0.60972  1.0000
  S   S894      1.0  0.92277  0.08832  0.70859  1.0000
  H   H3540     1.0  0.79421  0.98074  0.53688  1.0000
  H   H3541     1.0  0.77871  0.45990  0.57286  1.0000
  H   H3542     1.0  0.79555  0.00687  0.57742  1.0000
  C   C2230     1.0  0.96484  0.01976  0.63663  1.0000
  H   H3543     1.0  0.98250  0.18802  0.62080  1.0000
  H   H3544     1.0  0.77906  0.98637  0.62580  1.0000
  H   H3545     1.0  0.82593  0.17889  0.61235  1.0000
  H   H3546     1.0  0.90116  0.37262  0.56415  1.0000
  H   H3547     1.0  0.98152  0.24659  0.53053  1.0000
  Fe  Fe456     1.0  0.91450  0.29246  0.51677  1.0000
  C   C2231     1.0  0.84867  0.02251  0.65852  1.0000
  C   C2232     1.0  0.75330  0.40756  0.64486  1.0000
  C   C2233     1.0  0.91925  0.39627  0.56895  1.0000
  H   H3548     1.0  0.87307  0.04431  0.65205  1.0000
  H   H3549     1.0  0.91179  0.38926  0.58212  1.0000
  H   H3550     1.0  0.83675  0.14552  0.68603  1.0000
  H   H3551     1.0  0.74593  0.39695  0.64457  1.0000
  H   H3552     1.0  0.95034  0.37051  0.56409  1.0000
  H   H3553     1.0  0.77450  0.10703  0.71386  1.0000
  H   H3554     1.0  0.89481  0.26130  0.53707  1.0000
  H   H3555     1.0  0.97986  0.12218  0.71083  1.0000
  N   N223      1.0  0.86786  0.01698  0.66125  1.0000
  H   H3556     1.0  0.76481  0.99881  0.60959  1.0000
  C   C2234     1.0  0.87585  0.99864  0.65693  1.0000
  C   C2235     1.0  0.86818  0.01649  0.68047  1.0000
  C   C2236     1.0  0.87876  0.03033  0.64908  1.0000
  H   H3557     1.0  0.78182  0.11191  0.58540  1.0000
  C   C2237     1.0  0.97960  0.36747  0.52174  1.0000
  Fe  Fe457     1.0  0.94897  0.06955  0.69865  1.0000
  H   H3558     1.0  0.90130  0.27401  0.49395  1.0000
  H   H3559     1.0  0.79635  0.46679  0.59246  1.0000
  S   S895      1.0  0.93191  0.30422  0.49046  1.0000
  H   H3560     1.0  0.88252  0.01247  0.68293  1.0000
  H   H3561     1.0  0.86020  0.00654  0.69013  1.0000
  H   H3562     1.0  0.86218  0.03016  0.68414  1.0000
  H   H3563     1.0  0.73907  0.36287  0.64479  1.0000
  S   S896      1.0  0.97097  0.40249  0.57386  1.0000
  H   H3564     1.0  0.96790  0.37149  0.49798  1.0000
  Fe  Fe458     1.0  0.95107  0.27699  0.49403  1.0000
  H   H3565     1.0  0.82333  0.17922  0.56459  1.0000
  S   S897      1.0  0.93322  0.43669  0.54780  1.0000
  H   H3566     1.0  0.91294  0.37145  0.54101  1.0000
  H   H3567     1.0  0.87757  0.25706  0.49569  1.0000
  C   C2238     1.0  0.74195  0.10398  0.61460  1.0000
  H   H3568     1.0  0.77629  0.99822  0.57641  1.0000
  C   C2239     1.0  0.79044  0.99406  0.57934  1.0000
  H   H3569     1.0  0.89030  0.99394  0.65888  1.0000
  C   C2240     1.0  0.74322  0.21588  0.48576  1.0000
  N   N224      1.0  0.82283  0.31787  0.55602  1.0000
  H   H3570     1.0  0.97005  0.00786  0.62973  1.0000
  C   C2241     1.0  0.98346  0.35558  0.53787  1.0000
  H   H3571     1.0  0.95066  0.45727  0.50772  1.0000
  S   S898      1.0  0.96773  0.28520  0.50983  1.0000
  C   C2242     1.0  0.98037  0.13698  0.70683  1.0000
  C   C2243     1.0  0.75177  0.13273  0.60113  1.0000
  Fe  Fe459     1.0  0.94751  0.27496  0.53459  1.0000
  H   H3572     1.0  0.78159  0.27271  0.47500  1.0000
  H   H3573     1.0  0.78628  0.05178  0.59715  1.0000
  C   C2244     1.0  0.75833  0.21822  0.49159  1.0000
  H   H3574     1.0  0.75321  0.06296  0.49916  1.0000
  H   H3575     1.0  0.92626  0.40772  0.53256  1.0000
  H   H3576     1.0  0.74001  0.11106  0.47555  1.0000
  H   H3577     1.0  0.81590  0.09724  0.71407  1.0000
  S   S899      1.0  0.96773  0.08631  0.70172  1.0000
  N   N225      1.0  0.98011  0.02654  0.63955  1.0000
  S   S900      1.0  0.92787  0.30202  0.53447  1.0000
  S   S901      1.0  0.79483  0.22033  0.48641  1.0000
  H   H3578     1.0  0.73857  0.25435  0.49406  1.0000
  H   H3579     1.0  0.80517  0.11345  0.69672  1.0000
  C   C2245     1.0  0.94255  0.99944  0.69135  1.0000
  H   H3580     1.0  0.81746  0.34386  0.53776  1.0000
  S   S902      1.0  0.76000  0.03765  0.58698  1.0000
  C   C2246     1.0  0.85564  0.24976  0.53409  1.0000
  C   C2247     1.0  0.90890  0.38016  0.55151  1.0000
  H   H3581     1.0  0.92613  0.05181  0.68789  1.0000
  C   C2248     1.0  0.90880  0.26965  0.48093  1.0000
  H   H3582     1.0  0.86800  0.98822  0.66591  1.0000
  C   C2249     1.0  0.74742  0.28645  0.49148  1.0000
  S   S903      1.0  0.96451  0.26014  0.47223  1.0000
  H   H3583     1.0  0.81633  0.14145  0.68145  1.0000
  H   H3584     1.0  0.76017  0.34814  0.55099  1.0000
  H   H3585     1.0  0.84740  0.32146  0.53566  1.0000
  C   C2250     1.0  0.85564  0.28183  0.52099  1.0000
  C   C2251     1.0  0.96528  0.34534  0.51558  1.0000
  C   C2252     1.0  0.92939  0.00908  0.68088  1.0000
  C   C2253     1.0  0.92319  0.02792  0.67995  1.0000
  H   H3586     1.0  0.98063  0.16898  0.65863  1.0000
  H   H3587     1.0  0.90530  0.24085  0.50849  1.0000
  H   H3588     1.0  0.89928  0.39276  0.54637  1.0000
  C   C2254     1.0  0.84304  0.31584  0.55052  1.0000
  H   H3589     1.0  0.97232  0.46203  0.49379  1.0000
  S   S904      1.0  0.75390  0.38111  0.60652  1.0000
  S   S905      1.0  0.95549  0.25929  0.56127  1.0000
  H   H3590     1.0  0.94193  0.35842  0.55183  1.0000
  H   H3591     1.0  0.85010  0.30121  0.55302  1.0000
  H   H3592     1.0  0.79881  0.33946  0.55666  1.0000
  H   H3593     1.0  0.90992  0.40932  0.56426  1.0000
  H   H3594     1.0  0.76006  0.14070  0.58924  1.0000
  N   N226      1.0  0.82766  0.12130  0.70275  1.0000
  H   H3595     1.0  0.82228  0.31712  0.58425  1.0000
  H   H3596     1.0  0.84710  0.17037  0.56559  1.0000
  Fe  Fe460     1.0  0.94356  0.97387  0.65998  1.0000
  S   S906      1.0  0.93251  0.26448  0.51907  1.0000
  H   H3597     1.0  0.87970  0.23463  0.54477  1.0000
  N   N227      1.0  0.83301  0.18925  0.58336  1.0000
  C   C2255     1.0  0.87300  0.27984  0.52495  1.0000
  C   C2256     1.0  0.87297  0.24779  0.53810  1.0000
  C   C2257     1.0  0.88160  0.26283  0.53362  1.0000
  S   S907      1.0  0.76624  0.33490  0.58831  1.0000
  H   H3598     1.0  0.80498  0.20248  0.58209  1.0000
  H   H3599     1.0  0.98369  0.04808  0.65079  1.0000
  C   C2258     1.0  0.83599  0.18277  0.56614  1.0000
  H   H3600     1.0  0.85421  0.20509  0.57287  1.0000
  C   C2259     1.0  0.75229  0.43982  0.64116  1.0000
  S   S908      1.0  0.95397  0.33948  0.50129  1.0000
  C   C2260     1.0  0.81636  0.30815  0.54532  1.0000
  H   H3601     1.0  0.75900  0.09271  0.48002  1.0000
  C   C2261     1.0  0.85006  0.19413  0.58464  1.0000
  H   H3602     1.0  0.89424  0.45030  0.55345  1.0000
  C   C2262     1.0  0.84592  0.11254  0.70722  1.0000
  H   H3603     1.0  0.80262  0.13809  0.71415  1.0000
  H   H3604     1.0  0.84303  0.46283  0.69580  1.0000
  H   H3605     1.0  0.81500  0.17100  0.59868  1.0000
  C   C2263     1.0  0.81793  0.20551  0.58356  1.0000
  C   C2264     1.0  0.74349  0.04640  0.62079  1.0000
  H   H3606     1.0  0.74749  0.42830  0.61256  1.0000
  H   H3607     1.0  0.83844  0.12793  0.67386  1.0000
  H   H3608     1.0  0.85487  0.10531  0.69636  1.0000
  H   H3609     1.0  0.84825  0.19925  0.59738  1.0000
  H   H3610     1.0  0.73711  0.07317  0.51703  1.0000
  C   C2265     1.0  0.88509  0.25353  0.48228  1.0000
  H   H3611     1.0  0.78777  0.18279  0.55796  1.0000
  H   H3612     1.0  0.76115  0.33137  0.52692  1.0000
  H   H3613     1.0  0.81491  0.21052  0.59655  1.0000
  C   C2266     1.0  0.73911  0.26358  0.48036  1.0000
  H   H3614     1.0  0.86170  0.18215  0.58459  1.0000
  C   C2267     1.0  0.94997  0.00868  0.70038  1.0000
  H   H3615     1.0  0.77003  0.29699  0.58870  1.0000
  H   H3616     1.0  0.89680  0.07787  0.68542  1.0000
  H   H3617     1.0  0.84793  0.02312  0.64413  1.0000
  N   N228      1.0  0.74165  0.42602  0.64177  1.0000
  H   H3618     1.0  0.95569  0.01520  0.64981  1.0000
  C   C2268     1.0  0.80965  0.97716  0.60098  1.0000
  H   H3619     1.0  0.75241  0.34668  0.67209  1.0000
  H   H3620     1.0  0.73729  0.14039  0.60279  1.0000
  C   C2269     1.0  0.94425  0.02760  0.69896  1.0000
  H   H3621     1.0  0.97664  0.14205  0.69316  1.0000
  H   H3622     1.0  0.76603  0.40637  0.63413  1.0000
  H   H3623     1.0  0.96452  0.32052  0.53586  1.0000
  C   C2270     1.0  0.97062  0.36232  0.51060  1.0000
  H   H3624     1.0  0.75783  0.43715  0.65383  1.0000
  H   H3625     1.0  0.90947  0.22410  0.49461  1.0000
  H   H3626     1.0  0.98215  0.00732  0.66489  1.0000
  H   H3627     1.0  0.97160  0.13925  0.66275  1.0000
  H   H3628     1.0  0.76424  0.43985  0.62946  1.0000
  H   H3629     1.0  0.97841  0.24331  0.58768  1.0000
  S   S909      1.0  0.98152  0.41457  0.52898  1.0000
  H   H3630     1.0  0.92716  0.23621  0.49343  1.0000
  C   C2271     1.0  0.97813  0.33857  0.54289  1.0000
  H   H3631     1.0  0.74451  0.10345  0.49829  1.0000
  H   H3632     1.0  0.74762  0.10087  0.57963  1.0000
  H   H3633     1.0  0.77790  0.10273  0.60949  1.0000
  N   N229      1.0  0.75328  0.11398  0.59861  1.0000
  C   C2272     1.0  0.82990  0.13467  0.68525  1.0000
  C   C2273     1.0  0.77930  0.99417  0.61151  1.0000
  C   C2274     1.0  0.74671  0.11483  0.58188  1.0000
  H   H3634     1.0  0.87259  0.06033  0.68847  1.0000
  C   C2275     1.0  0.91395  0.47065  0.58382  1.0000
  C   C2276     1.0  0.96891  0.33350  0.53184  1.0000
  H   H3635     1.0  0.92367  0.26869  0.48025  1.0000
  C   C2277     1.0  0.96662  0.18252  0.59543  1.0000
  H   H3636     1.0  0.74378  0.45388  0.63943  1.0000
  H   H3637     1.0  0.74687  0.10250  0.62744  1.0000
  S   S910      1.0  0.73968  0.34726  0.71017  1.0000
  H   H3638     1.0  0.74285  0.25471  0.47002  1.0000
  H   H3639     1.0  0.98080  0.32950  0.55555  1.0000
  H   H3640     1.0  0.76095  0.16517  0.71036  1.0000
  H   H3641     1.0  0.75754  0.40409  0.65832  1.0000
  C   C2278     1.0  0.88797  0.46792  0.57287  1.0000
  S   S911      1.0  0.73740  0.02109  0.55684  1.0000
  H   H3642     1.0  0.82713  0.09935  0.69045  1.0000
  H   H3643     1.0  0.79930  0.98631  0.56883  1.0000
  H   H3644     1.0  0.77449  0.09042  0.59410  1.0000
  S   S912      1.0  0.95483  0.03910  0.70907  1.0000
  H   H3645     1.0  0.98391  0.38047  0.51760  1.0000
  H   H3646     1.0  0.96408  0.05372  0.64017  1.0000
  C   C2279     1.0  0.73558  0.42952  0.62422  1.0000
  S   S913      1.0  0.98116  0.44271  0.55522  1.0000
  C   C2280     1.0  0.73955  0.35650  0.67359  1.0000
  H   H3647     1.0  0.74241  0.08995  0.61289  1.0000
  H   H3648     1.0  0.96365  0.03870  0.66213  1.0000
  H   H3649     1.0  0.97038  0.45298  0.51779  1.0000
  C   C2281     1.0  0.76783  0.97476  0.55162  1.0000
  C   C2282     1.0  0.97257  0.04245  0.64851  1.0000
  H   H3650     1.0  0.98204  0.20714  0.60187  1.0000
  H   H3651     1.0  0.77540  0.25570  0.46666  1.0000
  Fe  Fe461     1.0  0.81914  0.47219  0.61680  1.0000
  H   H3652     1.0  0.98443  0.04300  0.61243  1.0000
  H   H3653     1.0  0.95102  0.47191  0.54024  1.0000
  C   C2283     1.0  0.96293  0.12768  0.76796  1.0000
  Fe  Fe462     1.0  0.84711  0.19311  0.89018  1.0000
  S   S914      1.0  0.84662  0.21781  0.86743  1.0000
  S   S915      1.0  0.86530  0.16553  0.88784  1.0000
  Fe  Fe463     1.0  0.81858  0.21344  0.91728  1.0000
  S   S916      1.0  0.81569  0.23987  0.89678  1.0000
  S   S917      1.0  0.97942  0.15248  0.84098  1.0000
  Fe  Fe464     1.0  0.81598  0.22248  0.87724  1.0000
  S   S918      1.0  0.79502  0.23020  0.85925  1.0000
  Fe  Fe465     1.0  0.84644  0.23275  0.88908  1.0000
  S   S919      1.0  0.86473  0.25325  0.88264  1.0000
  S   S920      1.0  0.81640  0.19660  0.89839  1.0000
  S   S921      1.0  0.84941  0.20762  0.91116  1.0000
  H   H3654     1.0  0.79136  0.17497  0.88365  1.0000
  H   H3655     1.0  0.82277  0.43171  0.90499  1.0000
  Fe  Fe466     1.0  0.90522  0.33395  0.93669  1.0000
  H   H3656     1.0  0.73734  0.37457  0.77282  1.0000
  C   C2284     1.0  0.97284  0.33430  0.88781  1.0000
  C   C2285     1.0  0.80121  0.13947  0.88022  1.0000
  C   C2286     1.0  0.81545  0.42513  0.87526  1.0000
  Fe  Fe467     1.0  0.76356  0.16698  0.81512  1.0000
  S   S922      1.0  0.78720  0.16395  0.82909  1.0000
  H   H3657     1.0  0.97013  0.33922  0.87369  1.0000
  S   S923      1.0  0.76777  0.17403  0.78442  1.0000
  S   S924      1.0  0.96676  0.40251  0.91944  1.0000
  C   C2287     1.0  0.77097  0.11871  0.72035  1.0000
  S   S925      1.0  0.89324  0.32376  0.91829  1.0000
  C   C2288     1.0  0.76148  0.14883  0.73748  1.0000
  Fe  Fe468     1.0  0.87170  0.34946  0.91924  1.0000
  S   S926      1.0  0.86289  0.36535  0.89299  1.0000
  S   S927      1.0  0.93601  0.33031  0.93364  1.0000
  Fe  Fe469     1.0  0.76407  0.41442  0.82987  1.0000
  S   S928      1.0  0.78940  0.41054  0.84131  1.0000
  S   S929      1.0  0.76765  0.40030  0.80647  1.0000
  H   H3658     1.0  0.80581  0.20538  0.80392  1.0000
  S   S930      1.0  0.76405  0.43678  0.86948  1.0000
  Fe  Fe470     1.0  0.78115  0.44048  0.84121  1.0000
  Fe  Fe471     1.0  0.77017  0.40708  0.86853  1.0000
  S   S931      1.0  0.77762  0.38690  0.89361  1.0000
  S   S932      1.0  0.75761  0.44495  0.82722  1.0000
  S   S933      1.0  0.86700  0.28457  0.95021  1.0000
  H   H3659     1.0  0.76613  0.22566  0.80880  1.0000
  S   S934      1.0  0.93330  0.17284  0.82225  1.0000
  C   C2289     1.0  0.96819  0.00055  0.75019  1.0000
  H   H3660     1.0  0.94331  0.97861  0.75910  1.0000
  S   S935      1.0  0.80133  0.21239  0.94568  1.0000
  C   C2290     1.0  0.80129  0.38043  0.89341  1.0000
  C   C2291     1.0  0.80747  0.37576  0.90994  1.0000
  C   C2292     1.0  0.82638  0.37097  0.90998  1.0000
  C   C2293     1.0  0.83915  0.37062  0.89348  1.0000
  C   C2294     1.0  0.83297  0.37509  0.87699  1.0000
  C   C2295     1.0  0.81409  0.37993  0.87696  1.0000
  H   H3661     1.0  0.79760  0.37620  0.92271  1.0000
  H   H3662     1.0  0.84281  0.37473  0.86420  1.0000
  H   H3663     1.0  0.80946  0.38293  0.86421  1.0000
  H   H3664     1.0  0.80708  0.19887  0.78270  1.0000
  H   H3665     1.0  0.79121  0.45823  0.80276  1.0000
  S   S936      1.0  0.80072  0.45940  0.83651  1.0000
  H   H3666     1.0  0.93649  0.99895  0.74284  1.0000
  H   H3667     1.0  0.84082  0.43659  0.84713  1.0000
  H   H3668     1.0  0.84266  0.40535  0.89290  1.0000
  H   H3669     1.0  0.77040  0.24760  0.79607  1.0000
  C   C2296     1.0  0.95920  0.38218  0.92182  1.0000
  S   S937      1.0  0.75239  0.14220  0.81705  1.0000
  C   C2297     1.0  0.96268  0.34921  0.93118  1.0000
  C   C2298     1.0  0.94498  0.35030  0.92846  1.0000
  C   C2299     1.0  0.93462  0.36729  0.92195  1.0000
  C   C2300     1.0  0.94164  0.38321  0.91882  1.0000
  C   C2301     1.0  0.94175  0.02260  0.76091  1.0000
  H   H3670     1.0  0.92119  0.36822  0.91932  1.0000
  H   H3671     1.0  0.93345  0.39638  0.91407  1.0000
  H   H3672     1.0  0.81164  0.12690  0.87797  1.0000
  C   C2302     1.0  0.75060  0.38593  0.78777  1.0000
  H   H3673     1.0  0.78713  0.19730  0.80052  1.0000
  Fe  Fe472     1.0  0.87526  0.31198  0.94408  1.0000
  C   C2303     1.0  0.76477  0.13114  0.74793  1.0000
  S   S938      1.0  0.85273  0.33695  0.94366  1.0000
  H   H3674     1.0  0.75902  0.30677  0.83352  1.0000
  H   H3675     1.0  0.78519  0.23381  0.81131  1.0000
  H   H3676     1.0  0.81649  0.45296  0.88973  1.0000
  C   C2304     1.0  0.79059  0.16435  0.89648  1.0000
  C   C2305     1.0  0.88375  0.16602  0.86888  1.0000
  C   C2306     1.0  0.90062  0.15387  0.87008  1.0000
  C   C2307     1.0  0.91587  0.15522  0.85550  1.0000
  C   C2308     1.0  0.91416  0.16863  0.83965  1.0000
  C   C2309     1.0  0.89711  0.18024  0.83822  1.0000
  C   C2310     1.0  0.88198  0.17899  0.85279  1.0000
  H   H3677     1.0  0.90204  0.14373  0.88248  1.0000
  H   H3678     1.0  0.92902  0.14622  0.85669  1.0000
  H   H3679     1.0  0.89570  0.19050  0.82590  1.0000
  H   H3680     1.0  0.86891  0.18800  0.85149  1.0000
  C   C2311     1.0  0.86673  0.26059  0.90176  1.0000
  C   C2312     1.0  0.85775  0.25362  0.91937  1.0000
  C   C2313     1.0  0.85868  0.26046  0.93432  1.0000
  C   C2314     1.0  0.86830  0.27450  0.93167  1.0000
  C   C2315     1.0  0.87777  0.28100  0.91413  1.0000
  C   C2316     1.0  0.87696  0.27408  0.89920  1.0000
  H   H3681     1.0  0.84979  0.24322  0.92147  1.0000
  H   H3682     1.0  0.88548  0.29157  0.91199  1.0000
  H   H3683     1.0  0.88401  0.27944  0.88561  1.0000
  C   C2317     1.0  0.79262  0.21155  0.85146  1.0000
  C   C2318     1.0  0.77605  0.21168  0.84674  1.0000
  C   C2319     1.0  0.77411  0.19700  0.84011  1.0000
  C   C2320     1.0  0.78883  0.18225  0.83800  1.0000
  C   C2321     1.0  0.80541  0.18217  0.84266  1.0000
  C   C2322     1.0  0.80726  0.19670  0.84953  1.0000
  H   H3684     1.0  0.76466  0.22312  0.84833  1.0000
  H   H3685     1.0  0.76125  0.19712  0.83666  1.0000
  H   H3686     1.0  0.81696  0.17095  0.84072  1.0000
  H   H3687     1.0  0.82016  0.19663  0.85294  1.0000
  H   H3688     1.0  0.85014  0.40661  0.86870  1.0000
  H   H3689     1.0  0.95082  0.03018  0.76405  1.0000
  H   H3690     1.0  0.81844  0.17642  0.93794  1.0000
  H   H3691     1.0  0.78739  0.13578  0.88419  1.0000
  S   S939      1.0  0.74519  0.40894  0.85726  1.0000
  H   H3692     1.0  0.85139  0.25531  0.94788  1.0000
  S   S940      1.0  0.76345  0.12724  0.77168  1.0000
  H   H3693     1.0  0.97068  0.33611  0.93641  1.0000
  H   H3694     1.0  0.96731  0.29994  0.89444  1.0000
  H   H3695     1.0  0.83983  0.44522  0.89303  1.0000
  H   H3696     1.0  0.77072  0.23829  0.76760  1.0000
  C   C2323     1.0  0.79771  0.20577  0.79362  1.0000
  C   C2324     1.0  0.77789  0.22431  0.77320  1.0000
  H   H3697     1.0  0.81283  0.22914  0.76502  1.0000
  C   C2325     1.0  0.95146  0.11806  0.74582  1.0000
  C   C2326     1.0  0.82318  0.15219  0.88832  1.0000
  H   H3698     1.0  0.81223  0.23580  0.78595  1.0000
  H   H3699     1.0  0.82798  0.45600  0.85666  1.0000
  S   S941      1.0  0.93588  0.12279  0.73111  1.0000
  Fe  Fe473     1.0  0.96070  0.15340  0.82238  1.0000
  H   H3700     1.0  0.96934  0.14403  0.71668  1.0000
  H   H3701     1.0  0.82293  0.14111  0.71961  1.0000
  H   H3702     1.0  0.98333  0.36422  0.93023  1.0000
  H   H3703     1.0  0.83104  0.36795  0.92274  1.0000
  H   H3704     1.0  0.81817  0.41793  0.86370  1.0000
  H   H3705     1.0  0.80615  0.14016  0.92272  1.0000
  C   C2327     1.0  0.82615  0.46742  0.73004  1.0000
  H   H3706     1.0  0.79229  0.17045  0.90747  1.0000
  H   H3707     1.0  0.74276  0.30012  0.82448  1.0000
  Fe  Fe474     1.0  0.75407  0.15074  0.78677  1.0000
  H   H3708     1.0  0.75265  0.31891  0.79411  1.0000
  N   N230      1.0  0.74162  0.32908  0.81901  1.0000
  H   H3709     1.0  0.85142  0.44711  0.85909  1.0000
  C   C2328     1.0  0.95207  0.99480  0.78163  1.0000
  H   H3710     1.0  0.76710  0.21609  0.78004  1.0000
  H   H3711     1.0  0.83413  0.14005  0.88573  1.0000
  H   H3712     1.0  0.97465  0.98583  0.75086  1.0000
  H   H3713     1.0  0.93950  0.02899  0.74678  1.0000
  H   H3714     1.0  0.81527  0.45933  0.73260  1.0000
  H   H3715     1.0  0.82666  0.15752  0.89893  1.0000
  C   C2329     1.0  0.79924  0.46869  0.80002  1.0000
  C   C2330     1.0  0.96604  0.10296  0.74563  1.0000
  C   C2331     1.0  0.97784  0.11294  0.76727  1.0000
  C   C2332     1.0  0.75463  0.32898  0.80125  1.0000
  H   H3716     1.0  0.80166  0.14915  0.86678  1.0000
  H   H3717     1.0  0.75785  0.16050  0.74401  1.0000
  C   C2333     1.0  0.77721  0.23333  0.80123  1.0000
  N   N231      1.0  0.91064  0.21422  0.86795  1.0000
  H   H3718     1.0  0.90413  0.19862  0.89528  1.0000
  C   C2334     1.0  0.91629  0.22848  0.87383  1.0000
  C   C2335     1.0  0.90150  0.22267  0.85222  1.0000
  C   C2336     1.0  0.92703  0.20037  0.86251  1.0000
  H   H3719     1.0  0.96713  0.00675  0.73571  1.0000
  H   H3720     1.0  0.95833  0.97994  0.78331  1.0000
  S   S942      1.0  0.73563  0.18511  0.82021  1.0000
  H   H3721     1.0  0.92608  0.23542  0.86263  1.0000
  H   H3722     1.0  0.90421  0.23919  0.87795  1.0000
  H   H3723     1.0  0.92307  0.22262  0.88579  1.0000
  H   H3724     1.0  0.88910  0.23325  0.85581  1.0000
  H   H3725     1.0  0.89688  0.21234  0.84757  1.0000
  H   H3726     1.0  0.91090  0.22930  0.84033  1.0000
  H   H3727     1.0  0.92319  0.18925  0.85836  1.0000
  H   H3728     1.0  0.93446  0.19387  0.87394  1.0000
  H   H3729     1.0  0.93690  0.20639  0.85064  1.0000
  N   N232      1.0  0.82543  0.31600  0.90959  1.0000
  C   C2337     1.0  0.81409  0.32242  0.92621  1.0000
  C   C2338     1.0  0.81784  0.32675  0.89341  1.0000
  C   C2339     1.0  0.82535  0.29646  0.91148  1.0000
  C   C2340     1.0  0.84448  0.31836  0.90730  1.0000
  H   H3730     1.0  0.81954  0.31456  0.93865  1.0000
  H   H3731     1.0  0.79957  0.32094  0.92837  1.0000
  H   H3732     1.0  0.81396  0.33708  0.92529  1.0000
  H   H3733     1.0  0.82618  0.32230  0.88064  1.0000
  H   H3734     1.0  0.80343  0.32538  0.89467  1.0000
  H   H3735     1.0  0.81769  0.34155  0.89164  1.0000
  H   H3736     1.0  0.83429  0.29092  0.89947  1.0000
  H   H3737     1.0  0.81127  0.29416  0.91278  1.0000
  H   H3738     1.0  0.83054  0.28808  0.92385  1.0000
  H   H3739     1.0  0.85032  0.31109  0.91961  1.0000
  H   H3740     1.0  0.84518  0.33297  0.90522  1.0000
  H   H3741     1.0  0.85369  0.31303  0.89531  1.0000
  N   N233      1.0  0.83207  0.43090  0.87642  1.0000
  C   C2341     1.0  0.82761  0.44065  0.89172  1.0000
  Fe  Fe475     1.0  0.74081  0.43926  0.85572  1.0000
  C   C2342     1.0  0.84678  0.41465  0.87968  1.0000
  C   C2343     1.0  0.83840  0.44317  0.85909  1.0000
  H   H3742     1.0  0.90636  0.40323  0.96334  1.0000
  H   H3743     1.0  0.81036  0.41569  0.88802  1.0000
  S   S943      1.0  0.88895  0.32000  0.96272  1.0000
  C   C2344     1.0  0.96985  0.36511  0.92772  1.0000
  H   H3744     1.0  0.76413  0.38255  0.77944  1.0000
  H   H3745     1.0  0.96173  0.13735  0.77645  1.0000
  H   H3746     1.0  0.81421  0.12161  0.91069  1.0000
  C   C2345     1.0  0.80619  0.47151  0.81400  1.0000
  H   H3747     1.0  0.91044  0.38805  0.94787  1.0000
  C   C2346     1.0  0.94980  0.13025  0.75721  1.0000
  H   H3748     1.0  0.84474  0.10230  0.72030  1.0000
  H   H3749     1.0  0.93848  0.14190  0.75750  1.0000
  C   C2347     1.0  0.74828  0.39504  0.80208  1.0000
  H   H3750     1.0  0.77182  0.10238  0.74741  1.0000
  H   H3751     1.0  0.78637  0.21809  0.76148  1.0000
  C   C2348     1.0  0.80770  0.17502  0.95006  1.0000
  C   C2349     1.0  0.89769  0.20538  0.88323  1.0000
  C   C2350     1.0  0.90400  0.38997  0.96207  1.0000
  H   H3752     1.0  0.95930  0.02946  0.86628  1.0000
  Fe  Fe476     1.0  0.86795  0.34607  0.96006  1.0000
  N   N234      1.0  0.78911  0.22468  0.78613  1.0000
  S   S944      1.0  0.96595  0.12291  0.82505  1.0000
  C   C2351     1.0  0.79697  0.19056  0.95645  1.0000
  C   C2352     1.0  0.74446  0.34287  0.82782  1.0000
  H   H3753     1.0  0.96112  0.00147  0.78599  1.0000
  C   C2353     1.0  0.80357  0.23529  0.77650  1.0000
  C   C2354     1.0  0.76939  0.11610  0.73934  1.0000
  N   N235      1.0  0.80467  0.14760  0.89420  1.0000
  H   H3754     1.0  0.89287  0.19476  0.87920  1.0000
  H   H3755     1.0  0.81346  0.14554  0.95500  1.0000
  H   H3756     1.0  0.77643  0.16149  0.90023  1.0000
  S   S945      1.0  0.88518  0.36080  0.93544  1.0000
  H   H3757     1.0  0.91581  0.35427  0.95964  1.0000
  H   H3758     1.0  0.92817  0.02494  0.77036  1.0000
  H   H3759     1.0  0.85969  0.41844  0.88023  1.0000
  H   H3760     1.0  0.82427  0.16280  0.87550  1.0000
  N   N236      1.0  0.94996  0.00289  0.76254  1.0000
  H   H3761     1.0  0.78993  0.13056  0.91673  1.0000
  H   H3762     1.0  0.97742  0.30917  0.91828  1.0000
  H   H3763     1.0  0.88529  0.21553  0.88777  1.0000
  H   H3764     1.0  0.79747  0.24963  0.77069  1.0000
  C   C2355     1.0  0.80369  0.13437  0.91184  1.0000
  H   H3765     1.0  0.80402  0.43705  0.87296  1.0000
  C   C2356     1.0  0.93784  0.99362  0.75740  1.0000
  H   H3766     1.0  0.98276  0.45984  0.84436  1.0000
  H   H3767     1.0  0.96727  0.09335  0.73713  1.0000
  H   H3768     1.0  0.75274  0.34265  0.79199  1.0000
  H   H3769     1.0  0.81351  0.12103  0.73074  1.0000
  H   H3770     1.0  0.88889  0.39114  0.96372  1.0000
  H   H3771     1.0  0.76916  0.32536  0.80300  1.0000
  H   H3772     1.0  0.93896  0.37127  0.95923  1.0000
  H   H3773     1.0  0.97777  0.00721  0.75377  1.0000
  C   C2357     1.0  0.80495  0.15757  0.95976  1.0000
  H   H3774     1.0  0.95722  0.97737  0.90406  1.0000
  C   C2358     1.0  0.74478  0.31077  0.83090  1.0000
  C   C2359     1.0  0.97922  0.10043  0.75630  1.0000
  H   H3775     1.0  0.97403  0.05171  0.87407  1.0000
  H   H3776     1.0  0.97741  0.04968  0.84206  1.0000
  H   H3777     1.0  0.97718  0.34546  0.89149  1.0000
  H   H3778     1.0  0.83961  0.45770  0.72964  1.0000
  H   H3779     1.0  0.75881  0.34008  0.82999  1.0000
  C   C2360     1.0  0.81622  0.13078  0.71746  1.0000
  H   H3780     1.0  0.92378  0.99556  0.76605  1.0000
  C   C2361     1.0  0.73546  0.38131  0.78406  1.0000
  H   H3781     1.0  0.95952  0.33228  0.89718  1.0000
  C   C2362     1.0  0.97224  0.01920  0.86756  1.0000
  S   S946      1.0  0.98207  0.15801  0.79654  1.0000
  H   H3782     1.0  0.93857  0.99613  0.79134  1.0000
  H   H3783     1.0  0.73507  0.31027  0.84436  1.0000
  H   H3784     1.0  0.97059  0.01144  0.88197  1.0000
  H   H3785     1.0  0.74185  0.35686  0.81927  1.0000
  Fe  Fe477     1.0  0.73897  0.19052  0.78959  1.0000
  H   H3786     1.0  0.97366  0.00929  0.85873  1.0000
  H   H3787     1.0  0.97771  0.30644  0.87071  1.0000
  C   C2363     1.0  0.98034  0.30267  0.88487  1.0000
  C   C2364     1.0  0.76320  0.15144  0.71845  1.0000
  H   H3788     1.0  0.73499  0.34324  0.84133  1.0000
  C   C2365     1.0  0.96868  0.97245  0.89385  1.0000
  S   S947      1.0  0.91386  0.49992  0.16825  1.0000
  C   C2366     1.0  0.83151  0.61155  0.16586  1.0000
  Fe  Fe478     1.0  0.78201  0.71317  0.03682  1.0000
  S   S948      1.0  0.79079  0.72062  0.00633  1.0000
  S   S949      1.0  0.78495  0.68323  0.04962  1.0000
  Fe  Fe479     1.0  0.77029  0.75282  0.04091  1.0000
  S   S950      1.0  0.77785  0.76354  0.01075  1.0000
  H   H3789     1.0  0.76374  0.68632  0.97604  1.0000
  Fe  Fe480     1.0  0.76469  0.74172  0.00768  1.0000
  Fe  Fe481     1.0  0.80320  0.74151  0.01218  1.0000
  S   S951      1.0  0.83122  0.74614  0.99645  1.0000
  C   C2367     1.0  0.78731  0.68060  0.12052  1.0000
  S   S952      1.0  0.79666  0.73223  0.04268  1.0000
  Fe  Fe482     1.0  0.97723  0.91647  0.05294  1.0000
  S   S953      1.0  0.89916  0.83145  0.99218  1.0000
  Fe  Fe483     1.0  0.75337  0.63672  0.14715  1.0000
  Fe  Fe484     1.0  0.93145  0.78554  0.00761  1.0000
  S   S954      1.0  0.91090  0.80085  0.02752  1.0000
  C   C2368     1.0  0.96707  0.51762  0.10307  1.0000
  Fe  Fe485     1.0  0.89150  0.80508  0.00874  1.0000
  S   S955      1.0  0.86249  0.80169  0.02263  1.0000
  Fe  Fe486     1.0  0.92033  0.82584  0.00947  1.0000
  S   S956      1.0  0.92263  0.84650  0.02458  1.0000
  S   S957      1.0  0.91134  0.78778  0.99001  1.0000
  H   H3790     1.0  0.79158  0.65080  0.21329  1.0000
  S   S958      1.0  0.92313  0.65240  0.17033  1.0000
  H   H3791     1.0  0.76638  0.65764  0.03678  1.0000
  H   H3792     1.0  0.95820  0.92314  0.11214  1.0000
  S   S959      1.0  0.89994  0.62439  0.21472  1.0000
  S   S960      1.0  0.85351  0.95255  0.12080  1.0000
  H   H3793     1.0  0.80039  0.86527  0.01857  1.0000
  Fe  Fe487     1.0  0.82664  0.95190  0.11435  1.0000
  S   S961      1.0  0.82005  0.92489  0.11435  1.0000
  C   C2369     1.0  0.97568  0.66533  0.20821  1.0000
  Fe  Fe488     1.0  0.73924  0.87158  0.06567  1.0000
  C   C2370     1.0  0.89991  0.96207  0.07356  1.0000
  Fe  Fe489     1.0  0.93008  0.58353  0.19337  1.0000
  H   H3794     1.0  0.82530  0.59648  0.21200  1.0000
  H   H3795     1.0  0.74326  0.79742  0.08418  1.0000
  C   C2371     1.0  0.73743  0.57990  0.10987  1.0000
  H   H3796     1.0  0.85024  0.92911  0.05088  1.0000
  H   H3797     1.0  0.80487  0.62822  0.21250  1.0000
  S   S962      1.0  0.94271  0.81019  0.99088  1.0000
  H   H3798     1.0  0.91142  0.55894  0.18273  1.0000
  H   H3799     1.0  0.83363  0.63777  0.21105  1.0000
  S   S963      1.0  0.74037  0.51325  0.07501  1.0000
  S   S964      1.0  0.82023  0.61575  0.14755  1.0000
  S   S965      1.0  0.75737  0.87500  0.08293  1.0000
  C   C2372     1.0  0.94543  0.86647  0.02903  1.0000
  C   C2373     1.0  0.93308  0.93643  0.07505  1.0000
  H   H3800     1.0  0.93529  0.86898  0.04120  1.0000
  C   C2374     1.0  0.75274  0.83212  0.04829  1.0000
  H   H3801     1.0  0.97462  0.51941  0.14415  1.0000
  C   C2375     1.0  0.80257  0.92609  0.10271  1.0000
  C   C2376     1.0  0.79360  0.94290  0.09401  1.0000
  C   C2377     1.0  0.77980  0.94357  0.08468  1.0000
  C   C2378     1.0  0.77467  0.92748  0.08419  1.0000
  C   C2379     1.0  0.78357  0.91064  0.09297  1.0000
  C   C2380     1.0  0.79757  0.90996  0.10211  1.0000
  H   H3802     1.0  0.79722  0.95543  0.09452  1.0000
  H   H3803     1.0  0.77293  0.95664  0.07796  1.0000
  H   H3804     1.0  0.77975  0.89817  0.09261  1.0000
  H   H3805     1.0  0.80452  0.89690  0.10877  1.0000
  C   C2381     1.0  0.94492  0.65338  0.15636  1.0000
  C   C2382     1.0  0.94951  0.67045  0.14804  1.0000
  H   H3806     1.0  0.92080  0.74647  0.00245  1.0000
  C   C2383     1.0  0.95808  0.63743  0.15430  1.0000
  H   H3807     1.0  0.93933  0.68282  0.14957  1.0000
  H   H3808     1.0  0.92134  0.92848  0.10365  1.0000
  H   H3809     1.0  0.89773  0.92739  0.05678  1.0000
  H   H3810     1.0  0.90952  0.72932  0.00069  1.0000
  Fe  Fe490     1.0  0.76046  0.59535  0.15818  1.0000
  H   H3811     1.0  0.80198  0.65586  0.09861  1.0000
  C   C2384     1.0  0.75614  0.79384  0.05670  1.0000
  C   C2385     1.0  0.76254  0.80269  0.03886  1.0000
  C   C2386     1.0  0.76063  0.82181  0.03462  1.0000
  H   H3812     1.0  0.95132  0.66592  0.18774  1.0000
  C   C2387     1.0  0.73561  0.56280  0.10805  1.0000
  H   H3813     1.0  0.87235  0.61382  0.17434  1.0000
  H   H3814     1.0  0.76898  0.79482  0.02835  1.0000
  H   H3815     1.0  0.76542  0.82859  0.02075  1.0000
  H   H3816     1.0  0.74038  0.84853  0.17129  1.0000
  H   H3817     1.0  0.97003  0.50042  0.13763  1.0000
  C   C2388     1.0  0.83982  0.76157  0.00376  1.0000
  C   C2389     1.0  0.85501  0.76867  0.99271  1.0000
  C   C2390     1.0  0.86204  0.78104  0.99837  1.0000
  C   C2391     1.0  0.85409  0.78610  0.01525  1.0000
  C   C2392     1.0  0.83922  0.77862  0.02650  1.0000
  C   C2393     1.0  0.83193  0.76658  0.02067  1.0000
  N   N237      1.0  0.74581  0.90894  0.14380  1.0000
  H   H3818     1.0  0.87333  0.78694  0.98947  1.0000
  H   H3819     1.0  0.83335  0.78202  0.03980  1.0000
  H   H3820     1.0  0.82032  0.76103  0.02934  1.0000
  H   H3821     1.0  0.73823  0.93779  0.13320  1.0000
  H   H3822     1.0  0.94505  0.65341  0.21056  1.0000
  C   C2394     1.0  0.77369  0.65957  0.08081  1.0000
  H   H3823     1.0  0.88320  0.72086  0.02501  1.0000
  H   H3824     1.0  0.78290  0.64899  0.07411  1.0000
  C   C2395     1.0  0.74953  0.68670  0.09804  1.0000
  H   H3825     1.0  0.93681  0.53922  0.11780  1.0000
  C   C2396     1.0  0.94256  0.85588  0.01802  1.0000
  H   H3826     1.0  0.81668  0.57607  0.12810  1.0000
  C   C2397     1.0  0.92352  0.51594  0.17350  1.0000
  C   C2398     1.0  0.91236  0.53258  0.17708  1.0000
  H   H3827     1.0  0.89783  0.53530  0.17699  1.0000
  H   H3828     1.0  0.89773  0.75272  0.99829  1.0000
  H   H3829     1.0  0.91740  0.50029  0.21245  1.0000
  N   N238      1.0  0.74032  0.67389  0.03146  1.0000
  C   C2399     1.0  0.91925  0.93753  0.09080  1.0000
  C   C2400     1.0  0.97205  0.54320  0.11273  1.0000
  H   H3830     1.0  0.74174  0.92355  0.11690  1.0000
  N   N239      1.0  0.86985  0.92388  0.06821  1.0000
  C   C2401     1.0  0.88363  0.93255  0.05379  1.0000
  C   C2402     1.0  0.85129  0.93168  0.06412  1.0000
  C   C2403     1.0  0.87035  0.92740  0.08603  1.0000
  C   C2404     1.0  0.87412  0.90394  0.06902  1.0000
  C   C2405     1.0  0.98067  0.65569  0.13654  1.0000
  H   H3831     1.0  0.97086  0.68485  0.13201  1.0000
  H   H3832     1.0  0.75173  0.89051  0.12529  1.0000
  C   C2406     1.0  0.91376  0.96103  0.05778  1.0000
  C   C2407     1.0  0.97545  0.79976  0.06457  1.0000
  S   S966      1.0  0.94114  0.47499  0.12806  1.0000
  H   H3833     1.0  0.96252  0.93496  0.12747  1.0000
  H   H3834     1.0  0.86398  0.89706  0.07986  1.0000
  H   H3835     1.0  0.88804  0.89766  0.07212  1.0000
  S   S967      1.0  0.73909  0.85555  0.13333  1.0000
  H   H3836     1.0  0.73716  0.65547  0.01607  1.0000
  H   H3837     1.0  0.79626  0.57896  0.14539  1.0000
  H   H3838     1.0  0.76108  0.92736  0.12355  1.0000
  C   C2408     1.0  0.75401  0.69915  0.97422  1.0000
  H   H3839     1.0  0.82454  0.53404  0.13770  1.0000
  H   H3840     1.0  0.83305  0.67127  0.10241  1.0000
  H   H3841     1.0  0.98358  0.66362  0.17232  1.0000
  S   S968      1.0  0.75114  0.85598  0.04269  1.0000
  H   H3842     1.0  0.83777  0.83867  0.01837  1.0000
  H   H3843     1.0  0.80276  0.65600  0.14670  1.0000
  H   H3844     1.0  0.88057  0.94766  0.05268  1.0000
  C   C2409     1.0  0.96643  0.74875  0.07102  1.0000
  C   C2410     1.0  0.90273  0.95033  0.09008  1.0000
  H   H3845     1.0  0.96826  0.93448  0.96798  1.0000
  H   H3846     1.0  0.81927  0.69228  0.10852  1.0000
  S   S969      1.0  0.94927  0.55967  0.18227  1.0000
  H   H3847     1.0  0.76164  0.68961  0.02062  1.0000
  H   H3848     1.0  0.79570  0.64472  0.12202  1.0000
  S   S970      1.0  0.95351  0.92016  0.07684  1.0000
  H   H3849     1.0  0.83616  0.95440  0.20254  1.0000
  C   C2411     1.0  0.96734  0.92238  0.12163  1.0000
  H   H3850     1.0  0.93955  0.51737  0.13308  1.0000
  H   H3851     1.0  0.97062  0.54986  0.12444  1.0000
  H   H3852     1.0  0.88409  0.92165  0.08971  1.0000
  N   N240      1.0  0.89995  0.73916  0.02590  1.0000
  C   C2412     1.0  0.91302  0.72476  0.03547  1.0000
  C   C2413     1.0  0.89751  0.75632  0.03229  1.0000
  C   C2414     1.0  0.88198  0.73362  0.02987  1.0000
  C   C2415     1.0  0.90733  0.74204  0.00597  1.0000
  H   H3853     1.0  0.91522  0.71157  0.03105  1.0000
  H   H3854     1.0  0.90802  0.72239  0.05056  1.0000
  H   H3855     1.0  0.92672  0.72865  0.03259  1.0000
  H   H3856     1.0  0.88823  0.76765  0.02496  1.0000
  H   H3857     1.0  0.89147  0.75487  0.04717  1.0000
  H   H3858     1.0  0.91085  0.76066  0.02993  1.0000
  H   H3859     1.0  0.87184  0.74436  0.02293  1.0000
  H   H3860     1.0  0.87597  0.73130  0.04478  1.0000
  H   H3861     1.0  0.81004  0.53628  0.17794  1.0000
  H   H3862     1.0  0.95456  0.62421  0.16056  1.0000
  Fe  Fe491     1.0  0.93316  0.47565  0.15787  1.0000
  S   S971      1.0  0.94965  0.75818  0.01589  1.0000
  H   H3863     1.0  0.81948  0.64309  0.11125  1.0000
  H   H3864     1.0  0.85640  0.61919  0.14864  1.0000
  C   C2416     1.0  0.95568  0.75412  0.03737  1.0000
  H   H3865     1.0  0.74027  0.69725  0.10475  1.0000
  C   C2417     1.0  0.95522  0.65297  0.19750  1.0000
  C   C2418     1.0  0.74468  0.58142  0.12437  1.0000
  C   C2419     1.0  0.93034  0.94819  0.05850  1.0000
  C   C2420     1.0  0.94224  0.51247  0.17385  1.0000
  C   C2421     1.0  0.92002  0.54596  0.18035  1.0000
  H   H3866     1.0  0.94098  0.94742  0.04632  1.0000
  C   C2422     1.0  0.77189  0.67787  0.07171  1.0000
  H   H3867     1.0  0.76512  0.64073  0.10548  1.0000
  C   C2423     1.0  0.81882  0.67955  0.10444  1.0000
  H   H3868     1.0  0.96444  0.52320  0.17711  1.0000
  C   C2424     1.0  0.95572  0.85266  0.00233  1.0000
  H   H3869     1.0  0.86741  0.94233  0.08569  1.0000
  C   C2425     1.0  0.84953  0.61436  0.16247  1.0000
  C   C2426     1.0  0.80580  0.65249  0.11225  1.0000
  Fe  Fe492     1.0  0.92079  0.81374  0.97480  1.0000
  C   C2427     1.0  0.75556  0.71362  0.98139  1.0000
  H   H3870     1.0  0.96349  0.88199  0.03300  1.0000
  S   S972      1.0  0.77727  0.59507  0.17828  1.0000
  S   S973      1.0  0.74395  0.74811  0.98939  1.0000
  C   C2428     1.0  0.96139  0.87382  0.02442  1.0000
  C   C2429     1.0  0.97455  0.87062  0.00874  1.0000
  C   C2430     1.0  0.97537  0.51331  0.13229  1.0000
  C   C2431     1.0  0.82570  0.56552  0.16119  1.0000
  H   H3871     1.0  0.79716  0.81673  0.03884  1.0000
  H   H3872     1.0  0.77149  0.89321  0.13208  1.0000
  H   H3873     1.0  0.83844  0.53170  0.15415  1.0000
  C   C2432     1.0  0.76375  0.65487  0.09864  1.0000
  H   H3874     1.0  0.83566  0.57296  0.15069  1.0000
  H   H3875     1.0  0.81455  0.68365  0.09093  1.0000
  S   S974      1.0  0.77486  0.61465  0.13560  1.0000
  C   C2433     1.0  0.85866  0.61116  0.17701  1.0000
  H   H3876     1.0  0.75816  0.70561  0.07328  1.0000
  Fe  Fe493     1.0  0.78995  0.61601  0.15646  1.0000
  S   S975      1.0  0.90929  0.60434  0.17909  1.0000
  Fe  Fe494     1.0  0.91988  0.62482  0.18780  1.0000
  S   S976      1.0  0.75495  0.73276  0.03787  1.0000
  H   H3877     1.0  0.86109  0.76487  0.97957  1.0000
  H   H3878     1.0  0.81889  0.81537  0.02299  1.0000
  C   C2434     1.0  0.75187  0.66844  0.10742  1.0000
  H   H3879     1.0  0.84050  0.92575  0.07500  1.0000
  C   C2435     1.0  0.75108  0.65302  0.21288  1.0000
  C   C2436     1.0  0.93887  0.54270  0.18003  1.0000
  S   S977      1.0  0.76981  0.63972  0.16622  1.0000
  C   C2437     1.0  0.94989  0.52583  0.17707  1.0000
  H   H3880     1.0  0.95090  0.49966  0.17141  1.0000
  H   H3881     1.0  0.75656  0.66635  0.00637  1.0000
  C   C2438     1.0  0.81211  0.66394  0.13600  1.0000
  C   C2439     1.0  0.75026  0.56579  0.13706  1.0000
  H   H3882     1.0  0.87387  0.90074  0.05578  1.0000
  C   C2440     1.0  0.75967  0.69145  0.08025  1.0000
  C   C2441     1.0  0.83105  0.94409  0.21452  1.0000
  H   H3883     1.0  0.89226  0.95120  0.10234  1.0000
  N   N241      1.0  0.81677  0.55556  0.15291  1.0000
  H   H3884     1.0  0.94304  0.53703  0.13929  1.0000
  C   C2442     1.0  0.80333  0.54637  0.16728  1.0000
  H   H3885     1.0  0.85992  0.92136  0.09727  1.0000
  C   C2443     1.0  0.82272  0.60534  0.18378  1.0000
  H   H3886     1.0  0.81545  0.57595  0.16807  1.0000
  S   S978      1.0  0.81015  0.97167  0.13211  1.0000
  C   C2444     1.0  0.75671  0.89242  0.13695  1.0000
  H   H3887     1.0  0.73885  0.77998  0.03257  1.0000
  H   H3888     1.0  0.79248  0.55638  0.17425  1.0000
  H   H3889     1.0  0.80642  0.83673  0.06397  1.0000
  H   H3890     1.0  0.94134  0.76785  0.07822  1.0000
  C   C2445     1.0  0.74202  0.66844  0.01393  1.0000
  C   C2446     1.0  0.97191  0.74180  0.04080  1.0000
  C   C2447     1.0  0.75341  0.91128  0.15873  1.0000
  H   H3891     1.0  0.74587  0.59468  0.12573  1.0000
  C   C2448     1.0  0.83087  0.54177  0.14408  1.0000
  C   C2449     1.0  0.83202  0.60169  0.19822  1.0000
  H   H3892     1.0  0.94746  0.82224  0.04954  1.0000
  H   H3893     1.0  0.82952  0.85707  0.03067  1.0000
  H   H3894     1.0  0.77708  0.67298  0.13036  1.0000
  C   C2450     1.0  0.94523  0.53011  0.12763  1.0000
  H   H3895     1.0  0.74004  0.53392  0.11936  1.0000
  S   S979      1.0  0.75688  0.92900  0.07284  1.0000
  H   H3896     1.0  0.75075  0.80005  0.00381  1.0000
  H   H3897     1.0  0.81819  0.81104  0.04712  1.0000
  H   H3898     1.0  0.83681  0.83402  0.04244  1.0000
  H   H3899     1.0  0.78563  0.84204  0.05534  1.0000
  C   C2451     1.0  0.82944  0.84249  0.03145  1.0000
  C   C2452     1.0  0.97735  0.73919  0.05757  1.0000
  C   C2453     1.0  0.81118  0.81977  0.03599  1.0000
  H   H3900     1.0  0.78731  0.84808  0.02161  1.0000
  S   S980      1.0  0.98067  0.92390  0.02225  1.0000
  H   H3901     1.0  0.81923  0.94032  0.21137  1.0000
  H   H3902     1.0  0.74548  0.92359  0.16428  1.0000
  H   H3903     1.0  0.80881  0.60320  0.18655  1.0000
  Fe  Fe495     1.0  0.75555  0.61865  0.18647  1.0000
  H   H3904     1.0  0.93182  0.77234  0.04877  1.0000
  C   C2454     1.0  0.79988  0.84462  0.05224  1.0000
  C   C2455     1.0  0.80151  0.85038  0.01963  1.0000
  C   C2456     1.0  0.94457  0.76324  0.05103  1.0000
  H   H3905     1.0  0.76643  0.71185  0.98863  1.0000
  N   N242      1.0  0.81049  0.83933  0.03484  1.0000
  H   H3906     1.0  0.79600  0.53909  0.16142  1.0000
  H   H3907     1.0  0.80927  0.84686  0.00627  1.0000
  H   H3908     1.0  0.75439  0.68055  0.21051  1.0000
  H   H3909     1.0  0.81247  0.67615  0.14103  1.0000
  C   C2457     1.0  0.84995  0.60475  0.19492  1.0000
  C   C2458     1.0  0.94993  0.76058  0.06777  1.0000
  C   C2459     1.0  0.80713  0.56860  0.13906  1.0000
  N   N243      1.0  0.80602  0.66915  0.11832  1.0000
  H   H3910     1.0  0.82611  0.65510  0.13488  1.0000
  H   H3911     1.0  0.84118  0.54829  0.13313  1.0000
  H   H3912     1.0  0.97865  0.77834  0.04098  1.0000
  H   H3913     1.0  0.78259  0.68520  0.10729  1.0000
  H   H3914     1.0  0.78674  0.69306  0.12561  1.0000
  H   H3915     1.0  0.95354  0.84460  0.99370  1.0000
  S   S981      1.0  0.75965  0.56718  0.15524  1.0000
  C   C2460     1.0  0.96738  0.67162  0.13817  1.0000
  H   H3916     1.0  0.88395  0.92991  0.04015  1.0000
  H   H3917     1.0  0.79863  0.85942  0.05174  1.0000
  H   H3918     1.0  0.83327  0.55614  0.17162  1.0000
  H   H3919     1.0  0.84776  0.94675  0.06327  1.0000
  C   C2461     1.0  0.75144  0.65940  0.04310  1.0000
  H   H3920     1.0  0.96527  0.91044  0.13299  1.0000
  H   H3921     1.0  0.76694  0.47747  0.07896  1.0000
  C   C2462     1.0  0.74672  0.92512  0.12873  1.0000
  S   S982      1.0  0.74063  0.66305  0.13034  1.0000
  H   H3922     1.0  0.80009  0.56163  0.13257  1.0000
  H   H3923     1.0  0.96905  0.78757  0.07095  1.0000
  Fe  Fe496     1.0  0.74371  0.90457  0.07808  1.0000
  H   H3924     1.0  0.73882  0.70248  0.01932  1.0000
  H   H3925     1.0  0.97588  0.83369  0.04368  1.0000
  Fe  Fe497     1.0  0.89091  0.60229  0.20699  1.0000
  H   H3926     1.0  0.95349  0.64163  0.19197  1.0000
  H   H3927     1.0  0.74061  0.83107  0.07684  1.0000
  C   C2463     1.0  0.97895  0.63262  0.21248  1.0000
  S   S983      1.0  0.94245  0.60430  0.19959  1.0000
  S   S984      1.0  0.75740  0.77002  0.06238  1.0000
  C   C2464     1.0  0.73960  0.79809  0.99803  1.0000
  C   C2465     1.0  0.97167  0.86008  0.99766  1.0000
  H   H3928     1.0  0.96174  0.50469  0.10732  1.0000
  H   H3929     1.0  0.74984  0.66278  0.05671  1.0000
  H   H3930     1.0  0.75163  0.65460  0.19844  1.0000
  H   H3931     1.0  0.73658  0.81027  0.98711  1.0000
  C   C2466     1.0  0.74819  0.80419  0.07033  1.0000
  C   C2467     1.0  0.74662  0.82326  0.06618  1.0000
  S   S985      1.0  0.73738  0.61728  0.16821  1.0000
  C   C2468     1.0  0.74860  0.54867  0.13518  1.0000
  H   H3932     1.0  0.95428  0.81480  0.02814  1.0000
  C   C2469     1.0  0.74125  0.54717  0.12074  1.0000
  H   H3933     1.0  0.75291  0.53653  0.14495  1.0000
  C   C2470     1.0  0.74698  0.69112  0.02790  1.0000
  S   S986      1.0  0.86063  0.60128  0.21356  1.0000
  C   C2471     1.0  0.74301  0.73023  0.97926  1.0000
  H   H3934     1.0  0.74621  0.69540  0.04089  1.0000
  H   H3935     1.0  0.74734  0.64598  0.04554  1.0000
  H   H3936     1.0  0.94821  0.79897  0.04896  1.0000
  N   N244      1.0  0.96492  0.52607  0.11892  1.0000
  H   H3937     1.0  0.92794  0.47352  0.19756  1.0000
  H   H3938     1.0  0.98068  0.91848  0.98425  1.0000
  H   H3939     1.0  0.76801  0.91290  0.15388  1.0000
  C   C2472     1.0  0.95534  0.81063  0.04282  1.0000
  S   S987      1.0  0.97338  0.74730  0.09151  1.0000
  H   H3940     1.0  0.75301  0.89925  0.17029  1.0000
  C   C2473     1.0  0.98047  0.92326  0.96939  1.0000
  H   H3941     1.0  0.74517  0.78602  0.99135  1.0000
  H   H3942     1.0  0.97407  0.96554  0.20028  1.0000
  H   H3943     1.0  0.75581  0.87983  0.14776  1.0000
  H   H3944     1.0  0.97995  0.93804  0.08715  1.0000
  C   C2474     1.0  0.97592  0.63859  0.14429  1.0000
  H   H3945     1.0  0.95956  0.52686  0.09255  1.0000
  H   H3946     1.0  0.97766  0.62107  0.20692  1.0000
  N   N245      1.0  0.97423  0.65039  0.20012  1.0000
  H   H3947     1.0  0.97204  0.67893  0.19927  1.0000
  N   N246      1.0  0.97472  0.80577  0.04492  1.0000
  H   H3948     1.0  0.96804  0.81072  0.07232  1.0000
  H   H3949     1.0  0.98182  0.51396  0.09643  1.0000
  H   H3950     1.0  0.96448  0.55318  0.10263  1.0000
  H   H3951     1.0  0.91163  0.97014  0.04497  1.0000
  H   H3952     1.0  0.82101  0.66084  0.21082  1.0000
  H   H3953     1.0  0.98404  0.90412  0.09445  1.0000
  H   H3954     1.0  0.83725  0.47303  0.09400  1.0000
  H   H3955     1.0  0.98055  0.73464  0.03030  1.0000
  H   H3956     1.0  0.98181  0.85761  0.98549  1.0000
  H   H3957     1.0  0.98332  0.82658  0.02215  1.0000
  C   C2475     1.0  0.98336  0.82192  0.03704  1.0000
  H   H3958     1.0  0.98416  0.79468  0.02042  1.0000
  H   H3959     1.0  0.94048  0.49844  0.21492  1.0000
  H   H3960     1.0  0.92319  0.63741  0.23761  1.0000
  H   H3961     1.0  0.73564  0.78908  0.31306  1.0000
  H   H3962     1.0  0.80474  0.61736  0.25399  1.0000
  H   H3963     1.0  0.84669  0.96746  0.22382  1.0000
  H   H3964     1.0  0.76468  0.77874  0.29230  1.0000
  C   C2476     1.0  0.75038  0.90532  0.28498  1.0000
  H   H3965     1.0  0.74849  0.96956  0.39323  1.0000
  C   C2477     1.0  0.95066  0.87227  0.43081  1.0000
  Fe  Fe498     1.0  0.96499  0.65786  0.32986  1.0000
  S   S988      1.0  0.94256  0.65924  0.35516  1.0000
  C   C2478     1.0  0.92740  0.49357  0.22160  1.0000
  S   S989      1.0  0.96801  0.68020  0.30489  1.0000
  Fe  Fe499     1.0  0.74693  0.68131  0.31417  1.0000
  H   H3966     1.0  0.90923  0.80250  0.45010  1.0000
  H   H3967     1.0  0.83010  0.92471  0.24906  1.0000
  H   H3968     1.0  0.89912  0.64287  0.33738  1.0000
  H   H3969     1.0  0.79587  0.95996  0.36570  1.0000
  H   H3970     1.0  0.91386  0.68495  0.30700  1.0000
  H   H3971     1.0  0.85341  0.94457  0.23604  1.0000
  S   S990      1.0  0.82177  0.68195  0.43266  1.0000
  S   S991      1.0  0.93029  0.59852  0.25268  1.0000
  C   C2479     1.0  0.90727  0.65365  0.33039  1.0000
  H   H3972     1.0  0.84236  0.71717  0.45108  1.0000
  H   H3973     1.0  0.97934  0.95787  0.29747  1.0000
  H   H3974     1.0  0.93020  0.63586  0.30477  1.0000
  H   H3975     1.0  0.91061  0.84055  0.42734  1.0000
  Fe  Fe500     1.0  0.84611  0.72243  0.37298  1.0000
  S   S992      1.0  0.82475  0.74840  0.36927  1.0000
  S   S993      1.0  0.87057  0.72054  0.34957  1.0000
  Fe  Fe501     1.0  0.82364  0.70636  0.40923  1.0000
  S   S994      1.0  0.80093  0.73094  0.40798  1.0000
  H   H3976     1.0  0.92085  0.67554  0.28662  1.0000
  Fe  Fe502     1.0  0.80452  0.72973  0.37857  1.0000
  S   S995      1.0  0.77852  0.73419  0.36775  1.0000
  Fe  Fe503     1.0  0.82330  0.74710  0.39900  1.0000
  S   S996      1.0  0.81675  0.77150  0.41244  1.0000
  S   S997      1.0  0.82585  0.70383  0.38029  1.0000
  S   S998      1.0  0.84614  0.72252  0.40218  1.0000
  Fe  Fe504     1.0  0.75762  0.93826  0.33880  1.0000
  H   H3977     1.0  0.92142  0.81816  0.45341  1.0000
  Fe  Fe505     1.0  0.79802  0.92162  0.33797  1.0000
  S   S999      1.0  0.82092  0.91418  0.35364  1.0000
  Fe  Fe506     1.0  0.77703  0.90974  0.31575  1.0000
  S   S1000     1.0  0.77325  0.88463  0.30822  1.0000
  S   S1001     1.0  0.80376  0.91947  0.30842  1.0000
  S   S1002     1.0  0.77287  0.90941  0.34570  1.0000
  Fe  Fe507     1.0  0.87470  0.86067  0.44702  1.0000
  S   S1003     1.0  0.75271  0.68468  0.24683  1.0000
  S   S1004     1.0  0.89615  0.87787  0.43342  1.0000
  Fe  Fe508     1.0  0.86415  0.82455  0.44947  1.0000
  H   H3978     1.0  0.73734  0.90260  0.32534  1.0000
  S   S1005     1.0  0.87552  0.79822  0.43901  1.0000
  Fe  Fe509     1.0  0.83531  0.85975  0.44696  1.0000
  S   S1006     1.0  0.80923  0.87274  0.43630  1.0000
  H   H3979     1.0  0.74712  0.72607  0.35991  1.0000
  S   S1007     1.0  0.86218  0.85080  0.42878  1.0000
  C   C2480     1.0  0.74996  0.87300  0.29373  1.0000
  H   H3980     1.0  0.74767  0.64808  0.26495  1.0000
  S   S1008     1.0  0.78253  0.95063  0.33349  1.0000
  Fe  Fe510     1.0  0.78615  0.94759  0.30457  1.0000
  H   H3981     1.0  0.76717  0.69759  0.41464  1.0000
  H   H3982     1.0  0.77348  0.75470  0.29293  1.0000
  H   H3983     1.0  0.94891  0.82480  0.40589  1.0000
  C   C2481     1.0  0.81734  0.90264  0.37659  1.0000
  C   C2482     1.0  0.83162  0.89874  0.38619  1.0000
  C   C2483     1.0  0.82919  0.88970  0.40459  1.0000
  C   C2484     1.0  0.81235  0.88476  0.41353  1.0000
  C   C2485     1.0  0.79800  0.88878  0.40400  1.0000
  C   C2486     1.0  0.80058  0.89746  0.38548  1.0000
  H   H3984     1.0  0.84462  0.90273  0.37937  1.0000
  H   H3985     1.0  0.84028  0.88677  0.41189  1.0000
  H   H3986     1.0  0.78501  0.88481  0.41086  1.0000
  H   H3987     1.0  0.78963  0.90004  0.37811  1.0000
  C   C2487     1.0  0.75925  0.96202  0.40131  1.0000
  C   C2488     1.0  0.88916  0.66582  0.30695  1.0000
  H   H3988     1.0  0.93965  0.78690  0.42048  1.0000
  C   C2489     1.0  0.91250  0.82915  0.42019  1.0000
  S   S1009     1.0  0.74593  0.61806  0.21679  1.0000
  C   C2490     1.0  0.79924  0.65405  0.24408  1.0000
  C   C2491     1.0  0.82550  0.64762  0.21992  1.0000
  H   H3989     1.0  0.78570  0.63181  0.23091  1.0000
  H   H3990     1.0  0.96631  0.66548  0.22183  1.0000
  H   H3991     1.0  0.82567  0.62477  0.25251  1.0000
  H   H3992     1.0  0.94403  0.83169  0.42740  1.0000
  C   C2492     1.0  0.79908  0.74216  0.46062  1.0000
  C   C2493     1.0  0.92177  0.85589  0.45321  1.0000
  Fe  Fe511     1.0  0.97269  0.65771  0.28951  1.0000
  H   H3993     1.0  0.91551  0.79366  0.42018  1.0000
  C   C2494     1.0  0.78348  0.96650  0.37470  1.0000
  H   H3994     1.0  0.78426  0.93208  0.41223  1.0000
  H   H3995     1.0  0.98413  0.92204  0.32622  1.0000
  C   C2495     1.0  0.83342  0.77745  0.42067  1.0000
  C   C2496     1.0  0.85213  0.76972  0.41637  1.0000
  C   C2497     1.0  0.86503  0.77582  0.42241  1.0000
  C   C2498     1.0  0.85924  0.78967  0.43267  1.0000
  C   C2499     1.0  0.84048  0.79694  0.43733  1.0000
  C   C2500     1.0  0.82763  0.79080  0.43142  1.0000
  H   H3996     1.0  0.85671  0.75938  0.40807  1.0000
  H   H3997     1.0  0.87954  0.77006  0.41880  1.0000
  H   H3998     1.0  0.83584  0.80745  0.44537  1.0000
  H   H3999     1.0  0.81313  0.79665  0.43498  1.0000
  C   C2501     1.0  0.77646  0.71706  0.35744  1.0000
  C   C2502     1.0  0.93974  0.84941  0.45638  1.0000
  C   C2503     1.0  0.91586  0.64164  0.30268  1.0000
  C   C2504     1.0  0.77267  0.69069  0.33989  1.0000
  C   C2505     1.0  0.78990  0.69096  0.34289  1.0000
  C   C2506     1.0  0.79183  0.70424  0.35148  1.0000
  H   H4000     1.0  0.82363  0.95361  0.29833  1.0000
  H   H4001     1.0  0.80186  0.68117  0.33811  1.0000
  H   H4002     1.0  0.80528  0.70481  0.35304  1.0000
  H   H4003     1.0  0.88001  0.65578  0.31329  1.0000
  H   H4004     1.0  0.90227  0.47359  0.22431  1.0000
  H   H4005     1.0  0.78787  0.70880  0.43929  1.0000
  N   N247      1.0  0.92717  0.81378  0.42589  1.0000
  S   S1010     1.0  0.97666  0.84857  0.44897  1.0000
  H   H4006     1.0  0.92130  0.64858  0.33355  1.0000
  H   H4007     1.0  0.93331  0.79551  0.45070  1.0000
  H   H4008     1.0  0.96573  0.62481  0.28046  1.0000
  C   C2507     1.0  0.74395  0.74316  0.31571  1.0000
  H   H4009     1.0  0.91565  0.83482  0.40525  1.0000
  C   C2508     1.0  0.84171  0.95643  0.23496  1.0000
  H   H4010     1.0  0.90767  0.63079  0.30909  1.0000
  H   H4011     1.0  0.78216  0.93290  0.37282  1.0000
  C   C2509     1.0  0.75913  0.71642  0.35496  1.0000
  H   H4012     1.0  0.73819  0.76884  0.25449  1.0000
  S   S1011     1.0  0.74399  0.66089  0.29936  1.0000
  H   H4013     1.0  0.91064  0.84975  0.46208  1.0000
  H   H4014     1.0  0.75948  0.94654  0.37392  1.0000
  C   C2510     1.0  0.76927  0.67067  0.39720  1.0000
  C   C2511     1.0  0.92307  0.67708  0.35421  1.0000
  C   C2512     1.0  0.90772  0.67661  0.36868  1.0000
  C   C2513     1.0  0.89155  0.69003  0.36762  1.0000
  C   C2514     1.0  0.89072  0.70396  0.35205  1.0000
  C   C2515     1.0  0.90613  0.70452  0.33771  1.0000
  C   C2516     1.0  0.92227  0.69119  0.33882  1.0000
  H   H4015     1.0  0.90826  0.66572  0.38065  1.0000
  H   H4016     1.0  0.87972  0.68952  0.37875  1.0000
  H   H4017     1.0  0.90558  0.71536  0.32570  1.0000
  H   H4018     1.0  0.93403  0.69185  0.32773  1.0000
  C   C2517     1.0  0.93804  0.61678  0.25609  1.0000
  C   C2518     1.0  0.93250  0.63468  0.24691  1.0000
  C   C2519     1.0  0.93878  0.64906  0.25001  1.0000
  C   C2520     1.0  0.95083  0.64555  0.26207  1.0000
  C   C2521     1.0  0.95633  0.62767  0.27126  1.0000
  C   C2522     1.0  0.94979  0.61335  0.26841  1.0000
  S   S1012     1.0  0.91090  0.57965  0.22062  1.0000
  C   C2523     1.0  0.78038  0.66179  0.42557  1.0000
  C   C2524     1.0  0.74843  0.63652  0.22480  1.0000
  H   H4019     1.0  0.95408  0.59950  0.27555  1.0000
  C   C2525     1.0  0.91825  0.87034  0.43861  1.0000
  C   C2526     1.0  0.92866  0.79873  0.41656  1.0000
  H   H4020     1.0  0.93188  0.80323  0.40142  1.0000
  C   C2527     1.0  0.93269  0.87865  0.42756  1.0000
  H   H4021     1.0  0.74543  0.62194  0.25282  1.0000
  C   C2528     1.0  0.77024  0.93963  0.38208  1.0000
  H   H4022     1.0  0.96968  0.63202  0.22618  1.0000
  H   H4023     1.0  0.83117  0.73675  0.43674  1.0000
  N   N248      1.0  0.82566  0.95132  0.23157  1.0000
  H   H4024     1.0  0.88285  0.67840  0.31270  1.0000
  C   C2529     1.0  0.82871  0.72520  0.44845  1.0000
  C   C2530     1.0  0.81067  0.96756  0.22969  1.0000
  S   S1013     1.0  0.95868  0.66375  0.26549  1.0000
  H   H4025     1.0  0.75127  0.75722  0.34129  1.0000
  H   H4026     1.0  0.80215  0.93585  0.39248  1.0000
  C   C2531     1.0  0.78958  0.94284  0.40092  1.0000
  H   H4027     1.0  0.89906  0.82480  0.42338  1.0000
  H   H4028     1.0  0.81498  0.94229  0.26020  1.0000
  H   H4029     1.0  0.85467  0.96089  0.29222  1.0000
  N   N249      1.0  0.74913  0.76100  0.31318  1.0000
  C   C2532     1.0  0.75724  0.70335  0.34607  1.0000
  C   C2533     1.0  0.73661  0.90790  0.27500  1.0000
  H   H4030     1.0  0.77223  0.74928  0.32644  1.0000
  C   C2534     1.0  0.81632  0.62311  0.24432  1.0000
  C   C2535     1.0  0.80177  0.66587  0.39664  1.0000
  H   H4031     1.0  0.93001  0.88993  0.41632  1.0000
  N   N250      1.0  0.81708  0.73188  0.46481  1.0000
  N   N251      1.0  0.93021  0.47342  0.22484  1.0000
  H   H4032     1.0  0.75502  0.67565  0.40436  1.0000
  H   H4033     1.0  0.80428  0.67371  0.38230  1.0000
  H   H4034     1.0  0.76658  0.66672  0.43367  1.0000
  N   N252      1.0  0.90797  0.65828  0.31044  1.0000
  C   C2536     1.0  0.75250  0.66774  0.21975  1.0000
  H   H4035     1.0  0.93377  0.66700  0.30445  1.0000
  H   H4036     1.0  0.80388  0.65120  0.39607  1.0000
  C   C2537     1.0  0.82697  0.96533  0.28798  1.0000
  H   H4037     1.0  0.75600  0.91679  0.28513  1.0000
  H   H4038     1.0  0.90082  0.66579  0.33676  1.0000
  H   H4039     1.0  0.93427  0.66293  0.24307  1.0000
  H   H4040     1.0  0.77047  0.65619  0.39642  1.0000
  C   C2538     1.0  0.73618  0.87557  0.28368  1.0000
  C   C2539     1.0  0.92260  0.80719  0.44591  1.0000
  H   H4041     1.0  0.74386  0.70298  0.34407  1.0000
  C   C2540     1.0  0.81918  0.93719  0.24714  1.0000
  C   C2541     1.0  0.75695  0.88791  0.29454  1.0000
  H   H4042     1.0  0.91634  0.64458  0.28769  1.0000
  H   H4043     1.0  0.79827  0.96410  0.22740  1.0000
  H   H4044     1.0  0.96599  0.94179  0.32857  1.0000
  C   C2542     1.0  0.79743  0.63775  0.22184  1.0000
  C   C2543     1.0  0.74727  0.63477  0.24358  1.0000
  H   H4045     1.0  0.80701  0.93304  0.24516  1.0000
  H   H4046     1.0  0.82215  0.71615  0.44399  1.0000
  H   H4047     1.0  0.79381  0.66742  0.23568  1.0000
  H   H4048     1.0  0.95620  0.80895  0.42545  1.0000
  C   C2544     1.0  0.94486  0.82003  0.42093  1.0000
  C   C2545     1.0  0.80398  0.68408  0.45209  1.0000
  H   H4049     1.0  0.82428  0.61271  0.23603  1.0000
  H   H4050     1.0  0.75505  0.85948  0.30105  1.0000
  S   S1014     1.0  0.74480  0.70472  0.29024  1.0000
  S   S1015     1.0  0.84749  0.87203  0.46353  1.0000
  C   C2546     1.0  0.95423  0.85749  0.44509  1.0000
  C   C2547     1.0  0.78103  0.69199  0.40715  1.0000
  H   H4051     1.0  0.97919  0.53772  0.32533  1.0000
  C   C2548     1.0  0.91958  0.67206  0.30176  1.0000
  N   N253      1.0  0.82759  0.83598  0.38895  1.0000
  C   C2549     1.0  0.84655  0.82513  0.38786  1.0000
  C   C2550     1.0  0.82755  0.85302  0.37488  1.0000
  C   C2551     1.0  0.82069  0.84062  0.40726  1.0000
  C   C2552     1.0  0.81559  0.82517  0.38586  1.0000
  H   H4052     1.0  0.84702  0.81207  0.39812  1.0000
  H   H4053     1.0  0.85591  0.83272  0.39051  1.0000
  H   H4054     1.0  0.85230  0.82155  0.37415  1.0000
  H   H4055     1.0  0.83282  0.85014  0.36085  1.0000
  H   H4056     1.0  0.81343  0.86150  0.37525  1.0000
  H   H4057     1.0  0.83627  0.86163  0.37700  1.0000
  H   H4058     1.0  0.80661  0.84926  0.40847  1.0000
  H   H4059     1.0  0.82976  0.84825  0.41031  1.0000
  H   H4060     1.0  0.81996  0.82824  0.41824  1.0000
  H   H4061     1.0  0.82038  0.82141  0.37215  1.0000
  H   H4062     1.0  0.80114  0.83288  0.38671  1.0000
  H   H4063     1.0  0.81537  0.81216  0.39621  1.0000
  H   H4064     1.0  0.88922  0.66956  0.29201  1.0000
  H   H4065     1.0  0.77096  0.67875  0.38290  1.0000
  H   H4066     1.0  0.75290  0.95207  0.41279  1.0000
  C   C2553     1.0  0.75958  0.76020  0.32720  1.0000
  Fe  Fe512     1.0  0.92164  0.60205  0.22586  1.0000
  H   H4067     1.0  0.79193  0.73348  0.45637  1.0000
  S   S1016     1.0  0.96773  0.63576  0.31449  1.0000
  H   H4068     1.0  0.79390  0.95225  0.40714  1.0000
  C   C2554     1.0  0.76066  0.76528  0.29477  1.0000
  H   H4069     1.0  0.80795  0.65666  0.25237  1.0000
  H   H4070     1.0  0.96177  0.87863  0.42211  1.0000
  C   C2555     1.0  0.78904  0.69880  0.45164  1.0000
  H   H4071     1.0  0.79137  0.69388  0.41400  1.0000
  S   S1017     1.0  0.75975  0.93772  0.30944  1.0000
  H   H4072     1.0  0.81254  0.66725  0.40335  1.0000
  N   N254      1.0  0.78309  0.67255  0.40664  1.0000
  H   H4073     1.0  0.98008  0.93265  0.34552  1.0000
  H   H4074     1.0  0.78305  0.70052  0.39315  1.0000
  H   H4075     1.0  0.83829  0.96145  0.24797  1.0000
  S   S1018     1.0  0.77077  0.67427  0.32862  1.0000
  S   S1019     1.0  0.79245  0.97045  0.28077  1.0000
  H   H4076     1.0  0.76465  0.92875  0.39298  1.0000
  C   C2556     1.0  0.74853  0.64953  0.25046  1.0000
  H   H4077     1.0  0.76394  0.77335  0.32558  1.0000
  C   C2557     1.0  0.75100  0.66608  0.23856  1.0000
  H   H4078     1.0  0.78165  0.64705  0.42580  1.0000
  H   H4079     1.0  0.78713  0.64921  0.25375  1.0000
  H   H4080     1.0  0.76272  0.97218  0.40726  1.0000
  H   H4081     1.0  0.79081  0.66282  0.43291  1.0000
  H   H4082     1.0  0.92205  0.49867  0.23460  1.0000
  N   N255      1.0  0.77563  0.95276  0.38979  1.0000
  C   C2558     1.0  0.84455  0.96944  0.28446  1.0000
  N   N256      1.0  0.80962  0.64064  0.23254  1.0000
  H   H4083     1.0  0.83511  0.64980  0.22753  1.0000
  H   H4084     1.0  0.75629  0.73194  0.31443  1.0000
  H   H4085     1.0  0.75319  0.76596  0.28387  1.0000
  H   H4086     1.0  0.82851  0.75604  0.45872  1.0000
  Fe  Fe513     1.0  0.73933  0.68475  0.27642  1.0000
  H   H4087     1.0  0.80066  0.75419  0.44921  1.0000
  C   C2559     1.0  0.98028  0.93544  0.33055  1.0000
  H   H4088     1.0  0.73507  0.73956  0.32937  1.0000
  H   H4089     1.0  0.73606  0.74324  0.30538  1.0000
  H   H4090     1.0  0.84222  0.93172  0.21545  1.0000
  H   H4091     1.0  0.98351  0.54402  0.34462  1.0000
  C   C2560     1.0  0.91390  0.55087  0.69578  1.0000
  Fe  Fe514     1.0  0.85546  0.91717  0.59864  1.0000
  S   S1020     1.0  0.86326  0.92177  0.56799  1.0000
  S   S1021     1.0  0.86302  0.93377  0.61517  1.0000
  Fe  Fe515     1.0  0.82783  0.89398  0.60039  1.0000
  S   S1022     1.0  0.83290  0.89720  0.56997  1.0000
  S   S1023     1.0  0.80548  0.87940  0.61816  1.0000
  Fe  Fe516     1.0  0.86263  0.89209  0.57145  1.0000
  S   S1024     1.0  0.88297  0.87575  0.55180  1.0000
  Fe  Fe517     1.0  0.83314  0.92633  0.56885  1.0000
  S   S1025     1.0  0.82091  0.94963  0.54860  1.0000
  S   S1026     1.0  0.85770  0.88673  0.60230  1.0000
  S   S1027     1.0  0.82506  0.92392  0.59912  1.0000
  S   S1028     1.0  0.84168  0.84024  0.51231  1.0000
  Fe  Fe518     1.0  0.81235  0.51151  0.59604  1.0000
  S   S1029     1.0  0.83222  0.51966  0.60795  1.0000
  S   S1030     1.0  0.79226  0.53155  0.57999  1.0000
  C   C2561     1.0  0.80777  0.49381  0.71409  1.0000
  H   H4092     1.0  0.96791  0.95605  0.70445  1.0000
  Fe  Fe519     1.0  0.81975  0.50352  0.63452  1.0000
  C   C2562     1.0  0.95880  0.87552  0.48264  1.0000
  Fe  Fe520     1.0  0.85047  0.49277  0.60338  1.0000
  S   S1031     1.0  0.88104  0.49185  0.59615  1.0000
  C   C2563     1.0  0.84043  0.49186  0.71031  1.0000
  H   H4093     1.0  0.82267  0.75541  0.67228  1.0000
  S   S1032     1.0  0.86763  0.54486  0.68646  1.0000
  Fe  Fe521     1.0  0.79828  0.77818  0.63176  1.0000
  S   S1033     1.0  0.80852  0.74916  0.62845  1.0000
  S   S1034     1.0  0.82069  0.79454  0.61981  1.0000
  C   C2564     1.0  0.83304  0.54103  0.68615  1.0000
  S   S1035     1.0  0.76787  0.74099  0.64978  1.0000
  Fe  Fe522     1.0  0.79411  0.74172  0.65757  1.0000
  S   S1036     1.0  0.81065  0.71964  0.67592  1.0000
  Fe  Fe523     1.0  0.78163  0.75126  0.62083  1.0000
  S   S1037     1.0  0.78188  0.74361  0.59426  1.0000
  S   S1038     1.0  0.78559  0.77067  0.66145  1.0000
  S   S1039     1.0  0.77236  0.78109  0.62187  1.0000
  H   H4094     1.0  0.97716  0.86284  0.52087  1.0000
  H   H4095     1.0  0.76269  0.59378  0.53874  1.0000
  H   H4096     1.0  0.78198  0.95837  0.61434  1.0000
  S   S1040     1.0  0.77799  0.66444  0.54831  1.0000
  H   H4097     1.0  0.90048  0.55427  0.69130  1.0000
  H   H4098     1.0  0.94082  0.49528  0.53227  1.0000
  H   H4099     1.0  0.80568  0.78409  0.68252  1.0000
  Fe  Fe524     1.0  0.77726  0.63485  0.55109  1.0000
  S   S1041     1.0  0.80315  0.61327  0.55222  1.0000
  H   H4100     1.0  0.96352  0.88123  0.46788  1.0000
  H   H4101     1.0  0.96615  0.94824  0.60125  1.0000
  H   H4102     1.0  0.91508  0.50548  0.71262  1.0000
  C   C2565     1.0  0.82869  0.71540  0.70358  1.0000
  H   H4103     1.0  0.94244  0.83808  0.46757  1.0000
  N   N257      1.0  0.74409  0.57784  0.53677  1.0000
  C   C2566     1.0  0.75849  0.96177  0.56387  1.0000
  Fe  Fe525     1.0  0.75900  0.66960  0.52879  1.0000
  S   S1042     1.0  0.94473  0.92386  0.62590  1.0000
  C   C2567     1.0  0.75780  0.69460  0.59502  1.0000
  H   H4104     1.0  0.76857  0.97056  0.59727  1.0000
  S   S1043     1.0  0.83622  0.83265  0.46644  1.0000
  C   C2568     1.0  0.76700  0.70382  0.57861  1.0000
  C   C2569     1.0  0.77467  0.71862  0.57860  1.0000
  C   C2570     1.0  0.77329  0.72419  0.59499  1.0000
  C   C2571     1.0  0.76429  0.71481  0.61142  1.0000
  H   H4105     1.0  0.97935  0.91421  0.57140  1.0000
  H   H4106     1.0  0.76798  0.69973  0.56590  1.0000
  H   H4107     1.0  0.78159  0.72584  0.56584  1.0000
  H   H4108     1.0  0.76313  0.71901  0.62410  1.0000
  C   C2572     1.0  0.94922  0.49389  0.49640  1.0000
  C   C2573     1.0  0.78700  0.97058  0.54624  1.0000
  H   H4109     1.0  0.79132  0.95773  0.59075  1.0000
  H   H4110     1.0  0.93143  0.51141  0.67994  1.0000
  H   H4111     1.0  0.80797  0.90836  0.52131  1.0000
  C   C2574     1.0  0.80015  0.73767  0.70479  1.0000
  H   H4112     1.0  0.82404  0.89385  0.53483  1.0000
  H   H4113     1.0  0.81785  0.74938  0.48228  1.0000
  H   H4114     1.0  0.82928  0.48250  0.68407  1.0000
  H   H4115     1.0  0.98329  0.89686  0.47720  1.0000
  H   H4116     1.0  0.76711  0.56054  0.52292  1.0000
  Fe  Fe526     1.0  0.73613  0.64229  0.55277  1.0000
  C   C2575     1.0  0.79568  0.55414  0.57280  1.0000
  C   C2576     1.0  0.81333  0.55804  0.56678  1.0000
  C   C2577     1.0  0.81552  0.57627  0.56038  1.0000
  C   C2578     1.0  0.80010  0.59060  0.56021  1.0000
  C   C2579     1.0  0.78249  0.58668  0.56689  1.0000
  C   C2580     1.0  0.78032  0.56848  0.57318  1.0000
  H   H4117     1.0  0.82526  0.54700  0.56660  1.0000
  H   H4118     1.0  0.82919  0.57927  0.55539  1.0000
  H   H4119     1.0  0.77056  0.59767  0.56721  1.0000
  H   H4120     1.0  0.76674  0.56542  0.57855  1.0000
  C   C2581     1.0  0.82652  0.52482  0.66593  1.0000
  C   C2582     1.0  0.82048  0.53464  0.68007  1.0000
  S   S1044     1.0  0.75975  0.69180  0.50334  1.0000
  C   C2583     1.0  0.85169  0.53793  0.67795  1.0000
  C   C2584     1.0  0.85765  0.52877  0.66325  1.0000
  C   C2585     1.0  0.84510  0.52209  0.65732  1.0000
  S   S1045     1.0  0.76048  0.63993  0.52953  1.0000
  H   H4121     1.0  0.84682  0.75240  0.66280  1.0000
  H   H4122     1.0  0.87206  0.52641  0.65675  1.0000
  H   H4123     1.0  0.84986  0.51459  0.64631  1.0000
  S   S1046     1.0  0.79843  0.49715  0.62308  1.0000
  C   C2586     1.0  0.80964  0.85586  0.61843  1.0000
  C   C2587     1.0  0.82645  0.84706  0.60943  1.0000
  C   C2588     1.0  0.82967  0.82820  0.61003  1.0000
  C   C2589     1.0  0.81605  0.81811  0.61947  1.0000
  C   C2590     1.0  0.79913  0.82689  0.62829  1.0000
  C   C2591     1.0  0.79599  0.84575  0.62784  1.0000
  H   H4124     1.0  0.83703  0.85477  0.60214  1.0000
  H   H4125     1.0  0.84278  0.82148  0.60315  1.0000
  H   H4126     1.0  0.78851  0.81920  0.63551  1.0000
  H   H4127     1.0  0.78294  0.85255  0.63477  1.0000
  C   C2592     1.0  0.88585  0.93094  0.61783  1.0000
  C   C2593     1.0  0.90005  0.91794  0.61034  1.0000
  C   C2594     1.0  0.91805  0.91592  0.61291  1.0000
  C   C2595     1.0  0.92197  0.92691  0.62294  1.0000
  C   C2596     1.0  0.90781  0.94002  0.63030  1.0000
  C   C2597     1.0  0.88980  0.94199  0.62777  1.0000
  H   H4128     1.0  0.89711  0.90934  0.60271  1.0000
  H   H4129     1.0  0.92893  0.90570  0.60725  1.0000
  H   H4130     1.0  0.91070  0.94850  0.63808  1.0000
  H   H4131     1.0  0.87885  0.95203  0.63363  1.0000
  C   C2598     1.0  0.87230  0.86450  0.54135  1.0000
  C   C2599     1.0  0.88001  0.86170  0.52348  1.0000
  C   C2600     1.0  0.87079  0.85412  0.51445  1.0000
  C   C2601     1.0  0.85391  0.84917  0.52336  1.0000
  C   C2602     1.0  0.84637  0.85172  0.54129  1.0000
  C   C2603     1.0  0.85555  0.85931  0.55027  1.0000
  H   H4132     1.0  0.89295  0.86573  0.51650  1.0000
  H   H4133     1.0  0.87670  0.85220  0.50059  1.0000
  H   H4134     1.0  0.83326  0.84808  0.54820  1.0000
  H   H4135     1.0  0.84972  0.86100  0.56419  1.0000
  C   C2604     1.0  0.79689  0.95362  0.55356  1.0000
  C   C2605     1.0  0.75646  0.70014  0.61141  1.0000
  S   S1047     1.0  0.81055  0.51558  0.66000  1.0000
  N   N258      1.0  0.95796  0.48128  0.51112  1.0000
  N   N259      1.0  0.97333  0.87282  0.49314  1.0000
  C   C2606     1.0  0.78756  0.94042  0.56550  1.0000
  H   H4136     1.0  0.73711  0.73945  0.58662  1.0000
  Fe  Fe527     1.0  0.85074  0.84411  0.48161  1.0000
  H   H4137     1.0  0.82762  0.70816  0.48372  1.0000
  H   H4138     1.0  0.79516  0.92727  0.57120  1.0000
  C   C2607     1.0  0.79112  0.67286  0.48416  1.0000
  C   C2608     1.0  0.77648  0.68791  0.48371  1.0000
  H   H4139     1.0  0.81705  0.80295  0.67816  1.0000
  C   C2609     1.0  0.92551  0.52624  0.67925  1.0000
  H   H4140     1.0  0.79204  0.66288  0.49676  1.0000
  C   C2610     1.0  0.84885  0.78788  0.65885  1.0000
  H   H4141     1.0  0.85003  0.79965  0.66413  1.0000
  C   C2611     1.0  0.98239  0.92898  0.71403  1.0000
  Fe  Fe528     1.0  0.75235  0.66489  0.57015  1.0000
  C   C2612     1.0  0.93954  0.52717  0.70381  1.0000
  H   H4142     1.0  0.82821  0.54844  0.69715  1.0000
  H   H4143     1.0  0.74158  0.57901  0.56491  1.0000
  N   N260      1.0  0.92207  0.53117  0.69733  1.0000
  C   C2613     1.0  0.75277  0.59404  0.53027  1.0000
  H   H4144     1.0  0.97255  0.96160  0.57886  1.0000
  H   H4145     1.0  0.92309  0.55943  0.68568  1.0000
  C   C2614     1.0  0.90918  0.52040  0.71053  1.0000
  H   H4146     1.0  0.83063  0.76728  0.64970  1.0000
  H   H4147     1.0  0.91249  0.52926  0.67404  1.0000
  C   C2615     1.0  0.83947  0.77108  0.68953  1.0000
  Fe  Fe529     1.0  0.97233  0.94087  0.67094  1.0000
  H   H4148     1.0  0.96145  0.92400  0.58824  1.0000
  N   N261      1.0  0.80112  0.56824  0.62410  1.0000
  C   C2616     1.0  0.79316  0.55415  0.62057  1.0000
  C   C2617     1.0  0.79670  0.58562  0.61109  1.0000
  C   C2618     1.0  0.82132  0.56220  0.62168  1.0000
  C   C2619     1.0  0.79335  0.57090  0.64305  1.0000
  H   H4149     1.0  0.79554  0.54105  0.63059  1.0000
  H   H4150     1.0  0.79947  0.55104  0.60680  1.0000
  H   H4151     1.0  0.77807  0.55857  0.62127  1.0000
  H   H4152     1.0  0.80225  0.59667  0.61348  1.0000
  H   H4153     1.0  0.80274  0.58407  0.59671  1.0000
  H   H4154     1.0  0.78159  0.59043  0.61209  1.0000
  H   H4155     1.0  0.82515  0.54891  0.63098  1.0000
  H   H4156     1.0  0.82779  0.57231  0.62458  1.0000
  H   H4157     1.0  0.82767  0.56032  0.60741  1.0000
  H   H4158     1.0  0.77813  0.57545  0.64533  1.0000
  H   H4159     1.0  0.79914  0.58132  0.64629  1.0000
  H   H4160     1.0  0.79646  0.55793  0.65312  1.0000
  H   H4161     1.0  0.96717  0.93742  0.56576  1.0000
  H   H4162     1.0  0.84084  0.93727  0.49196  1.0000
  Fe  Fe530     1.0  0.98010  0.96629  0.63383  1.0000
  C   C2620     1.0  0.77540  0.70073  0.46737  1.0000
  C   C2621     1.0  0.94492  0.48144  0.52887  1.0000
  S   S1048     1.0  0.98219  0.93601  0.64220  1.0000
  H   H4163     1.0  0.84123  0.50193  0.69715  1.0000
  H   H4164     1.0  0.84019  0.78236  0.69578  1.0000
  Fe  Fe531     1.0  0.76041  0.77076  0.65138  1.0000
  H   H4165     1.0  0.86261  0.77867  0.65707  1.0000
  H   H4166     1.0  0.85300  0.76143  0.68882  1.0000
  C   C2622     1.0  0.75853  0.56105  0.53683  1.0000
  S   S1049     1.0  0.75311  0.63483  0.57446  1.0000
  C   C2623     1.0  0.96653  0.86502  0.51255  1.0000
  C   C2624     1.0  0.78270  0.96674  0.60022  1.0000
  S   S1050     1.0  0.83177  0.48598  0.58871  1.0000
  H   H4167     1.0  0.80528  0.72061  0.49260  1.0000
  H   H4168     1.0  0.81850  0.96885  0.59088  1.0000
  N   N262      1.0  0.81517  0.80215  0.56645  1.0000
  C   C2625     1.0  0.83437  0.80179  0.56718  1.0000
  C   C2626     1.0  0.81359  0.80495  0.54717  1.0000
  C   C2627     1.0  0.80277  0.81732  0.57466  1.0000
  C   C2628     1.0  0.80996  0.78461  0.57677  1.0000
  H   H4169     1.0  0.84406  0.79027  0.56148  1.0000
  H   H4170     1.0  0.83599  0.80020  0.58148  1.0000
  H   H4171     1.0  0.83889  0.81464  0.55918  1.0000
  H   H4172     1.0  0.79934  0.80509  0.54607  1.0000
  H   H4173     1.0  0.81722  0.81818  0.53908  1.0000
  H   H4174     1.0  0.82301  0.79395  0.54042  1.0000
  H   H4175     1.0  0.78820  0.81821  0.57410  1.0000
  H   H4176     1.0  0.80658  0.83072  0.56751  1.0000
  H   H4177     1.0  0.80335  0.81549  0.58930  1.0000
  H   H4178     1.0  0.79545  0.78444  0.57681  1.0000
  H   H4179     1.0  0.81127  0.78198  0.59131  1.0000
  H   H4180     1.0  0.81885  0.77283  0.57088  1.0000
  N   N263      1.0  0.83544  0.91368  0.51269  1.0000
  C   C2629     1.0  0.84129  0.90110  0.49970  1.0000
  C   C2630     1.0  0.81998  0.90803  0.52713  1.0000
  C   C2631     1.0  0.82947  0.93253  0.50288  1.0000
  C   C2632     1.0  0.85101  0.91304  0.52109  1.0000
  H   H4181     1.0  0.82993  0.90128  0.49300  1.0000
  H   H4182     1.0  0.84562  0.88676  0.50679  1.0000
  H   H4183     1.0  0.85315  0.90470  0.48875  1.0000
  H   H4184     1.0  0.80327  0.68762  0.70992  1.0000
  C   C2633     1.0  0.81666  0.79085  0.67294  1.0000
  H   H4185     1.0  0.82465  0.68081  0.69506  1.0000
  H   H4186     1.0  0.82492  0.94231  0.51238  1.0000
  H   H4187     1.0  0.81770  0.93355  0.49640  1.0000
  H   H4188     1.0  0.98168  0.47780  0.52276  1.0000
  H   H4189     1.0  0.84722  0.92258  0.53075  1.0000
  H   H4190     1.0  0.86312  0.91678  0.51062  1.0000
  H   H4191     1.0  0.85555  0.89917  0.52901  1.0000
  H   H4192     1.0  0.93525  0.53402  0.66890  1.0000
  H   H4193     1.0  0.76399  0.71230  0.46694  1.0000
  H   H4194     1.0  0.81629  0.65943  0.46881  1.0000
  H   H4195     1.0  0.94616  0.88505  0.48785  1.0000
  H   H4196     1.0  0.74234  0.60691  0.53099  1.0000
  C   C2634     1.0  0.81433  0.71616  0.48009  1.0000
  H   H4197     1.0  0.84544  0.79345  0.64500  1.0000
  H   H4198     1.0  0.95487  0.86236  0.48334  1.0000
  H   H4199     1.0  0.83919  0.70587  0.69653  1.0000
  H   H4200     1.0  0.94514  0.50813  0.49881  1.0000
  H   H4201     1.0  0.76110  0.93436  0.58000  1.0000
  C   C2635     1.0  0.97824  0.89057  0.49171  1.0000
  C   C2636     1.0  0.76831  0.94445  0.57051  1.0000
  H   H4202     1.0  0.95873  0.49412  0.48282  1.0000
  Fe  Fe532     1.0  0.95221  0.94174  0.64107  1.0000
  H   H4203     1.0  0.78980  0.74723  0.47271  1.0000
  H   H4204     1.0  0.82796  0.63980  0.70790  1.0000
  N   N264      1.0  0.83468  0.77811  0.67126  1.0000
  H   H4205     1.0  0.96625  0.90047  0.49743  1.0000
  H   H4206     1.0  0.84605  0.65200  0.70500  1.0000
  H   H4207     1.0  0.81522  0.91723  0.53719  1.0000
  H   H4208     1.0  0.91949  0.47649  0.59216  1.0000
  H   H4209     1.0  0.76042  0.59492  0.51586  1.0000
  H   H4210     1.0  0.74930  0.69308  0.62413  1.0000
  H   H4211     1.0  0.80609  0.53705  0.68660  1.0000
  S   S1051     1.0  0.87898  0.83359  0.46637  1.0000
  C   C2637     1.0  0.81330  0.72479  0.69601  1.0000
  C   C2638     1.0  0.81332  0.67551  0.70564  1.0000
  H   H4212     1.0  0.80689  0.50405  0.70115  1.0000
  S   S1052     1.0  0.94235  0.94412  0.67062  1.0000
  H   H4213     1.0  0.93660  0.48974  0.49548  1.0000
  S   S1053     1.0  0.74644  0.67720  0.59536  1.0000
  C   C2639     1.0  0.83369  0.76264  0.66368  1.0000
  H   H4214     1.0  0.85424  0.48281  0.71015  1.0000
  H   H4215     1.0  0.80633  0.66887  0.69881  1.0000
  H   H4216     1.0  0.76799  0.56019  0.54601  1.0000
  H   H4217     1.0  0.78821  0.74497  0.69906  1.0000
  H   H4218     1.0  0.81241  0.79609  0.65946  1.0000
  H   H4219     1.0  0.82905  0.76351  0.69913  1.0000
  H   H4220     1.0  0.94954  0.53527  0.69435  1.0000
  H   H4221     1.0  0.91129  0.55511  0.70913  1.0000
  S   S1054     1.0  0.83928  0.47713  0.63104  1.0000
  C   C2640     1.0  0.82624  0.74405  0.46999  1.0000
  N   N265      1.0  0.82595  0.48134  0.71291  1.0000
  H   H4222     1.0  0.81031  0.96853  0.61485  1.0000
  C   C2641     1.0  0.80484  0.67095  0.46833  1.0000
  H   H4223     1.0  0.80774  0.70657  0.47650  1.0000
  H   H4224     1.0  0.73954  0.57828  0.51017  1.0000
  H   H4225     1.0  0.89610  0.52261  0.70575  1.0000
  C   C2642     1.0  0.97471  0.48712  0.51181  1.0000
  H   H4226     1.0  0.95404  0.87419  0.51864  1.0000
  H   H4227     1.0  0.97151  0.50117  0.51459  1.0000
  H   H4228     1.0  0.83994  0.73677  0.47310  1.0000
  C   C2643     1.0  0.89510  0.47554  0.58359  1.0000
  C   C2644     1.0  0.97312  0.92700  0.57672  1.0000
  S   S1055     1.0  0.73468  0.96737  0.57162  1.0000
  H   H4229     1.0  0.94616  0.51244  0.70498  1.0000
  H   H4230     1.0  0.96280  0.85157  0.51406  1.0000
  H   H4231     1.0  0.75251  0.54852  0.54167  1.0000
  C   C2645     1.0  0.97791  0.95048  0.58967  1.0000
  H   H4232     1.0  0.93212  0.47704  0.52888  1.0000
  S   S1056     1.0  0.97275  0.97082  0.66256  1.0000
  H   H4233     1.0  0.98286  0.91609  0.60944  1.0000
  C   C2646     1.0  0.83399  0.64727  0.71483  1.0000
  S   S1057     1.0  0.95090  0.97179  0.63042  1.0000
  C   C2647     1.0  0.82941  0.47230  0.69721  1.0000
  H   H4234     1.0  0.79798  0.64831  0.72859  1.0000
  S   S1058     1.0  0.94337  0.74314  0.85650  1.0000
  C   C2648     1.0  0.82901  0.67234  0.73016  1.0000
  Fe  Fe533     1.0  0.94642  0.79435  0.83704  1.0000
  S   S1059     1.0  0.92237  0.78557  0.85793  1.0000
  C   C2649     1.0  0.95708  0.85539  0.82012  1.0000
  Fe  Fe534     1.0  0.94341  0.76467  0.87156  1.0000
  S   S1060     1.0  0.94436  0.75673  0.90158  1.0000
  Fe  Fe535     1.0  0.92458  0.76517  0.84073  1.0000
  S   S1061     1.0  0.89810  0.76450  0.83302  1.0000
  H   H4235     1.0  0.81920  0.68435  0.73488  1.0000
  S   S1062     1.0  0.94754  0.77509  0.81907  1.0000
  S   S1063     1.0  0.82966  0.55289  0.73186  1.0000
  H   H4236     1.0  0.93727  0.53045  0.71760  1.0000
  H   H4237     1.0  0.82223  0.48711  0.82106  1.0000
  C   C2650     1.0  0.92497  0.58652  0.77630  1.0000
  H   H4238     1.0  0.85541  0.68057  0.87168  1.0000
  H   H4239     1.0  0.74043  0.53011  0.82712  1.0000
  H   H4240     1.0  0.87297  0.70106  0.82318  1.0000
  H   H4241     1.0  0.97143  0.72125  0.90167  1.0000
  S   S1064     1.0  0.82559  0.67288  0.83145  1.0000
  C   C2651     1.0  0.92976  0.80345  0.93270  1.0000
  C   C2652     1.0  0.86631  0.69226  0.83557  1.0000
  H   H4242     1.0  0.83048  0.72521  0.84952  1.0000
  H   H4243     1.0  0.87248  0.72189  0.84328  1.0000
  H   H4244     1.0  0.83776  0.49962  0.72142  1.0000
  H   H4245     1.0  0.73887  0.65129  0.87331  1.0000
  Fe  Fe536     1.0  0.83820  0.68467  0.80247  1.0000
  S   S1065     1.0  0.86790  0.67220  0.79380  1.0000
  Fe  Fe537     1.0  0.83749  0.71130  0.76629  1.0000
  S   S1066     1.0  0.86726  0.70123  0.75485  1.0000
  S   S1067     1.0  0.81887  0.73391  0.75064  1.0000
  Fe  Fe538     1.0  0.86075  0.67334  0.76710  1.0000
  S   S1068     1.0  0.87347  0.65059  0.75145  1.0000
  Fe  Fe539     1.0  0.87189  0.70103  0.78261  1.0000
  S   S1069     1.0  0.89782  0.70656  0.78738  1.0000
  S   S1070     1.0  0.83052  0.68334  0.77659  1.0000
  S   S1071     1.0  0.84259  0.71354  0.79320  1.0000
  H   H4246     1.0  0.84114  0.67727  0.72069  1.0000
  S   S1072     1.0  0.86391  0.51745  0.73496  1.0000
  Fe  Fe540     1.0  0.84242  0.56407  0.74890  1.0000
  S   S1073     1.0  0.84620  0.53785  0.76968  1.0000
  H   H4247     1.0  0.96743  0.87984  0.81726  1.0000
  Fe  Fe541     1.0  0.87391  0.53177  0.75143  1.0000
  S   S1074     1.0  0.89950  0.51797  0.76276  1.0000
  Fe  Fe542     1.0  0.83584  0.52613  0.75117  1.0000
  S   S1075     1.0  0.81613  0.50706  0.75685  1.0000
  H   H4248     1.0  0.96320  0.96593  0.73373  1.0000
  H   H4249     1.0  0.74245  0.48860  0.86380  1.0000
  N   N266      1.0  0.85415  0.70322  0.84881  1.0000
  H   H4250     1.0  0.83580  0.69883  0.87495  1.0000
  C   C2653     1.0  0.81286  0.49321  0.77878  1.0000
  C   C2654     1.0  0.82021  0.49569  0.79265  1.0000
  H   H4251     1.0  0.79115  0.63443  0.84006  1.0000
  C   C2655     1.0  0.80242  0.47966  0.78247  1.0000
  H   H4252     1.0  0.90272  0.57237  0.80655  1.0000
  H   H4253     1.0  0.75363  0.65550  0.83200  1.0000
  H   H4254     1.0  0.82832  0.50608  0.78988  1.0000
  S   S1076     1.0  0.73696  0.68159  0.95869  1.0000
  H   H4255     1.0  0.97844  0.91156  0.96459  1.0000
  C   C2656     1.0  0.80487  0.65570  0.73476  1.0000
  C   C2657     1.0  0.81715  0.73067  0.72937  1.0000
  C   C2658     1.0  0.90022  0.61295  0.77620  1.0000
  H   H4256     1.0  0.79175  0.75037  0.72836  1.0000
  H   H4257     1.0  0.87748  0.68220  0.84158  1.0000
  C   C2659     1.0  0.97035  0.95220  0.73253  1.0000
  N   N267      1.0  0.74718  0.50085  0.83511  1.0000
  H   H4258     1.0  0.84240  0.71080  0.72613  1.0000
  N   N268      1.0  0.95787  0.84731  0.88601  1.0000
  C   C2660     1.0  0.93680  0.78563  0.94107  1.0000
  C   C2661     1.0  0.86148  0.63298  0.75493  1.0000
  C   C2662     1.0  0.84472  0.63272  0.76734  1.0000
  C   C2663     1.0  0.83478  0.61920  0.76886  1.0000
  C   C2664     1.0  0.84175  0.60567  0.75830  1.0000
  C   C2665     1.0  0.85885  0.60554  0.74640  1.0000
  C   C2666     1.0  0.86865  0.61923  0.74466  1.0000
  H   H4259     1.0  0.83924  0.64312  0.77552  1.0000
  C   C2667     1.0  0.97695  0.94009  0.74747  1.0000
  H   H4260     1.0  0.86420  0.59532  0.73805  1.0000
  H   H4261     1.0  0.88162  0.61943  0.73500  1.0000
  C   C2668     1.0  0.94601  0.54853  0.75443  1.0000
  C   C2669     1.0  0.93094  0.55676  0.74597  1.0000
  C   C2670     1.0  0.91647  0.54761  0.74861  1.0000
  C   C2671     1.0  0.91719  0.53002  0.75943  1.0000
  C   C2672     1.0  0.93238  0.52172  0.76768  1.0000
  C   C2673     1.0  0.94670  0.53099  0.76531  1.0000
  H   H4262     1.0  0.75747  0.52169  0.84118  1.0000
  H   H4263     1.0  0.94508  0.82698  0.88226  1.0000
  H   H4264     1.0  0.93299  0.50814  0.77612  1.0000
  H   H4265     1.0  0.95819  0.52460  0.77203  1.0000
  H   H4266     1.0  0.78977  0.64349  0.85978  1.0000
  H   H4267     1.0  0.90641  0.59368  0.80906  1.0000
  C   C2674     1.0  0.83995  0.71671  0.83994  1.0000
  Fe  Fe543     1.0  0.96624  0.75485  0.83622  1.0000
  H   H4268     1.0  0.74054  0.63890  0.84621  1.0000
  C   C2675     1.0  0.79309  0.69791  0.82990  1.0000
  H   H4269     1.0  0.76631  0.48795  0.85304  1.0000
  H   H4270     1.0  0.83139  0.70984  0.83510  1.0000
  H   H4271     1.0  0.87591  0.70309  0.86195  1.0000
  H   H4272     1.0  0.85645  0.72159  0.86471  1.0000
  C   C2676     1.0  0.80367  0.68416  0.84079  1.0000
  C   C2677     1.0  0.89835  0.74879  0.81977  1.0000
  C   C2678     1.0  0.91416  0.73580  0.81524  1.0000
  C   C2679     1.0  0.91383  0.72311  0.80508  1.0000
  C   C2680     1.0  0.89772  0.72327  0.79944  1.0000
  C   C2681     1.0  0.88196  0.73642  0.80377  1.0000
  C   C2682     1.0  0.88230  0.74918  0.81388  1.0000
  H   H4273     1.0  0.92661  0.73545  0.81965  1.0000
  H   H4274     1.0  0.92610  0.71303  0.80169  1.0000
  H   H4275     1.0  0.86959  0.73684  0.79919  1.0000
  H   H4276     1.0  0.87006  0.75931  0.81724  1.0000
  C   C2683     1.0  0.75296  0.65400  0.86729  1.0000
  S   S1077     1.0  0.92533  0.82184  0.94395  1.0000
  C   C2684     1.0  0.73993  0.70110  0.96483  1.0000
  H   H4277     1.0  0.93287  0.59268  0.78264  1.0000
  H   H4278     1.0  0.80466  0.66819  0.86796  1.0000
  C   C2685     1.0  0.77850  0.68660  0.86709  1.0000
  Fe  Fe544     1.0  0.85849  0.54488  0.71666  1.0000
  H   H4279     1.0  0.93036  0.57034  0.73754  1.0000
  C   C2686     1.0  0.79645  0.67871  0.85943  1.0000
  H   H4280     1.0  0.92906  0.57140  0.78041  1.0000
  C   C2687     1.0  0.93849  0.77482  0.91343  1.0000
  C   C2688     1.0  0.94108  0.77133  0.93147  1.0000
  C   C2689     1.0  0.92691  0.80687  0.91478  1.0000
  C   C2690     1.0  0.93142  0.79263  0.90508  1.0000
  H   H4281     1.0  0.94652  0.75758  0.93800  1.0000
  H   H4282     1.0  0.90766  0.61986  0.78229  1.0000
  H   H4283     1.0  0.92918  0.79539  0.89127  1.0000
  H   H4284     1.0  0.92972  0.59016  0.76119  1.0000
  H   H4285     1.0  0.85852  0.68453  0.83086  1.0000
  C   C2691     1.0  0.84513  0.69102  0.86470  1.0000
  S   S1078     1.0  0.74477  0.70929  0.86524  1.0000
  C   C2692     1.0  0.76770  0.70005  0.85616  1.0000
  C   C2693     1.0  0.77512  0.70586  0.83760  1.0000
  H   H4286     1.0  0.75943  0.65354  0.87886  1.0000
  H   H4287     1.0  0.84626  0.72614  0.82785  1.0000
  H   H4288     1.0  0.83666  0.68358  0.86044  1.0000
  H   H4289     1.0  0.87993  0.58890  0.77667  1.0000
  H   H4290     1.0  0.77310  0.68236  0.88148  1.0000
  H   H4291     1.0  0.88524  0.61827  0.78053  1.0000
  H   H4292     1.0  0.97321  0.71245  0.84989  1.0000
  H   H4293     1.0  0.90476  0.55419  0.74239  1.0000
  H   H4294     1.0  0.76253  0.63155  0.83228  1.0000
  H   H4295     1.0  0.76394  0.48492  0.81553  1.0000
  C   C2694     1.0  0.96006  0.83627  0.82554  1.0000
  H   H4296     1.0  0.90379  0.61748  0.76106  1.0000
  C   C2695     1.0  0.97611  0.82686  0.83185  1.0000
  H   H4297     1.0  0.92095  0.82051  0.90847  1.0000
  H   H4298     1.0  0.93920  0.78290  0.95483  1.0000
  H   H4299     1.0  0.93360  0.86751  0.88140  1.0000
  C   C2696     1.0  0.94007  0.85869  0.89287  1.0000
  C   C2697     1.0  0.74457  0.51933  0.83880  1.0000
  H   H4300     1.0  0.82159  0.61927  0.77816  1.0000
  S   S1079     1.0  0.94314  0.82464  0.82501  1.0000
  N   N269      1.0  0.76383  0.64045  0.85616  1.0000
  H   H4301     1.0  0.96774  0.84363  0.91076  1.0000
  C   C2698     1.0  0.78253  0.64429  0.84866  1.0000
  H   H4302     1.0  0.96541  0.86832  0.86284  1.0000
  C   C2699     1.0  0.95504  0.83586  0.87457  1.0000
  C   C2700     1.0  0.75272  0.48705  0.85093  1.0000
  C   C2701     1.0  0.96564  0.83544  0.90169  1.0000
  C   C2702     1.0  0.75474  0.64163  0.84097  1.0000
  H   H4303     1.0  0.96811  0.82674  0.86961  1.0000
  H   H4304     1.0  0.75106  0.61849  0.87338  1.0000
  H   H4305     1.0  0.80499  0.50143  0.72534  1.0000
  H   H4306     1.0  0.97332  0.86813  0.88296  1.0000
  C   C2703     1.0  0.96536  0.96582  0.87990  1.0000
  C   C2704     1.0  0.96993  0.86509  0.82127  1.0000
  S   S1080     1.0  0.74545  0.67051  0.91152  1.0000
  H   H4307     1.0  0.78211  0.65827  0.83999  1.0000
  N   N270      1.0  0.90680  0.81485  0.79640  1.0000
  C   C2705     1.0  0.92477  0.82040  0.78865  1.0000
  C   C2706     1.0  0.89222  0.82896  0.78875  1.0000
  C   C2707     1.0  0.90282  0.81286  0.81650  1.0000
  C   C2708     1.0  0.90736  0.79719  0.79176  1.0000
  H   H4308     1.0  0.93610  0.81011  0.79420  1.0000
  H   H4309     1.0  0.92491  0.83354  0.79214  1.0000
  H   H4310     1.0  0.92828  0.82210  0.77349  1.0000
  H   H4311     1.0  0.87848  0.82519  0.79438  1.0000
  H   H4312     1.0  0.89145  0.84243  0.79206  1.0000
  H   H4313     1.0  0.89477  0.83084  0.77359  1.0000
  H   H4314     1.0  0.88949  0.80845  0.82294  1.0000
  H   H4315     1.0  0.90250  0.82582  0.82060  1.0000
  H   H4316     1.0  0.91357  0.80236  0.82263  1.0000
  H   H4317     1.0  0.89409  0.79248  0.79761  1.0000
  H   H4318     1.0  0.91815  0.78620  0.79742  1.0000
  H   H4319     1.0  0.91032  0.79810  0.77671  1.0000
  C   C2709     1.0  0.86520  0.71286  0.85499  1.0000
  H   H4320     1.0  0.95138  0.96568  0.87949  1.0000
  N   N271      1.0  0.90491  0.59284  0.78181  1.0000
  H   H4321     1.0  0.79672  0.47767  0.77177  1.0000
  C   C2710     1.0  0.89931  0.58749  0.80189  1.0000
  S   S1081     1.0  0.96330  0.56080  0.75196  1.0000
  C   C2711     1.0  0.89512  0.58435  0.77289  1.0000
  H   H4322     1.0  0.77344  0.61128  0.86003  1.0000
  H   H4323     1.0  0.75809  0.50892  0.80632  1.0000
  H   H4324     1.0  0.75158  0.66821  0.85906  1.0000
  H   H4325     1.0  0.89832  0.56915  0.77686  1.0000
  S   S1082     1.0  0.96742  0.77513  0.85216  1.0000
  H   H4326     1.0  0.88422  0.59201  0.80651  1.0000
  N   N272      1.0  0.82029  0.66271  0.72134  1.0000
  H   H4327     1.0  0.82372  0.47390  0.74207  1.0000
  C   C2712     1.0  0.81680  0.48490  0.81028  1.0000
  H   H4328     1.0  0.89908  0.58802  0.75772  1.0000
  C   C2713     1.0  0.97989  0.95932  0.86652  1.0000
  H   H4329     1.0  0.94471  0.86276  0.81518  1.0000
  H   H4330     1.0  0.94178  0.86777  0.90126  1.0000
  H   H4331     1.0  0.79861  0.70223  0.81549  1.0000
  C   C2714     1.0  0.76497  0.62191  0.86778  1.0000
  H   H4332     1.0  0.77109  0.62079  0.87980  1.0000
  H   H4333     1.0  0.76685  0.71634  0.82910  1.0000
  S   S1083     1.0  0.82824  0.58993  0.75940  1.0000
  C   C2715     1.0  0.80213  0.74065  0.72141  1.0000
  H   H4334     1.0  0.93020  0.85010  0.90175  1.0000
  H   H4335     1.0  0.94965  0.84437  0.86233  1.0000
  H   H4336     1.0  0.97862  0.81213  0.83589  1.0000
  H   H4337     1.0  0.79432  0.66702  0.74000  1.0000
  C   C2716     1.0  0.76168  0.49876  0.81860  1.0000
  S   S1084     1.0  0.97526  0.91975  0.81900  1.0000
  C   C2717     1.0  0.97076  0.85923  0.87489  1.0000
  H   H4338     1.0  0.77510  0.50050  0.82038  1.0000
  S   S1085     1.0  0.87088  0.55868  0.73174  1.0000
  H   H4339     1.0  0.90568  0.52425  0.72415  1.0000
  H   H4340     1.0  0.75397  0.47301  0.84892  1.0000
  S   S1086     1.0  0.97413  0.95195  0.84910  1.0000
  C   C2718     1.0  0.83057  0.71824  0.72028  1.0000
  H   H4341     1.0  0.95629  0.82619  0.91031  1.0000
  H   H4342     1.0  0.83925  0.63723  0.72639  1.0000
  H   H4343     1.0  0.97313  0.73195  0.87804  1.0000
  S   S1087     1.0  0.98295  0.53913  0.79693  1.0000
  H   H4344     1.0  0.83403  0.66328  0.74231  1.0000
  H   H4345     1.0  0.80972  0.64593  0.74674  1.0000
  S   S1088     1.0  0.97372  0.94779  0.76795  1.0000
  H   H4346     1.0  0.97913  0.82671  0.89705  1.0000
  C   C2719     1.0  0.98095  0.72222  0.88808  1.0000
  H   H4347     1.0  0.98397  0.68079  0.86587  1.0000
  H   H4348     1.0  0.98331  0.74521  0.90797  1.0000
  H   H4349     1.0  0.79647  0.48624  0.71666  1.0000
  C   C2720     1.0  0.97303  0.94665  0.71588  1.0000
  H   H4350     1.0  0.98446  0.75674  0.88466  1.0000
  H   H4351     1.0  0.98436  0.70858  0.88433  1.0000
  H   H4352     1.0  0.98433  0.85109  0.86940  1.0000
