data_image0
_chemical_formula_structural       FeS2FeS2FeSFeS3FeS2FeS2FeSFeS3FeS2FeS2FeSFeS3FeS2FeS2FeSFeS3FeS2FeS2FeSFeS3FeS2FeS2FeSFeS3FeS2FeS2FeSFeS3FeS2FeS2FeSFeS3FeS2FeS2FeSFeS3FeS2FeS2FeSFeS3FeS2FeS2FeSFeS3FeS2FeS2FeSFeS3FeS2FeS2FeSFeS3FeS2FeS2FeSFeS3FeS2FeS2FeSFeS3FeS2FeS2FeSFeS3C6H4C6H4C6H4C6H4C6H4C6H4C6H4C6H4C6H4C6H4C6H4C6H4C6H4C6H4C6H4C6H4C6H4C6H4C6H4C6H4C6H4C6H4C6H4C6H4C6H4C6H4C6H4C6H4C6H4C6H4C6H4C6H4FeS2FeS2FeSFeS3FeS2FeS2FeSFeS3FeS2FeS2FeSFeS3FeS2FeS2FeSFeS3FeS2FeS2FeSFeS3FeS2FeS2FeSFeS3FeS2FeS2FeSFeS3FeS2FeS2FeSFeS3FeS2FeS2FeSFeS3FeS2FeS2FeSFeS3FeS2FeS2FeSFeS3FeS2FeS2FeSFeS3FeS2FeS2FeSFeS3FeS2FeS2FeSFeS3FeS2FeS2FeSFeS3FeS2FeS2FeSFeS3C6H4C6H4C6H4C6H4C6H4C6H4C6H4C6H4C6H4C6H4C6H4C6H4C6H4C6H4C6H4C6H4C6H4C6H4C6H4C6H4C6H4C6H4C6H4C6H4C6H4C6H4C6H4C6H4C6H4C6H4C6H4C6H4NC4H12NC4H12NC4H12NC4H12NC4H12NC4H12NC4H12NC4H12NC4H12NC4H12NC4H12NC4H12NC4H12NC4H12NC4H12NC4H12NC4H12NC4H12NC4H12NC4H12NC4H12NC4H12NC4H12NC4H12NC4H12NC4H12NC4H12NC4H12NC4H12NC4H12NC4H12NC4H12NC4H12NC4H12NC4H12NC4H12NC4H12NC4H12NC4H12NC4H12NC4H12NC4H12NC4H12NC4H12NC4H12NC4H12NC4H12NC4H12NC4H12NC4H12NC4H12NC4H12NC4H12NC4H12NC4H12NC4H12NC4H12NC4H12NC4H12NC4H12NC4H12NC4H12NC4H12NC4H12
_chemical_formula_sum              "Fe128 S256 C640 H1024 N64"
_cell_length_a       31.082309886732734
_cell_length_b       25.927861800015616
_cell_length_c       67.49623629554928
_cell_angle_alpha    89.62544877171851
_cell_angle_beta     89.81119187353163
_cell_angle_gamma    89.83782317046101

_space_group_name_H-M_alt    "P 1"
_space_group_IT_number       1

loop_
  _space_group_symop_operation_xyz
  'x, y, z'

loop_
  _atom_site_type_symbol
  _atom_site_label
  _atom_site_symmetry_multiplicity
  _atom_site_fract_x
  _atom_site_fract_y
  _atom_site_fract_z
  _atom_site_occupancy
  Fe  Fe1       1.0  0.8289073974989535  0.35771926982512475  0.34396718746752963  1.0000
  S   S1        1.0  0.8707026561226908  0.4276854500088035  0.3417117214682416  1.0000
  S   S2        1.0  0.6278911361342958  0.7225972241049046  0.369529663965306  1.0000
  Fe  Fe2       1.0  0.7588740526999038  0.40386632674921413  0.31836254251160157  1.0000
  S   S3        1.0  0.7943698755719947  0.4782382205547948  0.3135880174367062  1.0000
  S   S4        1.0  0.6941499953195738  0.3813178703904149  0.3067610083559208  1.0000
  Fe  Fe3       1.0  0.8524025667560595  0.4279559598199791  0.309674314776082  1.0000
  S   S5        1.0  0.9053955632063944  0.4453887954433221  0.2880708039355005  1.0000
  Fe  Fe4       1.0  0.809531140083595  0.47197329717224695  0.3459695281075762  1.0000
  S   S6        1.0  0.8074555640234489  0.5441925719383478  0.36412839556842863  1.0000
  S   S7        1.0  0.8158521113753531  0.3538411925041416  0.3114378340410203  1.0000
  S   S8        1.0  0.7686337270709125  0.4019233353594151  0.35114574105133256  1.0000
  Fe  Fe5       1.0  0.664580126302671  0.6215522573261855  0.4926204735384709  1.0000
  S   S9        1.0  0.7123435698916517  0.5603289939431334  0.5003593112956055  1.0000
  S   S10       1.0  0.6011469663011948  0.6171359085010847  0.5082037048527257  1.0000
  Fe  Fe6       1.0  0.728069594505322  0.680692904137863  0.46756869069635326  1.0000
  S   S11       1.0  0.7825325499930318  0.6257754527537887  0.47395008984898207  1.0000
  S   S12       1.0  0.7390081997034407  0.7478525441686529  0.4469099753235493  1.0000
  Fe  Fe7       1.0  0.732848164869006  0.5651450771940488  0.4686708575533468  1.0000
  S   S13       1.0  0.7488418899294563  0.4935469712805597  0.4517891019147018  1.0000
  Fe  Fe8       1.0  0.7571244160223616  0.6262061345748304  0.5050646712827769  1.0000
  S   S14       1.0  0.7927417260082344  0.617980519223196  0.5336237243626787  1.0000
  S   S15       1.0  0.6798597375254015  0.6193999453907972  0.460145587938783  1.0000
  S   S16       1.0  0.707983300381792  0.687686927353208  0.4994472851983644  1.0000
  Fe  Fe9       1.0  0.9238866081215966  0.414596822036263  0.7110713500697349  1.0000
  S   S17       1.0  0.9876131077255208  0.453780686016087  0.7075413453762862  1.0000
  S   S18       1.0  0.8895555184878865  0.3774376082726008  0.6857072005497149  1.0000
  Fe  Fe10      1.0  0.9192465450587652  0.43693938484145045  0.7549600041012399  1.0000
  S   S19       1.0  0.9829284262890987  0.4771436117438847  0.7551474438651014  1.0000
  S   S20       1.0  0.8801998459959264  0.43184561759392204  0.7828824234436729  1.0000
  Fe  Fe11      1.0  0.9595197446765535  0.514290985623007  0.7271684421421093  1.0000
  S   S21       1.0  0.9704684080292548  0.5978821432853607  0.7203047301408368  1.0000
  Fe  Fe12      1.0  0.004473138950562339  0.41225761210473016  0.7356996306031336  1.0000
  S   S22       1.0  0.07001163312661807  0.3764364950021262  0.7388244180133136  1.0000
  S   S23       1.0  0.8938289574554458  0.4790316174257541  0.728394717289827  1.0000
  S   S24       1.0  0.9425926143578335  0.3683514202560027  0.7378441213426749  1.0000
  Fe  Fe13      1.0  0.9663002607195043  0.7544547368885749  0.5777387796528937  1.0000
  S   S25       1.0  0.9761796874277626  0.6693536873529631  0.5815235755743491  1.0000
  S   S26       1.0  0.9267515936900942  0.7899096890994344  0.5535570315420156  1.0000
  Fe  Fe14      1.0  0.021530133635676574  0.7808315518717864  0.6126035358572604  1.0000
  S   S27       1.0  0.03705653965300448  0.6981760358610086  0.6200522484278908  1.0000
  S   S28       1.0  0.014582325060891188  0.3246987498160498  0.6146779364436399  1.0000
  Fe  Fe15      1.0  0.04482450004836447  0.6894428813220373  0.5871910691781151  1.0000
  S   S29       1.0  0.09686314166313181  0.6423731120651524  0.5730653014212826  1.0000
  Fe  Fe16      1.0  0.9670247733936653  0.6849405768600497  0.6138586193810384  1.0000
  S   S30       1.0  0.9246245517508306  0.6294094368132902  0.6302122377082676  1.0000
  S   S31       1.0  0.036179994743529065  0.7732623777181494  0.580244731068668  1.0000
  S   S32       1.0  0.9505854888636842  0.7683618614955857  0.6095859027139457  1.0000
  Fe  Fe17      1.0  0.40999028531206316  0.8119503272976847  0.08544267729213255  1.0000
  S   S33       1.0  0.44895205411533556  0.7399329477127073  0.09020926664680484  1.0000
  S   S34       1.0  0.5272715683548448  0.3703032580410251  0.09484485497958853  1.0000
  Fe  Fe18      1.0  0.34766713038073965  0.7607508925065039  0.05776466331662619  1.0000
  S   S35       1.0  0.38086664885343813  0.6842968900747111  0.05975119399653639  1.0000
  S   S36       1.0  0.28514773869003446  0.7676656415382864  0.041512396338556475  1.0000
  Fe  Fe19      1.0  0.38508975002474927  0.7000036998011554  0.09217300407415566  1.0000
  S   S37       1.0  0.3700627561644602  0.6329216637245719  0.11228672599456348  1.0000
  Fe  Fe20      1.0  0.4417554804811684  0.7298565118073426  0.057507045815785536  1.0000
  S   S38       1.0  0.49708705708282913  0.6964534273747858  0.040396144744859294  1.0000
  S   S39       1.0  0.3464540566050521  0.7728355938799953  0.09049321888743414  1.0000
  S   S40       1.0  0.40822240443587404  0.8057616597104651  0.05227539466435799  1.0000
  Fe  Fe21      1.0  0.5070338663512982  0.5722514349936811  0.20138591962298594  1.0000
  S   S41       1.0  0.5008488473942669  0.49542993870530555  0.18666488167941192  1.0000
  S   S42       1.0  0.479831265227433  0.647085323341196  0.19042108894692575  1.0000
  Fe  Fe22      1.0  0.560870950074564  0.5308280334052412  0.23508128738735956  1.0000
  S   S43       1.0  0.5604141409457357  0.4499748223056792  0.22348723975519955  1.0000
  S   S44       1.0  0.5923637653046605  0.5588846455190354  0.2628617341782409  1.0000
  Fe  Fe23      1.0  0.5708810719587335  0.48674795006853167  0.1936672453243606  1.0000
  S   S45       1.0  0.6172188859045457  0.4497102820294267  0.17247085239624305  1.0000
  Fe  Fe24      1.0  0.4908676571333647  0.4652902946598963  0.2174121319074073  1.0000
  S   S46       1.0  0.4391315914991474  0.4081134991555364  0.2242543887577705  1.0000
  S   S47       1.0  0.5782889183142549  0.5664688059869384  0.20580965256284983  1.0000
  S   S48       1.0  0.49010603201023467  0.5431420886773243  0.2316572656039176  1.0000
  Fe  Fe25      1.0  0.6123310512565298  0.7435626133466793  0.65596844415283  1.0000
  S   S49       1.0  0.5661043462964718  0.677815012370984  0.6536366427408131  1.0000
  S   S50       1.0  0.410292846187609  0.2331556032484916  0.6709789159437615  1.0000
  Fe  Fe26      1.0  0.6639446607101432  0.691725601991328  0.6885689412192325  1.0000
  S   S51       1.0  0.6225654759727898  0.6209944528526827  0.6882615495790881  1.0000
  S   S52       1.0  0.7157676531209506  0.6992928333114121  0.7116867985415493  1.0000
  Fe  Fe27      1.0  0.6251169365823972  0.6286068585853211  0.6551900713286406  1.0000
  S   S53       1.0  0.6336839617297503  0.558785022741569  0.6358924408993035  1.0000
  Fe  Fe28      1.0  0.5677669235244166  0.6773590284019937  0.6867254689818175  1.0000
  S   S54       1.0  0.5080826949817759  0.6634838832070756  0.7049249095501443  1.0000
  S   S55       1.0  0.67188411223015  0.6943244820308343  0.6554576008599658  1.0000
  S   S56       1.0  0.6089638360050015  0.7478656781036493  0.6890898189274017  1.0000
  Fe  Fe29      1.0  0.5000213762882826  0.3727147267367753  0.533719323968952  1.0000
  S   S57       1.0  0.4433981599445034  0.4247332494164722  0.5389364703933013  1.0000
  S   S58       1.0  0.5429090499745871  0.38440074362440324  0.5073155808505069  1.0000
  Fe  Fe30      1.0  0.48754331516116045  0.31513222361191573  0.5724146085943909  1.0000
  S   S59       1.0  0.4307617778709811  0.3636958342562198  0.5812042478181918  1.0000
  S   S60       1.0  0.5101367322580168  0.24563399765370986  0.5896374147288177  1.0000
  Fe  Fe31      1.0  0.41021586518390113  0.35338240547220595  0.5497553830181968  1.0000
  S   S61       1.0  0.3411610384848783  0.3343434552610361  0.5433041411206138  1.0000
  Fe  Fe32      1.0  0.46978984485552433  0.4302555165781648  0.5697356988183557  1.0000
  S   S62       1.0  0.4715039426607109  0.5094328568123627  0.5833765328105308  1.0000
  S   S63       1.0  0.46432415007375943  0.3003007130626671  0.5415745586743999  1.0000
  S   S64       1.0  0.5287255993907244  0.38249561688633793  0.5638125904453534  1.0000
  Fe  Fe33      1.0  0.6561197532711509  0.26180531728349  0.9697780215449221  1.0000
  S   S65       1.0  0.7272406317590699  0.253736102004551  0.9740234261483317  1.0000
  S   S66       1.0  0.6087291889966783  0.2002521344170718  0.9780162314000327  1.0000
  Fe  Fe34      1.0  0.663980505201035  0.36871751442704953  0.9517528986299115  1.0000
  S   S67       1.0  0.7358078393590163  0.3694352555181731  0.9543066053733846  1.0000
  S   S68       1.0  0.6322297038538442  0.4403512888267515  0.9402073290458988  1.0000
  Fe  Fe35      1.0  0.7313933282781936  0.2881076697749669  0.9434514778569788  1.0000
  S   S69       1.0  0.7456403440496496  0.6844115252047814  0.969311856124382  1.0000
  Fe  Fe36      1.0  0.7242230492459162  0.33567433600244234  0.9844820269196893  1.0000
  S   S70       1.0  0.7504575905451889  0.3649452351633409  0.013360387023350295  1.0000
  S   S71       1.0  0.6600955598871824  0.2899007641539164  0.9384855215814994  1.0000
  S   S72       1.0  0.6523843315600274  0.34093022027128433  0.9826805557224861  1.0000
  Fe  Fe37      1.0  0.7703422739625738  0.6466634563519715  0.8268388844589065  1.0000
  S   S73       1.0  0.7264739660055075  0.5855703871756639  0.8154979494346571  1.0000
  S   S74       1.0  0.8334188893438035  0.6563149609832948  0.8113365323021503  1.0000
  Fe  Fe38      1.0  0.7072733784367323  0.6806765354149737  0.8583856743928343  1.0000
  S   S75       1.0  0.6576978433658104  0.6222510279906472  0.8498546788105008  1.0000
  S   S76       1.0  0.6960856845600626  0.7422213126016189  0.8810451184465791  1.0000
  Fe  Fe39      1.0  0.7143621198602012  0.5684976294991184  0.8475837984548273  1.0000
  S   S77       1.0  0.718282991495101  0.48556777750870284  0.8571109475426177  1.0000
  Fe  Fe40      1.0  0.6750543688248383  0.645120216174268  0.8187425492902025  1.0000
  S   S78       1.0  0.6273178124750662  0.6572396160905566  0.7944886656218788  1.0000
  S   S79       1.0  0.7627975859871021  0.6251537133154704  0.8588086541940991  1.0000
  S   S80       1.0  0.7198513726284633  0.708222862172943  0.827327835393482  1.0000
  Fe  Fe41      1.0  0.1802339309587629  0.33077287269765066  0.837852976662702  1.0000
  S   S81       1.0  0.1303919294345725  0.27545084709934925  0.8489835681335604  1.0000
  S   S82       1.0  0.1737836500368158  0.4167325025418384  0.8390227961909236  1.0000
  Fe  Fe42      1.0  0.24113023948063467  0.24510259071862417  0.8255839100830265  1.0000
  S   S83       1.0  0.1964189817492762  0.1822986267573352  0.835268804276193  1.0000
  S   S84       1.0  0.30735090890155947  0.229128534743027  0.8143264497180394  1.0000
  Fe  Fe43      1.0  0.14537195520254861  0.2316581031104177  0.8212587499180721  1.0000
  S   S85       1.0  0.09031274610141837  0.2019681339847732  0.8031717217766642  1.0000
  Fe  Fe44      1.0  0.18640172587997952  0.23214069955763006  0.8618724596772479  1.0000
  S   S86       1.0  0.35440237375432915  0.7334814916002079  0.8325245985050431  1.0000
  S   S87       1.0  0.19132362619991275  0.2905440286965882  0.8090705079808844  1.0000
  S   S88       1.0  0.2348911783574851  0.2916538670329351  0.8531520910918655  1.0000
  Fe  Fe45      1.0  0.23743499429804724  0.6452525220159255  0.9470016224383255  1.0000
  S   S89       1.0  0.19749538098482994  0.71580926363446  0.9416696795162631  1.0000
  S   S90       1.0  0.30323735942134744  0.6550098680390841  0.9596264539053585  1.0000
  Fe  Fe46      1.0  0.1709114031838915  0.5741881111467579  0.9298975060846291  1.0000
  S   S91       1.0  0.1256511663835946  0.6388192817927326  0.9223883171389098  1.0000
  S   S92       1.0  0.15111086326875037  0.49146177158180687  0.9269676857238137  1.0000
  Fe  Fe47      1.0  0.1850245652925537  0.6804250626233658  0.9120755243062224  1.0000
  S   S93       1.0  0.18825083106251933  0.7362267069701841  0.886466114623028  1.0000
  Fe  Fe48      1.0  0.14250277783311788  0.6679993015061836  0.9525316848644184  1.0000
  S   S94       1.0  0.08950766012931832  0.6977957012109767  0.9720609221790137  1.0000
  S   S95       1.0  0.22909376116517183  0.6127595194337795  0.9166506233306932  1.0000
  S   S96       1.0  0.18357572064969646  0.6003441159754929  0.9608488820443067  1.0000
  Fe  Fe49      1.0  0.9036056360304332  0.7296657596640831  0.22413680266384448  1.0000
  S   S97       1.0  0.9530654544562367  0.7836902546528646  0.2362009071171267  1.0000
  S   S98       1.0  0.8329022896115015  0.7407264742605429  0.2297006260927083  1.0000
  Fe  Fe50      1.0  0.9702498767817102  0.658614819313259  0.2060053297643697  1.0000
  S   S99       1.0  0.025737106908533036  0.706276538732085  0.21662793404886177  1.0000
  S   S100      1.0  0.984767508796417  0.5838096000661263  0.19049317374768251  1.0000
  Fe  Fe51      1.0  0.9881223136907099  0.7116038406650076  0.24489038910569028  1.0000
  S   S101      1.0  0.018815016971678533  0.7021017556000213  0.2747144990377411  1.0000
  Fe  Fe52      1.0  0.9858084990827031  0.7737664319648838  0.20682434722792004  1.0000
  S   S102      1.0  0.0927809544781566  0.36150605484906173  0.17515347363603678  1.0000
  S   S103      1.0  0.935957269891926  0.6580235670468289  0.2352756423285616  1.0000
  S   S104      1.0  0.9331115665092949  0.7260221939235827  0.1937392888826987  1.0000
  Fe  Fe53      1.0  0.9585894039201761  0.4914169862169753  0.041614120514715  1.0000
  S   S105      1.0  0.028243658088482837  0.4700969927623988  0.045470988058931454  1.0000
  S   S106      1.0  0.9276626994620424  0.48510781554179844  0.011464933388734888  1.0000
  Fe  Fe54      1.0  0.9499300552031785  0.5289891173123437  0.0839207284672196  1.0000
  S   S107      1.0  0.018748239322371685  0.5117024949664755  0.09129697579157871  1.0000
  S   S108      1.0  0.9040357602719589  0.5670422163560157  0.1050939720535531  1.0000
  Fe  Fe55      1.0  0.033337523915027756  0.545458701099586  0.06146154841111541  1.0000
  S   S109      1.0  0.08963601581961633  0.5991242300685498  0.05774425791701672  1.0000
  Fe  Fe56      1.0  0.007279641323956865  0.4379877791537746  0.07495332268086978  1.0000
  S   S110      1.0  0.026343454490584062  0.35985738809179046  0.08689750430704087  1.0000
  S   S111      1.0  0.9654383071348887  0.5694169542537458  0.055311534340412555  1.0000
  S   S112      1.0  0.9370176310593549  0.45278294977672595  0.06977004936717278  1.0000
  Fe  Fe57      1.0  0.1509557631605922  0.3197449404010961  0.4542239369563331  1.0000
  S   S113      1.0  0.20785026438307472  0.2749314555650432  0.46511684343353776  1.0000
  S   S114      1.0  0.102796228282108  0.3516734333762011  0.4754485050473064  1.0000
  Fe  Fe58      1.0  0.17768597583953188  0.31267886397728406  0.41151065291186506  1.0000
  S   S115      1.0  0.23752104722167058  0.2671852915298416  0.4182181369744964  1.0000
  S   S116      1.0  0.15341470374168398  0.33538535172227685  0.38145686964912623  1.0000
  Fe  Fe59      1.0  0.1952763824035701  0.22332208513928986  0.43939234708275937  1.0000
  S   S117      1.0  0.23155204460612702  0.5820298876053221  0.41421950718637923  1.0000
  Fe  Fe60      1.0  0.2449035914069437  0.3229913194821383  0.4433543913717329  1.0000
  S   S118      1.0  0.3079214987069903  0.3589391911502368  0.4514879854140992  1.0000
  S   S119      1.0  0.13453875210122734  0.263834618559738  0.43039428968698873  1.0000
  S   S120      1.0  0.18894914166488203  0.3725256689077054  0.4346638583230203  1.0000
  Fe  Fe61      1.0  0.2557543803878553  0.5443148261679936  0.2690529522106772  1.0000
  S   S121      1.0  0.23185728128744598  0.4657016814105522  0.2774001123196796  1.0000
  S   S122      1.0  0.28680948048458227  0.5608812976264789  0.23964882665406484  1.0000
  Fe  Fe62      1.0  0.22346759504523186  0.5927848885149978  0.30717120472376724  1.0000
  S   S123      1.0  0.19601968457196497  0.5185669875433173  0.31854066906183715  1.0000
  S   S124      1.0  0.21519498751098473  0.6625987567454233  0.3262047825144642  1.0000
  Fe  Fe63      1.0  0.2579426012484528  0.48451075211843664  0.307317949860551  1.0000
  S   S125      1.0  0.2960589337292505  0.4281952039010093  0.3253673262466556  1.0000
  Fe  Fe64      1.0  0.17308083151720044  0.5076727795210738  0.2875374248943557  1.0000
  S   S126      1.0  0.1074867059543736  0.483893114749624  0.2780084508464555  1.0000
  S   S127      1.0  0.287358076803954  0.5597860253935883  0.2982456004308904  1.0000
  S   S128      1.0  0.19478630295774924  0.5853869617536385  0.27696272801787913  1.0000
  C   C1        1.0  0.19408218617473785  0.3588885956194447  0.36590388018830783  1.0000
  C   C2        1.0  0.23689459843391764  0.36060997327276  0.3722151317304603  1.0000
  C   C3        1.0  0.2688561435898217  0.38020012560262145  0.359514250669472  1.0000
  C   C4        1.0  0.2578074817719023  0.39826346278420954  0.3406152723704306  1.0000
  C   C5        1.0  0.21515249380568205  0.39527414430593055  0.33422315645016204  1.0000
  C   C6        1.0  0.18327459934723234  0.37606130064279447  0.3468951246781265  1.0000
  H   H1        1.0  0.24538339504506249  0.34775717449851584  0.38695547461986324  1.0000
  H   H2        1.0  0.30181182834751225  0.38276382542886983  0.3645293237552073  1.0000
  H   H3        1.0  0.20665625413195343  0.4078398278197063  0.31943955025688253  1.0000
  H   H4        1.0  0.15027222419175823  0.3743364670617048  0.3418811310455537  1.0000
  C   C7        1.0  0.231488626442959  0.6079275202048794  0.3901066850861295  1.0000
  C   C8        1.0  0.21220441377009897  0.6557503124344972  0.38612999443573615  1.0000
  C   C9        1.0  0.2083709229008788  0.673479916107122  0.3665028435606922  1.0000
  C   C10       1.0  0.2237970089806793  0.6433441546990846  0.3508612365362595  1.0000
  C   C11       1.0  0.24453311569537955  0.596518416723486  0.3549427180924599  1.0000
  C   C12       1.0  0.24843493314829676  0.5788919850118331  0.3745162366583445  1.0000
  H   H5        1.0  0.19964808587448046  0.6788487953113135  0.3980968644813772  1.0000
  H   H6        1.0  0.19273013693234164  0.7100027370565171  0.36346425888594447  1.0000
  H   H7        1.0  0.2576617036830708  0.5737249927095235  0.34301192454456025  1.0000
  H   H8        1.0  0.26421071431939414  0.5424092489413899  0.37749366531774803  1.0000
  C   C13       1.0  0.04267418859005967  0.6408967148394477  0.27572911822739693  1.0000
  C   C14       1.0  0.06620420698663954  0.6260616073941851  0.2924401615727398  1.0000
  C   C15       1.0  0.08521562236418734  0.5770960538892804  0.2933187858184134  1.0000
  C   C16       1.0  0.07946093685700717  0.5423105662955117  0.27779328211216064  1.0000
  C   C17       1.0  0.05504966134509348  0.5565926130313005  0.2612920609532799  1.0000
  C   C18       1.0  0.03739511832973852  0.6062740528279801  0.2600909937800271  1.0000
  H   H9        1.0  0.07038949900319547  0.6525601501620315  0.3045561141801063  1.0000
  H   H10       1.0  0.10463548232030129  0.5663191651191185  0.30597014416913143  1.0000
  H   H11       1.0  0.051176325171760954  0.5301475490492615  0.2491136862440419  1.0000
  H   H12       1.0  0.019711272573782468  0.6176134471588286  0.24702880855519266  1.0000
  C   C19       1.0  0.9604033954063597  0.5777355140015833  0.16720150218927135  1.0000
  C   C20       1.0  0.9253210665540726  0.6086028404621032  0.1618115740968698  1.0000
  C   C21       1.0  0.9069599129207783  0.6038415317948285  0.1429367181374515  1.0000
  C   C22       1.0  0.9236530154003079  0.5681853873288599  0.12943594647544115  1.0000
  C   C23       1.0  0.9574024967444832  0.5357070230277017  0.1351863789208425  1.0000
  C   C24       1.0  0.9759706515591937  0.5407215276492309  0.15395827268205864  1.0000
  H   H13       1.0  0.9120718138309037  0.6359049696207286  0.17218636848221724  1.0000
  H   H14       1.0  0.8803013869992589  0.6284352728870102  0.13868967887779113  1.0000
  H   H15       1.0  0.969060756906493  0.506402288545194  0.12525049110371628  1.0000
  H   H16       1.0  0.002867804808676544  0.5163878129704891  0.1580260197625179  1.0000
  C   C25       1.0  0.07180557143805566  0.36231461991836106  0.15103742797166128  1.0000
  C   C26       1.0  0.08286535385962268  0.40264619378362715  0.13811595926008732  1.0000
  C   C27       1.0  0.06789664261246142  0.40293439288271554  0.11852541549010703  1.0000
  C   C28       1.0  0.04160096188474527  0.3630286014217218  0.11185749005968383  1.0000
  C   C29       1.0  0.029584680570651445  0.32346491103033714  0.12493865772656738  1.0000
  C   C30       1.0  0.044776741195452496  0.32298340066861253  0.14448339097532198  1.0000
  H   H17       1.0  0.10371007870060911  0.4332336571567909  0.14312312300514315  1.0000
  H   H18       1.0  0.0778164953187448  0.43319709257487404  0.1084248855611092  1.0000
  H   H19       1.0  0.008308595966852295  0.2933472497413613  0.11995930340277967  1.0000
  H   H20       1.0  0.035719745769843936  0.2920564645955814  0.15436689216313426  1.0000
  C   C31       1.0  0.09018668676185193  0.6713122661562106  0.9959884524117423  1.0000
  C   C32       1.0  0.05146883502659727  0.6658299190595285  0.006400376347405423  1.0000
  C   C33       1.0  0.0511693964844635  0.6432483985215747  0.025322769710416186  1.0000
  C   C34       1.0  0.08977164757092027  0.6275659081398928  0.0341164103308664  1.0000
  C   C35       1.0  0.12868912328985993  0.6345777190141654  0.02394647909130443  1.0000
  C   C36       1.0  0.12882589647529982  0.6557354156435522  0.004759834073617464  1.0000
  H   H21       1.0  0.0216363451916477  0.6785194946857104  0.9997253753744663  1.0000
  H   H22       1.0  0.021165893308703776  0.6389462417158837  0.03325114386219816  1.0000
  H   H23       1.0  0.15864926864777074  0.6226240572925728  0.03072246440499038  1.0000
  H   H24       1.0  0.1588735496758954  0.6605822405426829  0.9969012695933083  1.0000
  C   C37       1.0  0.3115448976428356  0.7350346242519243  0.849622185950734  1.0000
  C   C38       1.0  0.29573716140808887  0.688827446977375  0.8576585718994366  1.0000
  C   C39       1.0  0.25870752371407324  0.6889678982374893  0.869664767944266  1.0000
  C   C40       1.0  0.2371099790735721  0.73531067119086  0.873402178981719  1.0000
  C   C41       1.0  0.25386981033958245  0.7816742263657817  0.8660347403354003  1.0000
  C   C42       1.0  0.2914520554907337  0.7815898871020829  0.8545004930222282  1.0000
  H   H25       1.0  0.3114317353606276  0.6526942365633869  0.8541201383312269  1.0000
  H   H26       1.0  0.24590101684054144  0.6529738167502361  0.87527770084383  1.0000
  H   H27       1.0  0.23775966201205614  0.8177177036628376  0.8692589907660496  1.0000
  H   H28       1.0  0.30495848155372446  0.8175866409437146  0.8494948947863756  1.0000
  C   C43       1.0  0.1641613761509093  0.4381872728514024  0.8631684199033139  1.0000
  C   C44       1.0  0.1503619869629943  0.40378135854292796  0.877900865767598  1.0000
  C   C45       1.0  0.14423270874872174  0.42103411150818415  0.8973466459154479  1.0000
  C   C46       1.0  0.15314831947438434  0.472275987891751  0.9021843941312181  1.0000
  C   C47       1.0  0.1661263540218651  0.5069322964191402  0.8873872820358912  1.0000
  C   C48       1.0  0.17133120401078675  0.4899427056711102  0.8678455824912586  1.0000
  H   H29       1.0  0.14443686659286356  0.36389614351811456  0.8743600802007069  1.0000
  H   H30       1.0  0.13341990078500796  0.3944223182876909  0.9087126111725579  1.0000
  H   H31       1.0  0.17266508359418142  0.5466891847518521  0.8910053317060957  1.0000
  H   H32       1.0  0.18199042677516333  0.5166401649139355  0.8564699833703037  1.0000
  C   C49       1.0  0.7989620909779754  0.39974053075031013  0.012310521183554135  1.0000
  C   C50       1.0  0.8155133025913655  0.4205747854435879  0.029780136447922212  1.0000
  C   C51       1.0  0.8546298577787921  0.4474511601999748  0.0295302520910119  1.0000
  C   C52       1.0  0.8775303956163484  0.45354554350893334  0.011816756643752813  1.0000
  C   C53       1.0  0.8602390941412791  0.43431921478657737  0.9941824732912923  1.0000
  C   C54       1.0  0.8211061523324606  0.407206304449027  0.9944348992462994  1.0000
  H   H33       1.0  0.7984049334232435  0.4153327107018431  0.04362994982993795  1.0000
  H   H34       1.0  0.8670052588948841  0.46330445127132136  0.043099795021634524  1.0000
  H   H35       1.0  0.8777517921955942  0.438966308109963  0.980411143541818  1.0000
  H   H36       1.0  0.8087759696485405  0.3909662976901109  0.9809052305401786  1.0000
  C   C55       1.0  0.6552378760722468  0.4536671978453414  0.9170163485136228  1.0000
  C   C56       1.0  0.6511002671402029  0.5025526949757987  0.9082955266174684  1.0000
  C   C57       1.0  0.6709493598680667  0.5130080395361263  0.8899756262684779  1.0000
  C   C58       1.0  0.6942167771462856  0.4742795731444236  0.880272620361368  1.0000
  C   C59       1.0  0.6983121157015498  0.4255730656466539  0.8891054055681515  1.0000
  C   C60       1.0  0.6792962950789307  0.41552123887929016  0.9075130458461143  1.0000
  H   H37       1.0  0.6328050789967898  0.5323533468264456  0.9156936677616783  1.0000
  H   H38       1.0  0.6679152670468643  0.5508290613411466  0.8833312352098873  1.0000
  H   H39       1.0  0.7162675484928787  0.39545197702052837  0.8818480111471063  1.0000
  H   H40       1.0  0.68297485400399  0.3779483861812072  0.914226885010812  1.0000
  C   C61       1.0  0.7342239866850919  0.6999915361325466  0.9443970257598469  1.0000
  C   C62       1.0  0.7280965310179911  0.7514262308730365  0.9387279540797008  1.0000
  C   C63       1.0  0.7157507080025642  0.7638638979101062  0.9193501602044843  1.0000
  C   C64       1.0  0.7111039398297888  0.7250407279752368  0.9052402861827629  1.0000
  C   C65       1.0  0.7190441502932623  0.6736304402444004  0.910554022771113  1.0000
  C   C66       1.0  0.730385428775256  0.6611075371146878  0.930160341586121  1.0000
  H   H41       1.0  0.7328825326837984  0.7819282484200035  0.9491954216141906  1.0000
  H   H42       1.0  0.7100955793611362  0.8037881290514328  0.9152900648220473  1.0000
  H   H43       1.0  0.7155947287964386  0.6434503250537337  0.89967862690356  1.0000
  H   H44       1.0  0.7359054364977093  0.6213479385406993  0.9341845808560213  1.0000
  C   C67       1.0  0.33202295151890215  0.3442172852160184  0.5179169664399119  1.0000
  C   C68       1.0  0.2899356494345003  0.3493096570737266  0.5108285990004753  1.0000
  C   C69       1.0  0.2823758934679123  0.3541952303743087  0.4904226700770533  1.0000
  C   C70       1.0  0.31693583939973025  0.354160338665886  0.4770792059043101  1.0000
  C   C71       1.0  0.359074781698518  0.35113572633336426  0.4842366409573995  1.0000
  C   C72       1.0  0.36662354654187673  0.3460552083615731  0.5046322554188444  1.0000
  H   H45       1.0  0.26322893983585954  0.34981666227596686  0.5211188988067728  1.0000
  H   H46       1.0  0.24987444874254292  0.35886644266537876  0.48505428332815215  1.0000
  H   H47       1.0  0.3859262712058774  0.3516451541192174  0.4739800088386607  1.0000
  H   H48       1.0  0.39926408051269224  0.3426069917692737  0.5099908107279018  1.0000
  C   C73       1.0  0.4915905766856251  0.7185534102105335  0.7180716041045702  1.0000
  C   C74       1.0  0.5044672826453661  0.7677439643135672  0.7118887590982413  1.0000
  C   C75       1.0  0.4923004570715805  0.8113134479802018  0.7227792159928862  1.0000
  C   C76       1.0  0.3062858693015982  0.1906330088108701  0.7932071059756404  1.0000
  C   C77       1.0  0.3334351910354902  0.20260333526045016  0.7773239023321078  1.0000
  C   C78       1.0  0.3347383797960835  0.17071266893095993  0.7607094144679215  1.0000
  H   H49       1.0  0.5231065884054582  0.7723913620605833  0.6984929843407137  1.0000
  H   H50       1.0  0.5024623932929678  0.8492414335684897  0.717918396105794  1.0000
  H   H51       1.0  0.35314700355436185  0.23694168635037638  0.777767966230158  1.0000
  H   H52       1.0  0.35466022328293095  0.18124248646086283  0.7482888004584818  1.0000
  C   C79       1.0  0.6912702777606583  0.690789572437424  0.7349448566465202  1.0000
  C   C80       1.0  0.7155745172440179  0.6935024923978852  0.7523449812994536  1.0000
  C   C81       1.0  0.6963372852893022  0.6824640928408678  0.7707536763420378  1.0000
  C   C82       1.0  0.6525430978179765  0.6699964364253128  0.7717718670132203  1.0000
  C   C83       1.0  0.628091591629032  0.6690471883023041  0.7544733667560749  1.0000
  C   C84       1.0  0.6474132259976577  0.6792800553150407  0.7361343478077028  1.0000
  H   H53       1.0  0.749289298534119  0.7035466283350693  0.7516067263442314  1.0000
  H   H54       1.0  0.7153329359868842  0.6838496501055538  0.784123276155484  1.0000
  H   H55       1.0  0.5941186303322699  0.6599612443566322  0.7552134639562031  1.0000
  H   H56       1.0  0.6280129939467365  0.6782861256518866  0.7229670613486963  1.0000
  C   C85       1.0  0.5185550432733855  0.5232508031425033  0.5965641310847245  1.0000
  C   C86       1.0  0.526492565895183  0.5740651259700619  0.6023879752672937  1.0000
  C   C87       1.0  0.5627314404439343  0.5855934531145129  0.6138390538218711  1.0000
  C   C88       1.0  0.5906514074379998  0.5461865318713744  0.6198737578289202  1.0000
  C   C89       1.0  0.5834303914511081  0.49564561058825213  0.6135608059958993  1.0000
  C   C90       1.0  0.5473482871548545  0.4841419207354297  0.6019753232972255  1.0000
  H   H57       1.0  0.5042647134236575  0.6044292908580938  0.5982842935281353  1.0000
  H   H58       1.0  0.5689994891900003  0.6249661305915758  0.6179603227137039  1.0000
  H   H59       1.0  0.6050091380099648  0.46499691976115803  0.618153832809897  1.0000
  H   H60       1.0  0.5410732295221522  0.44470250531602784  0.5978953560625438  1.0000
  C   C91       1.0  0.4418895756011122  0.2367434897579448  0.6494327180948175  1.0000
  C   C92       1.0  0.46134513443717734  0.19275929890427257  0.641470888693523  1.0000
  C   C93       1.0  0.4837202695609877  0.19588608236135197  0.6234025682413764  1.0000
  C   C94       1.0  0.48702469633070133  0.24317578357626957  0.6133862306379658  1.0000
  C   C95       1.0  0.4689832759952513  0.2874499371749498  0.6217345695469915  1.0000
  C   C96       1.0  0.44602884534257975  0.28414588614423947  0.6395996732844555  1.0000
  H   H61       1.0  0.45822617142474015  0.15614059772917677  0.6489515543580989  1.0000
  H   H62       1.0  0.4975364497372355  0.1614556494692545  0.6170022925550347  1.0000
  H   H63       1.0  0.472936819104962  0.32436891238988885  0.6145174175312257  1.0000
  H   H64       1.0  0.431499914709365  0.3183789530455667  0.6458439983604807  1.0000
  C   C97       1.0  0.3920613019453576  0.44499053388988613  0.2252549704925621  1.0000
  C   C98       1.0  0.3907225664166226  0.4928169271779255  0.21560234831329608  1.0000
  C   C99       1.0  0.35668878517461916  0.5269174946486057  0.21913409561250874  1.0000
  C   C100      1.0  0.32457035298967657  0.5139568843069479  0.2327870954852472  1.0000
  C   C101      1.0  0.32467782306934706  0.46497005022319127  0.2416389943407585  1.0000
  C   C102      1.0  0.3580861187234913  0.4300941362589047  0.23761428922540723  1.0000
  H   H65       1.0  0.416424499568766  0.5042018758297452  0.20572689251375964  1.0000
  H   H66       1.0  0.3562897202145567  0.5640214559133635  0.2118101337198245  1.0000
  H   H67       1.0  0.29976122622709594  0.45417831751186444  0.2519151229874381  1.0000
  H   H68       1.0  0.3587794516407422  0.3928191141831662  0.2449158010864957  1.0000
  C   C103      1.0  0.29049519757981324  0.7352990373711926  0.019018176701044612  1.0000
  C   C104      1.0  0.25380036895658725  0.7181963461058221  0.009132911424981183  1.0000
  C   C105      1.0  0.2578544467289149  0.6932584004025478  0.9908987134191524  1.0000
  C   C106      1.0  0.2985801720551715  0.684558876097519  0.9827222110191599  1.0000
  C   C107      1.0  0.3353483108989934  0.7009326012388633  0.9927343046473324  1.0000
  C   C108      1.0  0.33130519088461785  0.7263365161888208  0.01091904843728031  1.0000
  H   H69       1.0  0.2223558765586962  0.7232913950405695  0.01571678156715437  1.0000
  H   H70       1.0  0.22952894072098012  0.6802309510399972  0.9832620737807012  1.0000
  H   H71       1.0  0.3669012450283645  0.6941249190045536  0.9864312501172615  1.0000
  H   H72       1.0  0.3597746856222844  0.7393153929482523  0.0185695039846574  1.0000
  C   C109      1.0  0.540488193702486  0.7394274530450914  0.0396803934919178  1.0000
  C   C110      1.0  0.6616597769927058  0.1730604392031927  0.031754173885712556  1.0000
  C   C111      1.0  0.6566441406086381  0.18407001811349955  0.011528677157954137  1.0000
  C   C112      1.0  0.6156813697993604  0.1835414726087368  0.0029987273299434403  1.0000
  C   C113      1.0  0.6112571130041812  0.7630884367352083  0.027140487609887964  1.0000
  C   C114      1.0  0.5773244596299193  0.7275493371959576  0.028555878878738696  1.0000
  H   H73       1.0  0.6933099499059382  0.17390079626887878  0.03837454259886397  1.0000
  H   H74       1.0  0.6845477286952262  0.1925912368644012  0.002591988654680799  1.0000
  H   H75       1.0  0.6392319291271874  0.7543497957811944  0.018184701520505157  1.0000
  H   H76       1.0  0.5792683112779936  0.691318140186437  0.020738129232909658  1.0000
  C   C115      1.0  0.44959466920646957  0.6416376694319992  0.1687343850630682  1.0000
  C   C116      1.0  0.4460174524837055  0.6844695207302192  0.15618408975446357  1.0000
  C   C117      1.0  0.42152401214607843  0.6814854806427985  0.13890184972531125  1.0000
  C   C118      1.0  0.399735081612704  0.6362548890296221  0.13426178899906016  1.0000
  C   C119      1.0  0.40265081837007904  0.5934545934217696  0.1469593671078976  1.0000
  C   C120      1.0  0.42784391709550507  0.596037213044536  0.16417115077814093  1.0000
  H   H77       1.0  0.4624404473252102  0.7199832778590901  0.1597501728992408  1.0000
  H   H78       1.0  0.41927385512789794  0.7143532732361281  0.12921699931410416  1.0000
  H   H79       1.0  0.3856443300839665  0.558334248908655  0.14345646968973572  1.0000
  H   H80       1.0  0.4296424345338661  0.5632245036547723  0.17407853447129804  1.0000
  C   C121      1.0  0.5537846299398873  0.3943874704492434  0.11568999435788717  1.0000
  C   C122      1.0  0.5366281793986216  0.43674531932047156  0.12577625920428429  1.0000
  C   C123      1.0  0.5567326601914534  0.45499937569461124  0.1429130167582795  1.0000
  C   C124      1.0  0.5938891977852507  0.4307691655554673  0.15005809064447861  1.0000
  C   C125      1.0  0.6119396556528046  0.38968187898678375  0.13952850000870393  1.0000
  C   C126      1.0  0.5918144086034856  0.3713653562957916  0.12240444803969737  1.0000
  H   H81       1.0  0.5071866960823009  0.4545843459785596  0.12067710797877958  1.0000
  H   H82       1.0  0.5436930469818839  0.4880542840970575  0.15049037200619791  1.0000
  H   H83       1.0  0.6409912091073253  0.3712583860552169  0.14489403687952268  1.0000
  H   H84       1.0  0.6058365876038648  0.3394975231881685  0.11444201813521343  1.0000
  C   C127      1.0  0.09010337270763835  0.643882000606694  0.5473042918270847  1.0000
  C   C128      1.0  0.06254426435389315  0.2744251613704202  0.5240051241654095  1.0000
  C   C129      1.0  0.07100153096696471  0.313977625008252  0.5103178325913865  1.0000
  C   C130      1.0  0.08823683188771136  0.30217370203597904  0.4917423619298596  1.0000
  C   C131      1.0  0.11509991474654231  0.621459644986847  0.5143176487613835  1.0000
  C   C132      1.0  0.11939957864707006  0.6182754662585259  0.5349838658459698  1.0000
  H   H85       1.0  0.051861342455774784  0.2840486426664028  0.5387298167704536  1.0000
  H   H86       1.0  0.06574070825070155  0.3538205186029167  0.5143932672224134  1.0000
  H   H87       1.0  0.13772611565583884  0.6015708154965616  0.5048313390196675  1.0000
  H   H88       1.0  0.14553749265482693  0.5962140245759336  0.5414032017089225  1.0000
  C   C133      1.0  0.8708942404387724  0.4942730305305894  0.7918549760943344  1.0000
  C   C134      1.0  0.8869194883904205  0.5373590097277426  0.7816380907508028  1.0000
  C   C135      1.0  0.8769270528461933  0.587285138994151  0.7881274967955998  1.0000
  C   C136      1.0  0.8502657781071328  0.5942115543475813  0.8046329495146859  1.0000
  C   C137      1.0  0.8348296751093911  0.5511341399685575  0.8150241386463631  1.0000
  C   C138      1.0  0.8452732358261213  0.501243607482517  0.8086960002057932  1.0000
  H   H89       1.0  0.9064749220512883  0.5324610260896357  0.768542900019643  1.0000
  H   H90       1.0  0.8888901096126007  0.6204857434044676  0.7800422414300109  1.0000
  H   H91       1.0  0.8148126541821876  0.5562033127515346  0.8280051735179339  1.0000
  H   H92       1.0  0.8329820862037185  0.4681770554288925  0.8167198113008516  1.0000
  C   C139      1.0  0.07359767197594147  0.3218544062861597  0.7542379251115887  1.0000
  C   C140      1.0  0.11406886861286336  0.29998601001378206  0.757820258042266  1.0000
  C   C141      1.0  0.11889285654681844  0.2615678151256431  0.7723288606998808  1.0000
  C   C142      1.0  0.08321875259815448  0.24452876964953862  0.7831649004465989  1.0000
  C   C143      1.0  0.0423548385645478  0.26429846961423786  0.7788336101557563  1.0000
  C   C144      1.0  0.037554421917094905  0.30299717828397543  0.7643903285918413  1.0000
  H   H93       1.0  0.14201578146263047  0.314293830927466  0.7499286841790673  1.0000
  H   H94       1.0  0.1503800430634436  0.24558144578916674  0.7752895014561624  1.0000
  H   H95       1.0  0.014683004085517037  0.251724165539597  0.7872510137414735  1.0000
  H   H96       1.0  0.006258317487606524  0.31968789386257473  0.7617704783234683  1.0000
  C   C145      1.0  0.9575674919467271  0.6078994412408392  0.6953572880083986  1.0000
  C   C146      1.0  0.9294728241847723  0.5740516233083862  0.6859318018270752  1.0000
  C   C147      1.0  0.918548070813236  0.5819553043621095  0.6660629693541381  1.0000
  C   C148      1.0  0.9365566381287873  0.6229488629515244  0.6553902968135032  1.0000
  C   C149      1.0  0.9649922688774215  0.6567093756315311  0.6647036852923616  1.0000
  C   C150      1.0  0.9750801213701779  0.6495680152504372  0.6848026066673317  1.0000
  H   H97       1.0  0.9158900391493933  0.5417887274846129  0.6939439065522202  1.0000
  H   H98       1.0  0.8965844527970234  0.5557224949983038  0.6588911692079196  1.0000
  H   H99       1.0  0.9790355193777864  0.6883756486689201  0.6564754882019591  1.0000
  H   H100      1.0  0.9970379553233792  0.6756783610568882  0.6920423461063752  1.0000
  C   C151      1.0  0.9243499479556881  0.36094950477056725  0.6661875229173709  1.0000
  C   C152      1.0  0.9689384822168758  0.3612118386813992  0.6688553458647581  1.0000
  C   C153      1.0  0.9964938303429789  0.349587706705147  0.6530226526902023  1.0000
  C   C154      1.0  0.979556441316345  0.3365889025809387  0.6345462436703898  1.0000
  C   C155      1.0  0.9349504707761285  0.334911840029949  0.6319764409998896  1.0000
  C   C156      1.0  0.9073719192957126  0.34713549200841964  0.6477893727945867  1.0000
  H   H101      1.0  0.9823386276733892  0.3693871673822173  0.6831833329103753  1.0000
  H   H102      1.0  0.030980865275103797  0.3499888441545921  0.6551768760946568  1.0000
  H   H103      1.0  0.9216606001728163  0.32551613344797803  0.6176646062446136  1.0000
  H   H104      1.0  0.8728776448208363  0.34661657938247425  0.6456593414297301  1.0000
  C   C157      1.0  0.5837814179921144  0.5531214374668356  0.5073265050326429  1.0000
  C   C158      1.0  0.5970961257425618  0.52073601840286  0.4919515691688553  1.0000
  C   C159      1.0  0.5836631835478145  0.4691035121792883  0.4916642077842111  1.0000
  C   C160      1.0  0.558264711110744  0.4494658124590798  0.5071050568656343  1.0000
  C   C161      1.0  0.5455379383711689  0.48192468032611313  0.5225574850516213  1.0000
  C   C162      1.0  0.5576917421217151  0.5338171481778825  0.5225131932792584  1.0000
  H   H105      1.0  0.6170897444784038  0.5356855420138491  0.48010282996562226  1.0000
  H   H106      1.0  0.5927555831708078  0.44448191172360735  0.4794730616766669  1.0000
  H   H107      1.0  0.526529204957407  0.467156131773068  0.5346780808592734  1.0000
  H   H108      1.0  0.5477802968908323  0.5584501782683281  0.5345361189694772  1.0000
  C   C163      1.0  0.8238814526454664  0.6712815966015674  0.5401034892403491  1.0000
  C   C164      1.0  0.8312948292862021  0.7116215963196659  0.5266419172425312  1.0000
  C   C165      1.0  0.8616156660359899  0.7498739237676094  0.5311161299472482  1.0000
  C   C166      1.0  0.8839020694020409  0.7479190027495186  0.549112595219776  1.0000
  C   C167      1.0  0.8742579407897955  0.7094420862268107  0.5630105473913072  1.0000
  C   C168      1.0  0.8445233474605023  0.6709614121997346  0.558461657141276  1.0000
  H   H109      1.0  0.8149483606515326  0.7122995399942399  0.5125104547724892  1.0000
  H   H110      1.0  0.8687537025794726  0.7799538166377725  0.5204198275813043  1.0000
  H   H111      1.0  0.89025214838619  0.708703390258806  0.5771935715707308  1.0000
  H   H112      1.0  0.8385093999632821  0.6401285832601398  0.5689935642216318  1.0000
  C   C169      1.0  0.6654584860101108  0.43119847414854395  0.295103279930909  1.0000
  C   C170      1.0  0.6294640310974816  0.4191855333335358  0.28363734517772826  1.0000
  C   C171      1.0  0.6066682572302426  0.45837708727879767  0.2738176289360465  1.0000
  C   C172      1.0  0.6195586152910156  0.5097143779884218  0.2756288259398101  1.0000
  C   C173      1.0  0.6546570522751306  0.5220057251958494  0.28764495171924115  1.0000
  C   C174      1.0  0.677850481565386  0.48268279338662873  0.2972231825919529  1.0000
  H   H113      1.0  0.619620522161404  0.37941459517547105  0.2821042280768617  1.0000
  H   H114      1.0  0.5789751325813455  0.44879491654572023  0.26499609390679124  1.0000
  H   H115      1.0  0.6644276159569663  0.5617698954643959  0.28921102329925413  1.0000
  H   H116      1.0  0.7052122901983333  0.4921614472810059  0.30622995027063277  1.0000
  C   C175      1.0  0.9156140752888873  0.39289548240670524  0.27260258651799213  1.0000
  C   C176      1.0  0.7733759376615373  0.789405039336865  0.2794566711154324  1.0000
  C   C177      1.0  0.7819458228825875  0.7755242767299201  0.2598102006619457  1.0000
  C   C178      1.0  0.8233255708362006  0.7601510390333661  0.2541743894332618  1.0000
  C   C179      1.0  0.9668122298253804  0.33655054816594154  0.2562300245996838  1.0000
  C   C180      1.0  0.9581246497430399  0.37969729009405684  0.2679949044081192  1.0000
  H   H117      1.0  0.7412379021542685  0.8008526516699366  0.2836563399343126  1.0000
  H   H118      1.0  0.7566131170094809  0.7773631289233405  0.24892437172745646  1.0000
  H   H119      1.0  0.9996462761495633  0.32544045096216634  0.2535021075638421  1.0000
  H   H120      1.0  0.9844120407876034  0.40215043430749575  0.27390692208414325  1.0000
  C   C181      1.0  0.7952267514270217  0.5309472867945898  0.38908051379488034  1.0000
  C   C182      1.0  0.7955161185786948  0.4801464058574719  0.396115764569859  1.0000
  C   C183      1.0  0.7818275696922011  0.4690713866149142  0.4154917434493902  1.0000
  C   C184      1.0  0.7676090236848718  0.5086740827706935  0.4278851702217199  1.0000
  C   C185      1.0  0.7680086979416468  0.5597347879823931  0.4209957205843692  1.0000
  C   C186      1.0  0.7820265475145357  0.5708815829902024  0.4016323094520241  1.0000
  H   H121      1.0  0.8063886576493979  0.4493545663035375  0.3866392169109324  1.0000
  H   H122      1.0  0.7822632741749918  0.42979538748450585  0.42090016111082224  1.0000
  H   H123      1.0  0.7572057219272629  0.5906195320895014  0.4305070509633638  1.0000
  H   H124      1.0  0.7818611870296215  0.6103297954376372  0.3963137942177661  1.0000
  C   C187      1.0  0.6590452912584687  0.72949783976923  0.39093472132305535  1.0000
  C   C188      1.0  0.641858498449594  0.7152662004569288  0.4093353074477936  1.0000
  C   C189      1.0  0.6663677077813379  0.720854474789626  0.4265762263489575  1.0000
  C   C190      1.0  0.7082578903125294  0.7402208607153004  0.4254307886764038  1.0000
  C   C191      1.0  0.7254613560997611  0.7544637063959676  0.40703436227569906  1.0000
  C   C192      1.0  0.7010886553932436  0.7484530531007221  0.38976556938062557  1.0000
  H   H125      1.0  0.6093707080840681  0.7005192915224221  0.4103079883713166  1.0000
  H   H126      1.0  0.652405088308072  0.7112714456368365  0.44080425332988266  1.0000
  H   H127      1.0  0.7579935935112767  0.7688127857485031  0.4061469221421928  1.0000
  H   H128      1.0  0.7152506042876221  0.7570343308279578  0.37553028360242985  1.0000
  Fe  Fe65      1.0  0.6494983505003435  0.7758581277885799  0.34518164682243174  1.0000
  S   S129      1.0  0.6958328469721777  0.8399572061102045  0.35070444519206223  1.0000
  S   S130      1.0  0.8514690977103554  0.28466007993591913  0.3587795593021252  1.0000
  Fe  Fe66      1.0  0.6384984221816956  0.8052385872572843  0.3018597438333832  1.0000
  S   S131      1.0  0.6839425112805363  0.8722634858789517  0.30375529017377406  1.0000
  S   S132      1.0  0.60310251188895  0.7803437844880553  0.27457398171052133  1.0000
  Fe  Fe67      1.0  0.7244783758862089  0.8173176870164793  0.32155970484768015  1.0000
  S   S133      1.0  0.79568406258721  0.8069042104332085  0.31802575724801774  1.0000
  Fe  Fe68      1.0  0.6505318120845774  0.8877804659970362  0.3325818638927194  1.0000
  S   S134      1.0  0.6307304865156699  0.9644571101529783  0.34456741618805375  1.0000
  S   S135      1.0  0.6817636270031143  0.7488435327228573  0.3174376867933447  1.0000
  S   S136      1.0  0.6015453276275504  0.8254885477671235  0.3293217828911896  1.0000
  Fe  Fe69      1.0  0.6770442964015719  0.08712431350240091  0.4517484091266865  1.0000
  S   S137      1.0  0.7262733864746309  0.024314770898643534  0.4543738371639675  1.0000
  S   S138      1.0  0.6071026745801648  0.06705222392676724  0.45239726714081374  1.0000
  Fe  Fe70      1.0  0.7442128714337307  0.17001938466176325  0.4459326953523883  1.0000
  S   S139      1.0  0.799335295139413  0.11442281179884106  0.4479458805842058  1.0000
  S   S140      1.0  0.7529008476267923  0.2540524913843014  0.4396411890806372  1.0000
  Fe  Fe71      1.0  0.7582239903664321  0.06416707709750025  0.4288678660422712  1.0000
  S   S141      1.0  0.782188492356321  0.021301786230033537  0.4022495652549388  1.0000
  Fe  Fe72      1.0  0.7617609962336999  0.08082330503468493  0.47323012553929017  1.0000
  S   S142      1.0  0.7951839788820217  0.0558482023407898  0.5009953260465762  1.0000
  S   S143      1.0  0.7062344148048778  0.12295275834975339  0.42469402699787256  1.0000
  S   S144      1.0  0.7094560007011  0.14067017383805336  0.47286157064195383  1.0000
  Fe  Fe73      1.0  0.9957020514333718  0.9476344831151879  0.7282002444217383  1.0000
  S   S145      1.0  0.060645618581930405  0.9855762837883844  0.726094361763648  1.0000
  S   S146      1.0  0.9813905788167658  0.8689967688001687  0.7158727020138165  1.0000
  Fe  Fe74      1.0  0.9550609397461939  0.03573931943442665  0.7506306285265459  1.0000
  S   S147      1.0  0.015838542761807073  0.0812992831810313  0.7503359505084494  1.0000
  S   S148      1.0  0.8987720406027816  0.07736633168159934  0.7642080974251351  1.0000
  Fe  Fe75      1.0  0.022699234329847107  0.056627159956310846  0.7189485594660381  1.0000
  S   S149      1.0  0.04613317474658274  0.11710947171672514  0.6977715315495999  1.0000
  Fe  Fe76      1.0  0.048825396903456886  0.007032554717298911  0.7577524771680021  1.0000
  S   S150      1.0  0.10096377629510966  0.010976902081847983  0.7807337788450592  1.0000
  S   S151      1.0  0.9584354635197262  0.017602281068471726  0.7182643258175724  1.0000
  S   S152      1.0  0.9873750340468614  0.9626565288653464  0.7607898021180083  1.0000
  Fe  Fe77      1.0  0.9214252478299108  0.22186706681922486  0.5674552995758274  1.0000
  S   S153      1.0  0.9555892063100102  0.14659791508975983  0.5627302385216918  1.0000
  S   S154      1.0  0.8623324891125816  0.24469922049912274  0.550281036306132  1.0000
  Fe  Fe78      1.0  0.9902445499048952  0.26149727499197195  0.5951002950067825  1.0000
  S   S155      1.0  0.030696192728425054  0.19006156550425324  0.5922870469112241  1.0000
  S   S156      1.0  0.04462109318010721  0.8530072685925191  0.6270386238429043  1.0000
  Fe  Fe79      1.0  0.015023439609047617  0.19471401560060553  0.5600567233553113  1.0000
  S   S157      1.0  0.06264426942329182  0.1734648065837887  0.5362392461017338  1.0000
  Fe  Fe80      1.0  0.9676865394523503  0.1490381636931608  0.5953944726780395  1.0000
  S   S158      1.0  0.9601551632748019  0.07896382098410304  0.6147115340498608  1.0000
  S   S159      1.0  0.9800979923580582  0.2702541054454304  0.5623976333367225  1.0000
  S   S160      1.0  0.9280695852723009  0.22004489932688087  0.6005611997960085  1.0000
  Fe  Fe81      1.0  0.5252625836009038  0.2834763374451661  0.09564787184402304  1.0000
  S   S161      1.0  0.5765673383139451  0.2356544631533315  0.10998632217347568  1.0000
  S   S162      1.0  0.42321251187990466  0.8867073991515282  0.10101286973180068  1.0000
  Fe  Fe82      1.0  0.4738828656760684  0.1894411236491076  0.083654872742406  1.0000
  S   S163      1.0  0.520642540614521  0.1332226200531157  0.09713306069791541  1.0000
  S   S164      1.0  0.4141048921884423  0.1636670289751605  0.06790792757684579  1.0000
  Fe  Fe83      1.0  0.5222523881767952  0.18898815154657456  0.12230610775925878  1.0000
  S   S165      1.0  0.5299907075492525  0.16199540558852266  0.15366230526733202  1.0000
  Fe  Fe84      1.0  0.57059550114186  0.18461904824923914  0.08358853529930561  1.0000
  S   S166      1.0  0.6310169403664816  0.15606046807414442  0.06915956082007152  1.0000
  S   S167      1.0  0.47077790844866724  0.2410697100510124  0.11025647130155516  1.0000
  S   S168      1.0  0.5238867461239918  0.23673436044527363  0.0678950399616576  1.0000
  Fe  Fe85      1.0  0.3824553396328405  0.03142236620252592  0.21429356665230756  1.0000
  S   S169      1.0  0.3358669011910209  0.9696231718227073  0.22273683117017853  1.0000
  S   S170      1.0  0.3605888738437189  0.10463304113286664  0.1997809948801644  1.0000
  Fe  Fe86      1.0  0.46078924671971255  0.9676074087144864  0.2255062515018251  1.0000
  S   S171      1.0  0.42128241705575253  0.8998174212952904  0.23522394220829876  1.0000
  S   S172      1.0  0.5328993272829989  0.9705488266887218  0.22597954895777952  1.0000
  Fe  Fe87      1.0  0.38254561901035244  0.9164380227135543  0.2079786945125006  1.0000
  S   S173      1.0  0.3614183118417382  0.8509697083832497  0.18901688547794543  1.0000
  Fe  Fe88      1.0  0.3786902691888057  0.9589273961388801  0.24911071302829899  1.0000
  S   S174      1.0  0.35393712516887055  0.9484836203592237  0.2798639924481749  1.0000
  S   S175      1.0  0.4258276400417148  0.979230601413257  0.19702672007704197  1.0000
  S   S176      1.0  0.42149117756982407  0.025928787038311807  0.2420600432480477  1.0000
  Fe  Fe89      1.0  0.41797915056750884  0.16029556392951871  0.6888908217460074  1.0000
  S   S177      1.0  0.3676536269837915  0.09860806209465078  0.6885736017536951  1.0000
  S   S178      1.0  0.6063167878811425  0.8115794171096975  0.6354162585851709  1.0000
  Fe  Fe90      1.0  0.47195438244080234  0.10475800782381528  0.7198224467794916  1.0000
  S   S179      1.0  0.42675676538640206  0.03761599737756627  0.7220456715799513  1.0000
  S   S180      1.0  0.5319408098663484  0.11882883561052959  0.7374539696237201  1.0000
  Fe  Fe91      1.0  0.42386261014032894  0.044617641257452156  0.6889885291024983  1.0000
  S   S181      1.0  0.42177162623749886  0.9760665102646369  0.6691223407503217  1.0000
  Fe  Fe92      1.0  0.37430537283385523  0.09729123085534486  0.7215444413174146  1.0000
  S   S182      1.0  0.3153663561750124  0.08283282632927591  0.7403848567407338  1.0000
  S   S183      1.0  0.4741209614422666  0.1061588761168073  0.6866232485249165  1.0000
  S   S184      1.0  0.4198183572743886  0.16433430456066622  0.7220276249624061  1.0000
  Fe  Fe93      1.0  0.49486031628358734  0.9460414614129984  0.5397559689236061  1.0000
  S   S185      1.0  0.4403789182975119  0.9980410624902408  0.5309199708365162  1.0000
  S   S186      1.0  0.5646529922405944  0.9619573463641253  0.5345527900823017  1.0000
  Fe  Fe94      1.0  0.4380261537242982  0.8749298712535878  0.5638047114959924  1.0000
  S   S187      1.0  0.37806121518467856  0.9202933432864298  0.5574851555567282  1.0000
  S   S188      1.0  0.4378933326374389  0.805187945979399  0.5835752151050811  1.0000
  Fe  Fe95      1.0  0.40425361966243206  0.9240051543430732  0.5265344389481088  1.0000
  S   S189      1.0  0.3595905704004058  0.9133252484442252  0.5008828550491098  1.0000
  Fe  Fe96      1.0  0.4192639557049035  0.9897956605827691  0.5624794929963177  1.0000
  S   S190      1.0  0.40295216074683615  0.05778419163816029  0.581403057607  1.0000
  S   S191      1.0  0.4610969437843843  0.8723852316494103  0.5323773020150039  1.0000
  S   S192      1.0  0.47681437174827346  0.9441586083412956  0.5717753553633718  1.0000
  Fe  Fe97      1.0  0.7057276274061209  0.8329348865604411  0.016202810213933994  1.0000
  S   S193      1.0  0.7420109713455745  0.7590118601625447  0.020651711327725142  1.0000
  S   S194      1.0  0.6479282099188602  0.8577012243015828  0.03380448691231752  1.0000
  Fe  Fe98      1.0  0.7652987697430451  0.8705239324886599  0.9838714118626856  1.0000
  S   S195      1.0  0.8082540115710429  0.8011753365170453  0.9859683711897885  1.0000
  S   S196      1.0  0.780529994772478  0.9293526849248086  0.9603345260173471  1.0000
  Fe  Fe99      1.0  0.7467298811235417  0.7569896421693623  0.9874641765322352  1.0000
  S   S197      1.0  0.7768398798935071  0.25337313022546293  0.9212325805996125  1.0000
  Fe  Fe100     1.0  0.8007901613285522  0.8090421069216707  0.018784850052240065  1.0000
  S   S198      1.0  0.8533631846292745  0.7908484787217355  0.04069437670182774  1.0000
  S   S199      1.0  0.7037116222637484  0.8258393236249354  0.9832009163746053  1.0000
  S   S200      1.0  0.7642432102343711  0.8836004103981849  0.016716953246404875  1.0000
  Fe  Fe101     1.0  0.7316460027350622  0.9913020162954975  0.837277904145576  1.0000
  S   S201      1.0  0.6758231183074652  0.9386584101289632  0.8430831647304589  1.0000
  S   S202      1.0  0.7961576700921176  0.9560666081897768  0.8306264267091821  1.0000
  Fe  Fe102     1.0  0.6796147373703176  0.0875623370736438  0.8438059439607413  1.0000
  S   S203      1.0  0.6187314607200968  0.04396862708046023  0.8500486437434126  1.0000
  S   S204      1.0  0.6790112582584471  0.1742139299930554  0.8455098641380783  1.0000
  Fe  Fe103     1.0  0.6606601453853633  0.9916714048285785  0.8681318244295707  1.0000
  S   S205      1.0  0.6344624451822952  0.9613281092161534  0.8969745540577554  1.0000
  Fe  Fe104     1.0  0.6382237995418006  0.994493503041305  0.8244694838800838  1.0000
  S   S206      1.0  0.588116001696909  0.9609906559777477  0.804233268990317  1.0000
  S   S207      1.0  0.7200929747104019  0.039448865925509224  0.8642847623488121  1.0000
  S   S208      1.0  0.69552160370959  0.04286729126551059  0.8162800466143697  1.0000
  Fe  Fe105     1.0  0.35893648101598136  0.9154794213838662  0.8085248173528159  1.0000
  S   S209      1.0  0.30458237573017055  0.8600452919653951  0.8124463775637512  1.0000
  S   S210      1.0  0.3644980086679815  0.9832054570399714  0.8287991067775871  1.0000
  Fe  Fe106     1.0  0.4009387980415323  0.8532427689401761  0.7760364956466782  1.0000
  S   S211      1.0  0.35177903734582483  0.7904037266896845  0.7779360462356264  1.0000
  S   S212      1.0  0.4534309706297363  0.8613721137764767  0.7533744431080395  1.0000
  Fe  Fe107     1.0  0.30453981756574094  0.855468174382195  0.779471531874671  1.0000
  S   S213      1.0  0.24462625040637476  0.8465843513167451  0.7616211555895739  1.0000
  Fe  Fe108     1.0  0.35641695456005923  0.8001301567374954  0.8109461788269672  1.0000
  S   S214      1.0  0.1867111343502696  0.19815444937768123  0.8925221280385566  1.0000
  S   S215      1.0  0.35309831217310544  0.9182007338788021  0.7754876986775654  1.0000
  S   S216      1.0  0.4113827023730031  0.8560006408440343  0.8088294515634188  1.0000
  Fe  Fe109     1.0  0.40551581783887947  0.006319935650447306  0.9738552440349317  1.0000
  S   S217      1.0  0.3469328985607759  0.05643996558372044  0.9704947644282844  1.0000
  S   S218      1.0  0.45517867311893323  0.010862718082673029  0.9978642614804547  1.0000
  Fe  Fe110     1.0  0.39221970733150424  0.9538349110532708  0.9345500939217739  1.0000
  S   S219      1.0  0.33280406534287743  0.9992472132122332  0.9275524448709468  1.0000
  S   S220      1.0  0.415563434482217  0.8953854737899609  0.912872896053023  1.0000
  Fe  Fe111     1.0  0.3696717793223832  0.0664003764868808  0.9392409213720592  1.0000
  S   S221      1.0  0.37268554291795114  0.14228619047906066  0.9233770874252141  1.0000
  Fe  Fe112     1.0  0.3157445495288052  0.9844030590121788  0.9592986756188924  1.0000
  S   S222      1.0  0.24783137490170934  0.9635409337507569  0.9669646076022171  1.0000
  S   S223      1.0  0.4308669500812693  0.02218301153621338  0.9433277128197958  1.0000
  S   S224      1.0  0.3723252025358595  0.9328362146913097  0.9654409214064168  1.0000
  Fe  Fe113     1.0  0.010894247832915704  0.24686038944662103  0.22164279343153076  1.0000
  S   S225      1.0  0.05995991081234475  0.30905864360481683  0.22478853509391158  1.0000
  S   S226      1.0  0.943061407567055  0.25487127545839305  0.23290102281740024  1.0000
  Fe  Fe114     1.0  0.07341707954626453  0.17581670123092996  0.20032357334355197  1.0000
  S   S227      1.0  0.12771206638717314  0.23266125363971746  0.2016857454862072  1.0000
  S   S228      1.0  0.08876906569382181  0.09534813339924586  0.19018264315801361  1.0000
  Fe  Fe115     1.0  0.10503364133148674  0.24512820688385584  0.23266761914097245  1.0000
  S   S229      1.0  0.14828882800099574  0.252373020529721  0.258761602012831  1.0000
  Fe  Fe116     1.0  0.07741476510956447  0.2911918163383924  0.19345273379359035  1.0000
  S   S230      1.0  0.012085936942265896  0.8443169040361616  0.19157442474562164  1.0000
  S   S231      1.0  0.05462016428564387  0.18387337235766887  0.23219858630945767  1.0000
  S   S232      1.0  0.024482143145310387  0.23339186618048902  0.18938090711808356  1.0000
  Fe  Fe117     1.0  0.07108336367468393  0.907888350758188  0.053776352179330016  1.0000
  S   S233      1.0  0.1333637624596813  0.8695334142549519  0.061723231560806  1.0000
  S   S234      1.0  0.035731798985464636  0.8903891503385214  0.025642382938799214  1.0000
  Fe  Fe118     1.0  0.07283490964698358  0.9789404441588523  0.08933579202394737  1.0000
  S   S235      1.0  0.1358475327269253  0.9472206438250529  0.10031919421553555  1.0000
  S   S236      1.0  0.03326955334713211  0.04313888540154287  0.10262432359524551  1.0000
  Fe  Fe119     1.0  0.1558574895938083  0.9495579185589753  0.06841120930522938  1.0000
  S   S237      1.0  0.22247366453610318  0.9738465556648052  0.05962310849890604  1.0000
  Fe  Fe120     1.0  0.10763832406279494  0.8703429913121045  0.0927222247813699  1.0000
  S   S238      1.0  0.1126115436767221  0.7998518792478515  0.11202609160770487  1.0000
  S   S239      1.0  0.09551186350046703  0.9882594596255283  0.05796497143864664  1.0000
  S   S240      1.0  0.042928161352690175  0.9016027115110486  0.08425764242322634  1.0000
  Fe  Fe121     1.0  0.13904759150022553  0.6690553073254433  0.4662145808842628  1.0000
  S   S241      1.0  0.1959897039118534  0.6160326274311474  0.46776409848227246  1.0000
  S   S242      1.0  0.07497505469271681  0.6535513329510166  0.4802876055715721  1.0000
  Fe  Fe122     1.0  0.18658937405351048  0.7515297788366582  0.4434886404637902  1.0000
  S   S243      1.0  0.24832900411031894  0.7065807403207089  0.4429464708464408  1.0000
  S   S244      1.0  0.18630921141325882  0.8320409570280615  0.4310434164472156  1.0000
  Fe  Fe123     1.0  0.2065156845053995  0.6393309314281107  0.4360734776672699  1.0000
  S   S245      1.0  0.1953403763108952  0.13728670681607302  0.4434611877694435  1.0000
  Fe  Fe124     1.0  0.23326292332785595  0.6874551112811863  0.47454893035247747  1.0000
  S   S246      1.0  0.2844937516993497  0.6874024393968444  0.4978838673635222  1.0000
  S   S247      1.0  0.14557821523534584  0.6854084700870138  0.43366658612406866  1.0000
  S   S248      1.0  0.17538098840798336  0.738876292086122  0.4759717683551886  1.0000
  Fe  Fe125     1.0  0.12968240467063408  0.974195440794255  0.3055186596236284  1.0000
  S   S249      1.0  0.0607743745043523  0.9790102604633422  0.3152073148648367  1.0000
  S   S250      1.0  0.15150686909350577  0.9462317334497707  0.2757624602568378  1.0000
  Fe  Fe126     1.0  0.16419586999847546  0.014604079407617432  0.3446773668299294  1.0000
  S   S251      1.0  0.09831877410783485  0.023603595735314897  0.35775167156913223  1.0000
  S   S252      1.0  0.22565327882545894  0.03758765088243465  0.35959924508275676  1.0000
  Fe  Fe127     1.0  0.08576515787672379  0.9464768081401992  0.3439633343360926  1.0000
  S   S253      1.0  0.0582099032083192  0.8787403779760405  0.3604688986026544  1.0000
  Fe  Fe128     1.0  0.08024038948948209  0.055337657443460087  0.32799710862436715  1.0000
  S   S254      1.0  0.04698140522466554  0.1319446694966917  0.3253318528961352  1.0000
  S   S255      1.0  0.15318363668766113  0.935276105858007  0.3330763227824207  1.0000
  S   S256      1.0  0.14733956345317215  0.05282292313074821  0.315921093359363  1.0000
  C   C193      1.0  0.15042140555551395  0.8432134682410998  0.4114103367200708  1.0000
  C   C194      1.0  0.15682470096482537  0.8863276955488101  0.3992316108391273  1.0000
  C   C195      1.0  0.12839973760275789  0.8970833779551307  0.3837190625331216  1.0000
  C   C196      1.0  0.0933327822960781  0.864805935372546  0.3801800630992489  1.0000
  C   C197      1.0  0.08680739873787702  0.8214758942249254  0.39231356225903397  1.0000
  C   C198      1.0  0.11533909515552544  0.8107152832898912  0.407955140697817  1.0000
  H   H129      1.0  0.18403488084589484  0.911327964189372  0.4016143942463461  1.0000
  H   H130      1.0  0.13374780202443334  0.930686223410886  0.3746137732369762  1.0000
  H   H131      1.0  0.059618764307811205  0.7965041944923862  0.38973261365438494  1.0000
  H   H132      1.0  0.10963637682543335  0.7779858696940426  0.41753516234473087  1.0000
  C   C199      1.0  0.20434365260451814  0.10823717173128977  0.42048176908626145  1.0000
  C   C200      1.0  0.2411570861893583  0.12040917561764797  0.4094584911631848  1.0000
  C   C201      1.0  0.24853300728505703  0.09659822511099647  0.3911568474273561  1.0000
  C   C202      1.0  0.21828392006259986  0.06215317010784016  0.383509890623806  1.0000
  C   C203      1.0  0.18192716685392413  0.04928568361503083  0.3947214176254093  1.0000
  C   C204      1.0  0.17515245224882892  0.07197724436627762  0.41328066917526196  1.0000
  H   H133      1.0  0.2641466212435424  0.14783862719073193  0.4151367212484221  1.0000
  H   H134      1.0  0.27707141399147583  0.10605124763215557  0.3826678436002203  1.0000
  H   H135      1.0  0.15924103422133767  0.02138827806748278  0.38923350474172974  1.0000
  H   H136      1.0  0.1468650728423301  0.062079814342007156  0.421879934573971  1.0000
  C   C205      1.0  0.12146268107820424  0.21900320928953643  0.2776737620148445  1.0000
  C   C206      1.0  0.10688636026697185  0.24504706429204814  0.2945103425808532  1.0000
  C   C207      1.0  0.0830316221467653  0.21858472053098654  0.30901938751463615  1.0000
  C   C208      1.0  0.0742329903523673  0.16603999997538832  0.30673311659216296  1.0000
  C   C209      1.0  0.08877039601774195  0.14014771383099345  0.28988790866881264  1.0000
  C   C210      1.0  0.11211596112122812  0.16668868597675357  0.27531346572411847  1.0000
  H   H137      1.0  0.11359024847873611  0.28574097516145835  0.29619425386323184  1.0000
  H   H138      1.0  0.07219412991171881  0.23856023381471436  0.32213887662050245  1.0000
  H   H139      1.0  0.08152581746162735  0.09968727029923752  0.2879829009079176  1.0000
  H   H140      1.0  0.12265569464427317  0.14669170940516096  0.2621746634331234  1.0000
  C   C211      1.0  0.07085620497681577  0.07978922902646501  0.16631631792589563  1.0000
  C   C212      1.0  0.04149859213882756  0.11131121690796086  0.15622257372229656  1.0000
  C   C213      1.0  0.02850428984370379  0.0985725778091755  0.13695908788361238  1.0000
  C   C214      1.0  0.045565192152016376  0.05496474279478525  0.12759510516001568  1.0000
  C   C215      1.0  0.07397736969942437  0.02282928525836425  0.13791262812679728  1.0000
  C   C216      1.0  0.08648211042120457  0.03508436302243245  0.1572455406995126  1.0000
  H   H141      1.0  0.028546142507938077  0.14522404970786829  0.16328003002861724  1.0000
  H   H142      1.0  0.005541218647201029  0.12279917110147776  0.1292746336489702  1.0000
  H   H143      1.0  0.08636955037708094  0.9884253887161606  0.13107897044491165  1.0000
  H   H144      1.0  0.10886323589331615  0.010214717215351943  0.16501781580182648  1.0000
  C   C217      1.0  0.041260208802659015  0.8314314971496096  0.16987608898510528  1.0000
  C   C218      1.0  0.04868978473116825  0.8714682027856436  0.15629507628055261  1.0000
  C   C219      1.0  0.07107912149362683  0.861866000524101  0.1386440270942617  1.0000
  C   C220      1.0  0.08719871736902696  0.8125575324857702  0.13475720537882807  1.0000
  C   C221      1.0  0.08078346405871906  0.7727376434634075  0.14856792021106335  1.0000
  C   C222      1.0  0.0572300084109576  0.7819730384372323  0.16599298607423335  1.0000
  H   H145      1.0  0.03643901295579477  0.9097960305675749  0.1592472955889414  1.0000
  H   H146      1.0  0.07570456268870296  0.8927269182678342  0.12805417045020706  1.0000
  H   H147      1.0  0.09352571097933171  0.7346390461828002  0.14574830409970305  1.0000
  H   H148      1.0  0.05181869568617303  0.751020938662915  0.17651304866870027  1.0000
  C   C223      1.0  0.24101236670782372  0.9697508335177659  0.9925948856759778  1.0000
  C   C224      1.0  0.2000524897530501  0.9786237153910861  0.0005709624520657819  1.0000
  C   C225      1.0  0.19414319979634387  0.9799427920548827  0.02118020031707909  1.0000
  C   C226      1.0  0.2293232130753602  0.973068079163159  0.03381274507893953  1.0000
  C   C227      1.0  0.2703485528385805  0.9650962597767584  0.025770567027891156  1.0000
  C   C228      1.0  0.2762463179092475  0.9636456920691286  0.0052038711492836676  1.0000
  H   H149      1.0  0.1729714848975386  0.9848632512690084  0.9908210916843421  1.0000
  H   H150      1.0  0.16247364308534418  0.9867631646164631  0.02724886569929301  1.0000
  H   H151      1.0  0.2974605517905753  0.9585024584656064  0.03537547103882166  1.0000
  H   H152      1.0  0.30792549172911954  0.956472810918616  0.9991456986503534  1.0000
  C   C229      1.0  0.23851778266415963  0.18283667074766496  0.9010231155692147  1.0000
  C   C230      1.0  0.24354438882727605  0.1572082176267473  0.9191853358394222  1.0000
  C   C231      1.0  0.28479339261681447  0.1443284974904948  0.9260495459680324  1.0000
  C   C232      1.0  0.3211223959340096  0.1584196405148346  0.915009516841156  1.0000
  C   C233      1.0  0.31614541770215554  0.1841493173809725  0.8968826861905371  1.0000
  C   C234      1.0  0.2748636087871961  0.19543193395228498  0.8897330047200535  1.0000
  H   H153      1.0  0.21550843970871914  0.14685256611957698  0.927888837264617  1.0000
  H   H154      1.0  0.2884452595339752  0.12400919831909185  0.9400045758417587  1.0000
  H   H155      1.0  0.34418784563781174  0.19415802688711636  0.8881239008478804  1.0000
  H   H156      1.0  0.2713820170988396  0.21343331928202636  0.8754091313022324  1.0000
  C   C235      1.0  0.3801129295674529  0.9590632078743849  0.8520413439966291  1.0000
  C   C236      1.0  0.3805381564987132  0.9058216759951172  0.8555885500141592  1.0000
  C   C237      1.0  0.3930192111202199  0.8862244388172319  0.8740651076325483  1.0000
  C   C238      1.0  0.4033698745906714  0.9199451909127603  0.8893519744883884  1.0000
  C   C239      1.0  0.4023590407759456  0.9732905175437493  0.8859869703964675  1.0000
  C   C240      1.0  0.3912698318234259  0.9928350094752135  0.8672472351194047  1.0000
  H   H157      1.0  0.37054419785617954  0.8794279422757093  0.8442554641893317  1.0000
  H   H158      1.0  0.39335605561253084  0.8449508087641134  0.8766191828548227  1.0000
  H   H159      1.0  0.4106111865906325  0.9995673033655939  0.8977588393844874  1.0000
  H   H160      1.0  0.39113767843509456  0.03405430960683131  0.8646252483967284  1.0000
  C   C241      1.0  0.9040391775955843  0.8177626682567426  0.03602054507327823  1.0000
  C   C242      1.0  0.9366511607348357  0.8114036163903472  0.05011273079307421  1.0000
  C   C243      1.0  0.9773592094367541  0.8330980565523916  0.046878146456821534  1.0000
  C   C244      1.0  0.9856823081181824  0.8607414526025198  0.02943836909526339  1.0000
  C   C245      1.0  0.9532942429385498  0.8663546877436356  0.015191314352690945  1.0000
  C   C246      1.0  0.9123512924962048  0.8452120996689632  0.018535205435337664  1.0000
  H   H161      1.0  0.9302883242151515  0.789868940448392  0.06359130683595438  1.0000
  H   H162      1.0  0.002466607804739951  0.827811159648499  0.05773020765591097  1.0000
  H   H163      1.0  0.959629086102617  0.8878402613295611  0.0016922431959491835  1.0000
  H   H164      1.0  0.8872505186075154  0.8503607136115121  0.0076227233605017375  1.0000
  C   C247      1.0  0.7399455583825797  0.9321044154659066  0.9423767932653425  1.0000
  C   C248      1.0  0.6966240144528942  0.9289316667917884  0.9479485716041811  1.0000
  C   C249      1.0  0.6642471862298893  0.9361213536170475  0.9337681658830352  1.0000
  C   C250      1.0  0.6751396780224483  0.9461980170528124  0.9139844986983038  1.0000
  C   C251      1.0  0.7184130911235234  0.9473770900438677  0.9082587407229964  1.0000
  C   C252      1.0  0.7508064940177926  0.9410173682337252  0.9225035599546584  1.0000
  H   H165      1.0  0.6880916802874824  0.9233193968673691  0.9633391704935108  1.0000
  H   H166      1.0  0.6307994539519441  0.9352364301571207  0.9382177642522229  1.0000
  H   H167      1.0  0.7269767736959937  0.9543437264830482  0.8929538648118266  1.0000
  H   H168      1.0  0.7842911515372681  0.9435074910565867  0.9181779703025021  1.0000
  C   C253      1.0  0.7510827423238671  0.23379969167146997  0.8994503408837543  1.0000
  C   C254      1.0  0.7126637339668834  0.2571141607652947  0.8934160849204104  1.0000
  C   C255      1.0  0.6905838800894463  0.23848248408660866  0.8768842217421294  1.0000
  C   C256      1.0  0.706946825600638  0.19662234440504744  0.8662533080310563  1.0000
  C   C257      1.0  0.7461055579770015  0.17428644160754958  0.8718786048437235  1.0000
  C   C258      1.0  0.7682660639963577  0.19304464846661684  0.8884167471077006  1.0000
  H   H169      1.0  0.7001247424334356  0.28990130331625696  0.9013279592608653  1.0000
  H   H170      1.0  0.6604107258154964  0.25604597702152665  0.8725193273308663  1.0000
  H   H171      1.0  0.7595759623082023  0.14297553538047691  0.8633404171621412  1.0000
  H   H172      1.0  0.7983293313111265  0.1753564010847144  0.8928599540425461  1.0000
  C   C259      1.0  0.33954798123016194  0.8501588000394004  0.5004002113236606  1.0000
  C   C260      1.0  0.3107949158454776  0.8364977927404053  0.4854933313995703  1.0000
  C   C261      1.0  0.2937745795134364  0.786684771494683  0.4848494506926181  1.0000
  C   C262      1.0  0.3062417494826167  0.7497008954691524  0.49886140796933487  1.0000
  C   C263      1.0  0.3350782864316471  0.7631219964857933  0.5138701508899939  1.0000
  C   C264      1.0  0.3515401505084998  0.8135186525497613  0.5147228651042529  1.0000
  H   H173      1.0  0.3019154958234382  0.8643478615509939  0.4743334593194238  1.0000
  H   H174      1.0  0.27124207721457566  0.7770104101174188  0.47335502758328923  1.0000
  H   H175      1.0  0.3444022115703175  0.7347856996470671  0.5248837592193191  1.0000
  H   H176      1.0  0.37347673532769676  0.8239510027156786  0.5264107942181092  1.0000
  C   C265      1.0  0.3104656943245864  0.125530211179123  0.7602794843275865  1.0000
  C   C266      1.0  0.28306330337664765  0.11355512084633057  0.7761541922922092  1.0000
  C   C267      1.0  0.28033996580409004  0.14665861670365943  0.792481445442287  1.0000
  C   C268      1.0  0.4667698241138767  0.8060114099643059  0.7397874843933241  1.0000
  C   C269      1.0  0.45314822958463963  0.7569978547178413  0.7458250898049897  1.0000
  C   C270      1.0  0.4654949593557586  0.7133100115291325  0.7349405849479654  1.0000
  H   H177      1.0  0.2647772193790332  0.07815880260328623  0.7760371021720478  1.0000
  H   H178      1.0  0.2594215379496085  0.13723147545225123  0.804777576663575  1.0000
  H   H179      1.0  0.43380483002447756  0.7525247005281063  0.7590554644731691  1.0000
  H   H180      1.0  0.4554226555715622  0.6753506391797448  0.7397973338308437  1.0000
  C   C271      1.0  0.5486713697933616  0.0730023314327215  0.7550449654175238  1.0000
  C   C272      1.0  0.5805404991017435  0.08670697719847742  0.7686231793655333  1.0000
  C   C273      1.0  0.5927716383281384  0.05235291266126785  0.7837125285354538  1.0000
  C   C274      1.0  0.573520754471385  0.0038689148520962835  0.7851605615784165  1.0000
  C   C275      1.0  0.5419432785061044  0.9898308708385674  0.7714488030794429  1.0000
  C   C276      1.0  0.5295771165052554  0.024315165956992235  0.7563550003870085  1.0000
  H   H181      1.0  0.5953347380915849  0.12440383319901605  0.7676767518582076  1.0000
  H   H182      1.0  0.616841096953793  0.06376923543450808  0.7943040441291904  1.0000
  H   H183      1.0  0.5262969739055622  0.9527927851611127  0.7726913673638817  1.0000
  H   H184      1.0  0.505096595923741  0.013351623833172566  0.7458743531078671  1.0000
  C   C277      1.0  0.4056980232881897  0.03506815831637389  0.6058839630937708  1.0000
  C   C278      1.0  0.41136843025894443  0.06970865851480923  0.6214021182526962  1.0000
  C   C279      1.0  0.4145835076014421  0.05153886961909793  0.6409163356177472  1.0000
  C   C280      1.0  0.4133267656365487  0.9985916788298763  0.644934608042702  1.0000
  C   C281      1.0  0.40793003971069486  0.9637787161005018  0.629430756918434  1.0000
  C   C282      1.0  0.40388712497273926  0.982049841799486  0.6099254032078565  1.0000
  H   H185      1.0  0.414543366817004  0.11039966203829366  0.6183349219095958  1.0000
  H   H186      1.0  0.4191522500408973  0.07854090483637743  0.6527848420751466  1.0000
  H   H187      1.0  0.40707973980855733  0.9227289339577183  0.6324298663509043  1.0000
  H   H188      1.0  0.3993249968396369  0.9549197694240886  0.59805478708468  1.0000
  C   C283      1.0  0.560221226579745  0.806702030428652  0.6206045339745783  1.0000
  C   C284      1.0  0.5228718608923784  0.783355407610026  0.6279921181755125  1.0000
  C   C285      1.0  0.48547715268385944  0.7820783841982178  0.6164468488851015  1.0000
  C   C286      1.0  0.4850323576684439  0.8053949039230791  0.5977136104158616  1.0000
  C   C287      1.0  0.5223309561130687  0.8287517531744296  0.5903076645105583  1.0000
  C   C288      1.0  0.559901472774092  0.8292699686209012  0.6017196093655869  1.0000
  H   H189      1.0  0.5221706231789236  0.7681500747781265  0.6429120126097956  1.0000
  H   H190      1.0  0.45653147754028456  0.7644614887910982  0.6222849775660505  1.0000
  H   H191      1.0  0.5224932939825693  0.8457788552895185  0.5756373864707884  1.0000
  H   H192      1.0  0.5887324403288652  0.8471873238035633  0.5958854002691951  1.0000
  C   C289      1.0  0.2978738080876962  0.9433058314948988  0.2791884432319074  1.0000
  C   C290      1.0  0.2771213469002547  0.9211128493553734  0.2629466839910295  1.0000
  C   C291      1.0  0.23198664492833945  0.921112866816261  0.26192529197522246  1.0000
  C   C292      1.0  0.20777304699660787  0.9431982918680186  0.2771902894491144  1.0000
  C   C293      1.0  0.2287138851030849  0.9640322518408441  0.29359289446837605  1.0000
  C   C294      1.0  0.27358890339159686  0.9638835062578351  0.29464831827431526  1.0000
  H   H193      1.0  0.29582810377902496  0.9034743262973182  0.25128673408074087  1.0000
  H   H194      1.0  0.21600155681474942  0.9042088063244563  0.24933141675339493  1.0000
  H   H195      1.0  0.21068349051389582  0.9810468998276355  0.3054899632501286  1.0000
  H   H196      1.0  0.28946367577013155  0.9807938965200584  0.3072929286926518  1.0000
  C   C295      1.0  0.4263367473139239  0.12381670474825812  0.04776609854791354  1.0000
  C   C296      1.0  0.3941587233080431  0.11132536218780076  0.03415901081127275  1.0000
  C   C297      1.0  0.40264841140535923  0.07621700314317748  0.018919767750876473  1.0000
  C   C298      1.0  0.44356566227705035  0.054275804694461804  0.016993570740668762  1.0000
  C   C299      1.0  0.4759452796527053  0.06740247953773904  0.030402897615337432  1.0000
  C   C300      1.0  0.467332836390965  0.10213741909285368  0.04576553804728967  1.0000
  H   H197      1.0  0.36241623798531364  0.12817397389013152  0.035591636769602815  1.0000
  H   H198      1.0  0.3772181249454294  0.06546799123364244  0.008982437989339953  1.0000
  H   H199      1.0  0.5077321783035881  0.05061068262178714  0.029000780063037856  1.0000
  H   H200      1.0  0.4922326590510681  0.11135580328800976  0.05627030472395389  1.0000
  C   C301      1.0  0.6255643033785523  0.16276244369578174  0.04352173271615157  1.0000
  C   C302      1.0  0.5379566007995608  0.7863266557115516  0.049717774784690416  1.0000
  C   C303      1.0  0.5719025068542373  0.821639496618071  0.04840070090196957  1.0000
  C   C304      1.0  0.6083356905234426  0.8103608422939178  0.036945630857585066  1.0000
  C   C305      1.0  0.5798686430549443  0.17121498548160274  0.014664243740592164  1.0000
  C   C306      1.0  0.584780220926653  0.16125017735896763  0.034928982970609146  1.0000
  H   H201      1.0  0.5096991529228065  0.7956770158649757  0.05838041160027685  1.0000
  H   H202      1.0  0.569648203874348  0.8581227315935115  0.05604704077606759  1.0000
  H   H203      1.0  0.5481648439190097  0.17079946567814752  0.008287356572864946  1.0000
  H   H204      1.0  0.5569812228045873  0.15228221018533694  0.04392426531218585  1.0000
  C   C307      1.0  0.4068023492722227  0.1265006369341899  0.1875336234932241  1.0000
  C   C308      1.0  0.4041968406749942  0.14946969814546907  0.1687408032690423  1.0000
  C   C309      1.0  0.44199956292534304  0.16113944585499973  0.15817844595987615  1.0000
  C   C310      1.0  0.48217046526762913  0.15096378298913526  0.16668686237583094  1.0000
  C   C311      1.0  0.4845979611852105  0.12976461980049425  0.18572151691949157  1.0000
  C   C312      1.0  0.44702193081210373  0.11691184100303764  0.19600538201883078  1.0000
  H   H205      1.0  0.3730733626213147  0.15630677635712065  0.16207105572590177  1.0000
  H   H206      1.0  0.4399526308373028  0.17712794005084653  0.14339962465148243  1.0000
  H   H207      1.0  0.5156016475318286  0.12209507706808997  0.19240381297300177  1.0000
  H   H208      1.0  0.4492547440422701  0.09928822432933204  0.2105198416252983  1.0000
  C   C313      1.0  0.40516280830716017  0.8780496612253553  0.12539598967410942  1.0000
  C   C314      1.0  0.3971370220433982  0.9202410265807214  0.1376886877801049  1.0000
  C   C315      1.0  0.38240339011082497  0.9121292123198812  0.15711583968666215  1.0000
  C   C316      1.0  0.3765192467643584  0.8619025114088782  0.16435167060617145  1.0000
  C   C317      1.0  0.383720296405149  0.8199356286082148  0.15190023110721415  1.0000
  C   C318      1.0  0.3979916482049405  0.8281780380612953  0.13247216779953316  1.0000
  H   H209      1.0  0.4015439281617961  0.9590263796687182  0.13223921982626463  1.0000
  H   H210      1.0  0.37456541191842674  0.944720497404553  0.16631342968501509  1.0000
  H   H211      1.0  0.3789872234313897  0.7810178496358168  0.1573039266834494  1.0000
  H   H212      1.0  0.4040546394926938  0.795905361840894  0.12296356553509334  1.0000
  C   C319      1.0  0.07029552361782798  0.22304463410899866  0.5189304987148998  1.0000
  C   C320      1.0  0.056411890117903374  0.6724093924061673  0.5389363148409798  1.0000
  C   C321      1.0  0.051833979308028244  0.6750831691521049  0.5183273388061919  1.0000
  C   C322      1.0  0.08106566018439065  0.6495259912429442  0.5060078681083073  1.0000
  C   C323      1.0  0.09578485858377438  0.2507620300413831  0.4866126812894953  1.0000
  C   C324      1.0  0.08629855041239164  0.21119730753098498  0.5001140250504005  1.0000
  H   H213      1.0  0.034088755993335385  0.693024072476664  0.5482818257858494  1.0000
  H   H214      1.0  0.026266373399055576  0.6980686083391536  0.5119272500316393  1.0000
  H   H215      1.0  0.10899881206612827  0.24141774077114375  0.47224347709675885  1.0000
  H   H216      1.0  0.09200736597727133  0.17143645871840096  0.4960521057363551  1.0000
  C   C325      1.0  0.8698147523360443  0.04277208971505675  0.7822818265611733  1.0000
  C   C326      1.0  0.8806073758843261  0.9917968965747481  0.7870559335812474  1.0000
  C   C327      1.0  0.8581998175559917  0.965552692969651  0.8020962197817594  1.0000
  C   C328      1.0  0.8244693471286415  0.9899390670456023  0.8121855642509916  1.0000
  C   C329      1.0  0.8137926347192551  0.04099496221042864  0.8074960947084927  1.0000
  C   C330      1.0  0.8364624757550261  0.06737023950909715  0.7925685668804661  1.0000
  H   H217      1.0  0.9057799588974518  0.9722598545117008  0.7790276334786266  1.0000
  H   H218      1.0  0.8664360871350142  0.9259879130375247  0.8056210663133989  1.0000
  H   H219      1.0  0.7883106451692858  0.06036451635901896  0.8154615397414193  1.0000
  H   H220      1.0  0.828056562028527  0.10685586696336213  0.7889741131419445  1.0000
  C   C331      1.0  0.14051370415040276  0.9643344557456853  0.7761033608519873  1.0000
  C   C332      1.0  0.18077219788139517  0.9677513411360301  0.7852791063976782  1.0000
  C   C333      1.0  0.21318759142131258  0.9318025479720462  0.7808181468552523  1.0000
  C   C334      1.0  0.20512103137788362  0.8924119254340177  0.7672574266183121  1.0000
  C   C335      1.0  0.1647520770627693  0.8886796224148713  0.7583299951097956  1.0000
  C   C336      1.0  0.13246075988942252  0.9245563267930302  0.7627692823312928  1.0000
  H   H221      1.0  0.18707945845123788  0.998653655695538  0.7955522060431004  1.0000
  H   H222      1.0  0.24444603252006736  0.9348969292030306  0.7876918860042976  1.0000
  H   H223      1.0  0.15835711044913925  0.8580707417551927  0.7479194200443574  1.0000
  H   H224      1.0  0.10121803338143542  0.9211013214451452  0.7559332719656499  1.0000
  C   C337      1.0  0.025999004886823496  0.10471909644415622  0.6740784966399395  1.0000
  C   C338      1.0  0.006259560767513328  0.0575729630860462  0.6700682422900769  1.0000
  C   C339      1.0  0.9863735867710473  0.04948359431125082  0.6517477737190598  1.0000
  C   C340      1.0  0.9857261857081892  0.0888793461275772  0.6374851624886279  1.0000
  C   C341      1.0  0.0052548239672309816  0.1361789909446358  0.641576484619657  1.0000
  C   C342      1.0  0.026101260150070082  0.14375956343569296  0.6596911866534106  1.0000
  H   H225      1.0  0.006192502160144997  0.027339295914718065  0.681097802633504  1.0000
  H   H226      1.0  0.9712547497754781  0.012855994818099736  0.6487616187187316  1.0000
  H   H227      1.0  0.003932186354419498  0.16728397874144063  0.6309224181004773  1.0000
  H   H228      1.0  0.04125809615606535  0.18038641220360496  0.6626935980379355  1.0000
  C   C343      1.0  0.9992747449513932  0.8643296557922044  0.6912169119592975  1.0000
  C   C344      1.0  0.01810638865243197  0.9068159274980221  0.6817877598428382  1.0000
  C   C345      1.0  0.032057347290710636  0.9032303094287008  0.6620608573650554  1.0000
  C   C346      1.0  0.02698784530698295  0.8571153718298656  0.6516778523661877  1.0000
  C   C347      1.0  0.00788061385995431  0.8146241790264027  0.66102234376944  1.0000
  C   C348      1.0  0.9943805567375806  0.8180989391067235  0.6808304191146607  1.0000
  H   H229      1.0  0.022145681351957158  0.9423821593358334  0.6897367526931559  1.0000
  H   H230      1.0  0.046743335333929714  0.9362408580494216  0.654869257400971  1.0000
  H   H231      1.0  0.004208613950976048  0.7788605323237724  0.6530839764824494  1.0000
  H   H232      1.0  0.9807440333221699  0.7847829723342474  0.6881162214559133  1.0000
  C   C349      1.0  0.5948249817951535  0.03815263352296472  0.4752208014535439  1.0000
  C   C350      1.0  0.626905127738922  0.03213018807418733  0.48952722285702793  1.0000
  C   C351      1.0  0.6174485606424439  0.008016099817993227  0.5076260122268017  1.0000
  C   C352      1.0  0.5759054083709626  0.9899383939056684  0.5114806571509974  1.0000
  C   C353      1.0  0.5437250151095332  0.9958268682181796  0.49719131129525374  1.0000
  C   C354      1.0  0.5532252295794724  0.019966556773814315  0.4790318817257932  1.0000
  H   H233      1.0  0.6591171954917547  0.045965874048255806  0.4866994248516096  1.0000
  H   H234      1.0  0.6424000827546442  0.0034706537975575102  0.5186625112406703  1.0000
  H   H235      1.0  0.5116257958241262  0.981592801076623  0.5000712635693926  1.0000
  H   H236      1.0  0.5284179958787509  0.024417509831963002  0.46793341986352377  1.0000
  C   C355      1.0  0.810594451735146  0.10848457989296167  0.5154572417458226  1.0000
  C   C356      1.0  0.8018591095948393  0.15903822762562903  0.5092289640135109  1.0000
  C   C357      1.0  0.8160781509479242  0.20085119915227168  0.5205225339435517  1.0000
  C   C358      1.0  0.8400075750071032  0.19220139056127028  0.5377658089560304  1.0000
  C   C359      1.0  0.8481126399168717  0.1417183682611829  0.5441516509963706  1.0000
  C   C360      1.0  0.8333496470649661  0.09989518414724663  0.533030467868122  1.0000
  H   H237      1.0  0.7847548098623518  0.1659615266260348  0.49558046727697175  1.0000
  H   H238      1.0  0.8096244625605968  0.2398804549279332  0.5156031701274477  1.0000
  H   H239      1.0  0.8652642146007449  0.13483386791126706  0.5578042970572156  1.0000
  H   H240      1.0  0.8398595301037709  0.060851305470179584  0.5379530716131091  1.0000
  C   C361      1.0  0.5872325775448047  0.831383630620657  0.25904265132285254  1.0000
  C   C362      1.0  0.5507829502445263  0.8257566303745115  0.2471383647287687  1.0000
  C   C363      1.0  0.5346784321947069  0.8680494509138003  0.23639985746952938  1.0000
  C   C364      1.0  0.5554930929068012  0.9157275890923191  0.23724364514311633  1.0000
  C   C365      1.0  0.5933972884446527  0.9204796320118583  0.24819649882343978  1.0000
  C   C366      1.0  0.6090061109176682  0.8784938958881013  0.2592509173456373  1.0000
  H   H241      1.0  0.5341622437836738  0.7891546388293312  0.24672137909018638  1.0000
  H   H242      1.0  0.50631445133709  0.8636253308236981  0.22738982755129414  1.0000
  H   H243      1.0  0.6099015054519992  0.9571536213035344  0.24868299072461483  1.0000
  H   H244      1.0  0.6377313660173042  0.8828013223857233  0.26798167541767437  1.0000
  C   C367      1.0  0.8064622437794083  0.7892624715123013  0.2934524781361609  1.0000
  C   C368      1.0  0.8817825882837569  0.3632409425353076  0.26528191990987  1.0000
  C   C369      1.0  0.8905144197248094  0.3206966467103678  0.25316595961767957  1.0000
  C   C370      1.0  0.9330421001020717  0.3074573649936492  0.2485169825841496  1.0000
  C   C371      1.0  0.8564323092262769  0.75973025850639  0.2681823610208836  1.0000
  C   C372      1.0  0.8480890777962614  0.7746578601478816  0.2877883898249193  1.0000
  H   H245      1.0  0.8488323415910645  0.373408745016121  0.268766581874536  1.0000
  H   H246      1.0  0.8642316994387135  0.29815380198784247  0.24732243322450528  1.0000
  H   H247      1.0  0.8884517895276123  0.7479874557081657  0.26390809769616835  1.0000
  H   H248      1.0  0.8738356916822891  0.7748627384786908  0.2985277581169749  1.0000
  C   C373      1.0  0.6723909624415042  0.9823021036628247  0.36044672743704226  1.0000
  C   C374      1.0  0.663215066914243  0.0012120068741272583  0.3793707452334039  1.0000
  C   C375      1.0  0.696874298610159  0.012455798254210393  0.39243862224988774  1.0000
  C   C376      1.0  0.7396583562510933  0.006243408491147351  0.38636589436914665  1.0000
  C   C377      1.0  0.7487222267072552  0.9880932204381385  0.36734957377189414  1.0000
  C   C378      1.0  0.7151559311041942  0.9753911882128179  0.35450096999784725  1.0000
  H   H249      1.0  0.6301202142318555  0.005913026948617173  0.3840909598475218  1.0000
  H   H250      1.0  0.6895852603699479  0.02544465295506093  0.40723824008871295  1.0000
  H   H251      1.0  0.781703583594779  0.9842243717099364  0.36250070884151764  1.0000
  H   H252      1.0  0.7223054418408242  0.9607638745125558  0.33986255427740486  1.0000
  C   C379      1.0  0.8285957148821509  0.2779144882993321  0.38241443080817955  1.0000
  C   C380      1.0  0.8295733077522491  0.22992412887282998  0.39197971018998984  1.0000
  C   C381      1.0  0.806479328351208  0.22237349474956924  0.4096346695069749  1.0000
  C   C382      1.0  0.7835682455336769  0.26327573883126565  0.4180938592056894  1.0000
  C   C383      1.0  0.7841362126825742  0.311747079695057  0.4089592908133761  1.0000
  C   C384      1.0  0.8066606672002233  0.31906670086422695  0.3911516918545911  1.0000
  H   H253      1.0  0.8472396169438179  0.19821030654745564  0.3854859079500007  1.0000
  H   H254      1.0  0.8062750412199947  0.1848328261967418  0.41655083482177924  1.0000
  H   H255      1.0  0.7663319822932075  0.34331441689489584  0.41542520592666266  1.0000
  H   H256      1.0  0.8070170615535205  0.3565613560265726  0.3842195790553019  1.0000
  N   N1        1.0  0.47346300865882857  0.17162854103868952  0.9687719945425388  1.0000
  C   C385      1.0  0.49954591032693346  0.12720153512601118  0.9755766877496237  1.0000
  C   C386      1.0  0.4849234716600768  0.21785831467446437  0.9802962148243605  1.0000
  C   C387      1.0  0.42737474546304466  0.16007567500196185  0.9717196290764741  1.0000
  C   C388      1.0  0.4819167465048002  0.18123137729458105  0.9474968886120544  1.0000
  H   H257      1.0  0.5345467872887267  0.1342436962136606  0.9733820063328161  1.0000
  H   H258      1.0  0.4912012805455387  0.0914106424037251  0.9674702979661272  1.0000
  H   H259      1.0  0.4943246592592449  0.11912949806747775  0.9916107994460597  1.0000
  H   H260      1.0  0.46582293912096817  0.25208622571741146  0.9755451046337626  1.0000
  H   H261      1.0  0.47905802840917133  0.2117235001561899  0.9964352190599377  1.0000
  H   H262      1.0  0.5195385283165156  0.2277603741049703  0.9784065693967615  1.0000
  H   H263      1.0  0.41775550809171536  0.12581114803829108  0.9630411458220789  1.0000
  H   H264      1.0  0.4065682234975936  0.19260377069912527  0.9666996519652488  1.0000
  H   H265      1.0  0.4198781825015368  0.15190871759695335  0.9875787612825684  1.0000
  H   H266      1.0  0.4624250174117481  0.2141670621357865  0.9417806855154024  1.0000
  H   H267      1.0  0.4734427814556901  0.14703690274056536  0.9383914728592044  1.0000
  H   H268      1.0  0.5164848163118202  0.19024743091057994  0.9447706042143238  1.0000
  N   N2        1.0  0.9310672558847471  0.6121492951330845  0.5052561335776825  1.0000
  C   C389      1.0  0.9690491463740313  0.6133781556937058  0.49202910662861227  1.0000
  C   C390      1.0  0.9400860680563716  0.6421116778914137  0.5233354761924949  1.0000
  C   C391      1.0  0.9213362484944736  0.5581955367033121  0.5108471247018869  1.0000
  C   C392      1.0  0.8936785885221006  0.6347739938952189  0.4948414048414987  1.0000
  H   H269      1.0  0.9635135683151496  0.5913257633177426  0.4781920625571187  1.0000
  H   H270      1.0  0.9979169770839692  0.5963862568563041  0.499340955580936  1.0000
  H   H271      1.0  0.977471187924115  0.6535826124874388  0.4876028111419494  1.0000
  H   H272      1.0  0.9126071394836577  0.6405294224822273  0.5338859158655463  1.0000
  H   H273      1.0  0.9688494341766628  0.6270097967341618  0.5312839786714523  1.0000
  H   H274      1.0  0.9460102953783532  0.6835767245278971  0.5198810291901445  1.0000
  H   H275      1.0  0.8927243682637687  0.5560925156349583  0.5208477658446561  1.0000
  H   H276      1.0  0.9488758618011918  0.5398984572031285  0.5187563446156686  1.0000
  H   H277      1.0  0.9141991202436208  0.5344567385541397  0.4975784699780614  1.0000
  H   H278      1.0  0.8987397796329508  0.6763964526652979  0.49140729156248697  1.0000
  H   H279      1.0  0.8639558502959738  0.6317106545392577  0.503985377442333  1.0000
  H   H280      1.0  0.8871853630986246  0.6146578786156105  0.4806471790157626  1.0000
  N   N3        1.0  0.831776447090999  0.8547134995590223  0.374037176336758  1.0000
  C   C393      1.0  0.801253904883092  0.8764247126652099  0.38864680367330046  1.0000
  C   C394      1.0  0.831569541881545  0.8869440242878333  0.3558873757491929  1.0000
  C   C395      1.0  0.8187529713468464  0.8015664406443802  0.3690481342859779  1.0000
  C   C396      1.0  0.8755771191022594  0.8539848095216452  0.3825243243020643  1.0000
  H   H281      1.0  0.8004964106892103  0.8530709773101615  0.4025398535690342  1.0000
  H   H282      1.0  0.7679109673385859  0.8779471887699007  0.3826594149984461  1.0000
  H   H283      1.0  0.8102493620756722  0.9165135941261666  0.3927601953450783  1.0000
  H   H284      1.0  0.8532444722839889  0.8707981557161647  0.3442813111930382  1.0000
  H   H285      1.0  0.7987950969998563  0.8891892182590825  0.3492764822862076  1.0000
  H   H286      1.0  0.8424008281825854  0.9269510528593804  0.35896234515369235  1.0000
  H   H287      1.0  0.7857594981432763  0.8007606372458577  0.36269471377906304  1.0000
  H   H288      1.0  0.8190816391525149  0.7757969323485627  0.3822923140226481  1.0000
  H   H289      1.0  0.8405579545286733  0.7844625138759324  0.3577079255697949  1.0000
  H   H290      1.0  0.8995014016668741  0.8382470098706641  0.37180479700965674  1.0000
  H   H291      1.0  0.8770370543443404  0.8298000804182779  0.39620165957403963  1.0000
  H   H292      1.0  0.8863207203011475  0.893521229147269  0.3865461197660269  1.0000
  N   N4        1.0  0.20209616768378513  0.745604641991183  0.8056524829223052  1.0000
  C   C397      1.0  0.18806025584178795  0.7086548407168282  0.821129784453213  1.0000
  C   C398      1.0  0.17373114955004965  0.7415805195648895  0.7881867841498665  1.0000
  C   C399      1.0  0.24688211024148693  0.733719471428758  0.799763925916275  1.0000
  C   C400      1.0  0.1997941556401533  0.7985841461336866  0.8135438777098852  1.0000
  H   H293      1.0  0.2092113569705361  0.71052209876984  0.8343794410230789  1.0000
  H   H294      1.0  0.18913086811249227  0.6682432225596986  0.8156979954528975  1.0000
  H   H295      1.0  0.15465783300255168  0.7168964240794825  0.8262309714266886  1.0000
  H   H296      1.0  0.18346865761153364  0.7692983353133089  0.7762995945659444  1.0000
  H   H297      1.0  0.17490937712034127  0.7022659113195856  0.7816919120846496  1.0000
  H   H298      1.0  0.13965220288029892  0.750321896067918  0.7920532575002661  1.0000
  H   H299      1.0  0.26937615598155434  0.7373774632266985  0.8124598397378484  1.0000
  H   H300      1.0  0.2583369351726454  0.7603192167852723  0.7878950390966497  1.0000
  H   H301      1.0  0.2500923039573377  0.6937324021705971  0.7940578454189461  1.0000
  H   H302      1.0  0.2207301499525565  0.8029885149515488  0.8267523245947384  1.0000
  H   H303      1.0  0.16641126707115808  0.8089911113827888  0.8180241145035284  1.0000
  H   H304      1.0  0.21042415435293887  0.8274127336710009  0.8022802788020233  1.0000
  N   N5        1.0  0.21707438843422489  0.7069660990132436  0.08897558797482771  1.0000
  C   C401      1.0  0.19445002766555042  0.6850422052510008  0.10637448108456911  1.0000
  C   C402      1.0  0.2563729505396208  0.6763773729664058  0.08497331031065368  1.0000
  C   C403      1.0  0.22898691000484037  0.7610406476032956  0.09306350809893627  1.0000
  C   C404      1.0  0.18841464889938106  0.7054638113543534  0.07153552289111369  1.0000
  H   H305      1.0  0.21527649987966563  0.6854171373677334  0.11976686706000575  1.0000
  H   H306      1.0  0.18457513132795  0.6444270129095397  0.10372898057176975  1.0000
  H   H307      1.0  0.16490674548782788  0.7075552438326417  0.10994058867455905  1.0000
  H   H308      1.0  0.2789203587773122  0.676874431239488  0.09778414387735848  1.0000
  H   H309      1.0  0.2486177989111776  0.6353684402174038  0.08184775666601393  1.0000
  H   H310      1.0  0.27424511526291623  0.6917118801658284  0.07190493444630369  1.0000
  H   H311      1.0  0.24593579569102547  0.7789476883738936  0.08020124933283101  1.0000
  H   H312      1.0  0.2506862182113657  0.7637381877782288  0.1060992495741549  1.0000
  H   H313      1.0  0.20011225526384552  0.7851983478631146  0.09621481769192676  1.0000
  H   H314      1.0  0.2047627066773026  0.7212878986381163  0.058104040114863996  1.0000
  H   H315      1.0  0.1587140015072844  0.7287138116729959  0.0740381899437624  1.0000
  H   H316      1.0  0.17823866749212428  0.6653201441213881  0.06811247197259986  1.0000
  N   N6        1.0  0.6792151808987298  0.6755255482538025  0.24099981122449188  1.0000
  C   C405      1.0  0.6895479635981889  0.6199572587908789  0.23969931819675616  1.0000
  C   C406      1.0  0.6907104642868597  0.6945529606088904  0.26088778452179623  1.0000
  C   C407      1.0  0.6326469600575106  0.6834820285555364  0.23767767048595945  1.0000
  C   C408      1.0  0.7039639108496031  0.7041197138916782  0.22576644692458248  1.0000
  H   H317      1.0  0.6793574933222194  0.6036093404226803  0.225246523351565  1.0000
  H   H318      1.0  0.6728818398125618  0.5975426061485631  0.25152325697111305  1.0000
  H   H319      1.0  0.7246787973092819  0.6128091773229163  0.2413570318175004  1.0000
  H   H320      1.0  0.6847029071251772  0.7367662255666126  0.2621506680563207  1.0000
  H   H321      1.0  0.6711657836863485  0.6753605207096575  0.2726608666211514  1.0000
  H   H322      1.0  0.7252775559927794  0.6875836279363756  0.26424130319341405  1.0000
  H   H323      1.0  0.6223906881739407  0.6685119700670757  0.22303172649007239  1.0000
  H   H324      1.0  0.6238946000650039  0.7251228884187746  0.23825311687643647  1.0000
  H   H325      1.0  0.6130302866194826  0.6634855731207642  0.24922861873575242  1.0000
  H   H326      1.0  0.6967878498621307  0.7462036482660374  0.22625837375056604  1.0000
  H   H327      1.0  0.6962748038572141  0.6904382751485872  0.21059546041584434  1.0000
  H   H328      1.0  0.739329982931711  0.6994244753545037  0.22793168522716284  1.0000
  N   N7        1.0  0.005392603749294178  0.6928115441467945  0.1071268179366573  1.0000
  C   C409      1.0  0.9984795791066237  0.7487592662934018  0.10417988642330978  1.0000
  C   C410      1.0  0.05058327804504392  0.6794139312970601  0.10251736292658646  1.0000
  C   C411      1.0  0.9766789678022411  0.664009612807207  0.09382024135076843  1.0000
  C   C412      1.0  0.9956781051468605  0.678791279383773  0.12793321582179668  1.0000
  H   H329      1.0  0.0067227478623745895  0.7609681497980847  0.0887961087176208  1.0000
  H   H330      1.0  0.01879400452008162  0.7716725108633539  0.11437430800779869  1.0000
  H   H331      1.0  0.9643968271620709  0.7597156874420951  0.10709465200522081  1.0000
  H   H332      1.0  0.05650787623008502  0.637203796971298  0.1041861587082256  1.0000
  H   H333      1.0  0.05922565330020402  0.6901039271890917  0.08699976044497326  1.0000
  H   H334      1.0  0.07318315158388522  0.69970171328814  0.11250421802710824  1.0000
  H   H335      1.0  0.9814945171696977  0.6217175032087703  0.09558394708604562  1.0000
  H   H336      1.0  0.9827581057791113  0.673915977205175  0.07799632853984403  1.0000
  H   H337      1.0  0.9421367313118149  0.6719590810498668  0.09710870481281939  1.0000
  H   H338      1.0  0.016367828414078245  0.7000938260333506  0.13848691519642178  1.0000
  H   H339      1.0  0.0007857458401256956  0.6368583467955015  0.13071581111890004  1.0000
  H   H340      1.0  0.9616568569601639  0.6877528915762672  0.13184148919199823  1.0000
  N   N8        1.0  0.6016358994957565  0.8290855192032072  0.7634719630125281  1.0000
  C   C413      1.0  0.5997876703117604  0.80028010764551  0.7446581096598338  1.0000
  C   C414      1.0  0.5578188554877773  0.8454941697933905  0.7691372385277395  1.0000
  C   C415      1.0  0.6291907253248537  0.8750570462809163  0.760907769999864  1.0000
  C   C416      1.0  0.6195249751316042  0.7956056527628306  0.7792240791676215  1.0000
  H   H341      1.0  0.5861828766482456  0.8243719571997438  0.7324830678116236  1.0000
  H   H342      1.0  0.5790606592133616  0.7654112077711844  0.7460769529720782  1.0000
  H   H343      1.0  0.6323243650930302  0.7871833883084633  0.7398923028630731  1.0000
  H   H344      1.0  0.5577646290563305  0.8671103968728017  0.7833274122638221  1.0000
  H   H345      1.0  0.5435701056181568  0.8711738705932905  0.7576250228593671  1.0000
  H   H346      1.0  0.5358674566775794  0.8118980707666881  0.7709735789197406  1.0000
  H   H347      1.0  0.6315537894115564  0.8973585111758213  0.7749137381710256  1.0000
  H   H348      1.0  0.6160161818323918  0.9017912596158943  0.7494446314099016  1.0000
  H   H349      1.0  0.6624413681876462  0.8641685946045724  0.7563853894174741  1.0000
  H   H350      1.0  0.6214610970345028  0.8162162286682224  0.7936069914988776  1.0000
  H   H351      1.0  0.6524952916898991  0.7820340872347377  0.7754110570180038  1.0000
  H   H352      1.0  0.5992109340841107  0.7607625011088249  0.7816410458839319  1.0000
  N   N9        1.0  0.3137230688534514  0.7972315423198397  0.9276984440293139  1.0000
  C   C417      1.0  0.29644830599684135  0.7534778455564614  0.916309503767646  1.0000
  C   C418      1.0  0.28819207487934534  0.8043345690427782  0.9460051579835703  1.0000
  C   C419      1.0  0.3112001901981937  0.84462118705535  0.9154747498354061  1.0000
  C   C420      1.0  0.35900085204037485  0.7864867674227847  0.9329637500650919  1.0000
  H   H353      1.0  0.31455480155162424  0.7476676187403517  0.9022239295408019  1.0000
  H   H354      1.0  0.262116149259779  0.759822738684284  0.9124162766840554  1.0000
  H   H355      1.0  0.2984169237080463  0.7167378177787838  0.9248567333001276  1.0000
  H   H356      1.0  0.3007306820622801  0.8368335329024336  0.9550141176779987  1.0000
  H   H357      1.0  0.2539379389901922  0.8130058944886558  0.9425851470728095  1.0000
  H   H358      1.0  0.28901618788409744  0.7690389604678266  0.9554775034485676  1.0000
  H   H359      1.0  0.3238636275620457  0.8785255999993447  0.9236015589559738  1.0000
  H   H360      1.0  0.2774453459273421  0.853404380614423  0.9111271315156058  1.0000
  H   H361      1.0  0.330428542290033  0.8407532460201678  0.9016230066079572  1.0000
  H   H362      1.0  0.3731476818491707  0.8187174368962457  0.9415703595203511  1.0000
  H   H363      1.0  0.3793143284172058  0.7814197163874119  0.9194877198518665  1.0000
  H   H364      1.0  0.3618097679198379  0.7506461573719174  0.9421130877545439  1.0000
  N   N10       1.0  0.7121868986246067  0.35939090973735865  0.4820900360420705  1.0000
  C   C421      1.0  0.7506683916967363  0.36549481553819696  0.4693621560163057  1.0000
  C   C422      1.0  0.7256689412311559  0.3459787249444213  0.5024711700854544  1.0000
  C   C423      1.0  0.6847308463971729  0.3178409814513885  0.4742206787034496  1.0000
  C   C424      1.0  0.6876183664615577  0.40827098249825844  0.4823304896654809  1.0000
  H   H365      1.0  0.7714403738345373  0.3976360747808314  0.4744752142034969  1.0000
  H   H366      1.0  0.7416422542570367  0.3743866853869504  0.4537381170774775  1.0000
  H   H367      1.0  0.770520858584083  0.32973756529262355  0.4691582855313207  1.0000
  H   H368      1.0  0.6973496582667555  0.3411165242006826  0.5124591186912016  1.0000
  H   H369      1.0  0.7442556150402531  0.3091693768755437  0.5028178799840148  1.0000
  H   H370      1.0  0.7464586558456504  0.37653445828412946  0.5088441396985702  1.0000
  H   H371      1.0  0.6545231181667521  0.31355041673933437  0.4829952219305843  1.0000
  H   H372      1.0  0.7017623454523092  0.2799840254962933  0.47445076827459715  1.0000
  H   H373      1.0  0.6755504314432761  0.32561971077897356  0.45854263443491516  1.0000
  H   H374      1.0  0.7075387186406387  0.4407501671028582  0.48783919695230216  1.0000
  H   H375      1.0  0.6586862558147333  0.4052684350385536  0.49202840784219315  1.0000
  H   H376      1.0  0.6766886541130754  0.41936421208219077  0.4671811712114533  1.0000
  N   N11       1.0  0.5418586076382503  0.8881369542096819  0.9908140426399026  1.0000
  C   C425      1.0  0.5870907694207879  0.8845575608360102  0.9840690951580373  1.0000
  C   C426      1.0  0.5153909112019263  0.9122341001735333  0.9751074614073268  1.0000
  C   C427      1.0  0.5395862114210409  0.9198069730023127  0.008940585586815653  1.0000
  C   C428      1.0  0.5253011074875109  0.8358760836281015  0.9951776769868481  1.0000
  H   H377      1.0  0.6077485154083372  0.865952494231241  0.9955400896807975  1.0000
  H   H378      1.0  0.6008789316004901  0.9233638451047969  0.9809878993868288  1.0000
  H   H379      1.0  0.5902097682347445  0.8612136820897949  0.970356529876826  1.0000
  H   H380      1.0  0.4809231575817899  0.9142951717961932  0.9796133896580282  1.0000
  H   H381      1.0  0.5259753931987642  0.9524248024337884  0.9718964614643419  1.0000
  H   H382      1.0  0.517144500560771  0.8900882087217297  0.961058181968794  1.0000
  H   H383      1.0  0.5061546696528929  0.921940712024976  0.014876900259612968  1.0000
  H   H384      1.0  0.5502898442674838  0.9601057423971003  0.006064076115867234  1.0000
  H   H385      1.0  0.5604853709445732  0.9037807350292809  0.02086219601265371  1.0000
  H   H386      1.0  0.49146696651809957  0.8370866174768096  0.000645478594786919  1.0000
  H   H387      1.0  0.5446602602571534  0.8165028500246505  0.006847247880468199  1.0000
  H   H388      1.0  0.5263598132912013  0.8108348382861374  0.9818626133293472  1.0000
  N   N12       1.0  0.433260666828421  0.08673179569738676  0.7917232797345002  1.0000
  C   C429      1.0  0.4285287147956581  0.10636514823797039  0.771250692820935  1.0000
  C   C430      1.0  0.3970327328605692  0.10548069874320642  0.803990010845331  1.0000
  C   C431      1.0  0.47430539267343735  0.10523107682368615  0.800039759057449  1.0000
  C   C432      1.0  0.43310300630634097  0.029736945228463707  0.7915581464163117  1.0000
  H   H389      1.0  0.45613720066783736  0.09457757522776866  0.7617787535546457  1.0000
  H   H390      1.0  0.4269903450047635  0.1492609744811515  0.7707924367870859  1.0000
  H   H391      1.0  0.3988220629461519  0.09131097384454967  0.7642253693244296  1.0000
  H   H392      1.0  0.3993414658101652  0.09083445364147069  0.8194863403158188  1.0000
  H   H393      1.0  0.3960166255324349  0.14841093808321837  0.8044881042267935  1.0000
  H   H394      1.0  0.36560557237598934  0.09229375192314881  0.798022180389792  1.0000
  H   H395      1.0  0.5022547337116916  0.09087350236307445  0.7913251939843384  1.0000
  H   H396      1.0  0.47874762674679405  0.091755796539015  0.815585719703769  1.0000
  H   H397      1.0  0.4759225605420603  0.14812160552635834  0.7998975186887217  1.0000
  H   H398      1.0  0.40151385516379956  0.01459955077947761  0.7865692275373569  1.0000
  H   H399      1.0  0.4395117442703833  0.013412467309065201  0.8065469491442409  1.0000
  H   H400      1.0  0.45800044375413  0.014149778251107747  0.7813915046236636  1.0000
  N   N13       1.0  0.65862752651104  0.32815081875806773  0.05872898965664053  1.0000
  C   C433      1.0  0.699382386860521  0.35688339468406727  0.06072599188642225  1.0000
  C   C434      1.0  0.6580432469506088  0.2847160159511357  0.07298184580931255  1.0000
  C   C435      1.0  0.6551382925424336  0.30800500630560834  0.03835777361313575  1.0000
  C   C436      1.0  0.621858303389424  0.36280920576875575  0.06285679779365005  1.0000
  H   H401      1.0  0.7009226909398205  0.3899208066246258  0.050128977296151955  1.0000
  H   H402      1.0  0.7277037400252728  0.3318114167977606  0.05747136508912498  1.0000
  H   H403      1.0  0.7033491418512186  0.3723690102878505  0.07594880623391975  1.0000
  H   H404      1.0  0.6840379777022867  0.25623068257602744  0.06980563275980933  1.0000
  H   H405      1.0  0.6620358331263472  0.2980448068106929  0.08850045490225389  1.0000
  H   H406      1.0  0.6270174747837786  0.2635921474644938  0.07228353754951056  1.0000
  H   H407      1.0  0.6253868992572768  0.28470773741720823  0.03642035232676144  1.0000
  H   H408      1.0  0.6830165359800915  0.28277357438396544  0.03458002409172045  1.0000
  H   H409      1.0  0.6547453475584682  0.3398175320302457  0.027233425437557024  1.0000
  H   H410      1.0  0.5905907924653031  0.3421992904777622  0.06145440945696423  1.0000
  H   H411      1.0  0.6211859261579338  0.39617859400455524  0.05242919345392694  1.0000
  H   H412      1.0  0.62315950017711  0.37825661425502144  0.07820415503157307  1.0000
  N   N14       1.0  0.1665965395486145  0.12203561876666624  0.7418737499995511  1.0000
  C   C437      1.0  0.18598677497087604  0.07227172014745875  0.7479419806496629  1.0000
  C   C438      1.0  0.19788784045924493  0.16406418086178465  0.744919573390522  1.0000
  C   C439      1.0  0.1277318601782185  0.1317926473600517  0.7539498753731099  1.0000
  C   C440      1.0  0.15456923776353537  0.11982445426759991  0.7207139844087724  1.0000
  H   H413      1.0  0.19264683016699002  0.07135084937471681  0.7641163745529954  1.0000
  H   H414      1.0  0.2168710251137302  0.06487890394688534  0.7400160639178193  1.0000
  H   H415      1.0  0.1640090200510331  0.03943227331522392  0.7448601071827665  1.0000
  H   H416      1.0  0.1843299726762621  0.20207534579884245  0.740311486196104  1.0000
  H   H417      1.0  0.20718083632829848  0.1670983713746348  0.7607873807160572  1.0000
  H   H418      1.0  0.22800745589390795  0.15751258473960217  0.7362685692844904  1.0000
  H   H419      1.0  0.11085904822331888  0.16769926891193432  0.7491887604273513  1.0000
  H   H420      1.0  0.13555348643787318  0.13552308705876803  0.7699762598637543  1.0000
  H   H421      1.0  0.10465097739611018  0.09946452318435628  0.7526710995515243  1.0000
  H   H422      1.0  0.13931584944616923  0.15650500172190251  0.715618959622016  1.0000
  H   H423      1.0  0.13080957709758345  0.08858114772733061  0.7179292649497921  1.0000
  H   H424      1.0  0.1831038737994115  0.1124826533640586  0.7111282653175135  1.0000
  N   N15       1.0  0.36408222370055116  0.7081738656551476  0.21660111500636042  1.0000
  C   C441      1.0  0.3223331064317025  0.6823233826781439  0.21995299178539263  1.0000
  C   C442      1.0  0.39925264391797805  0.6756953857672982  0.22454716173074518  1.0000
  C   C443      1.0  0.3640344750001586  0.7585202779282989  0.22675834682140109  1.0000
  C   C444      1.0  0.3707413135985219  0.7162713025509503  0.19511134949901857  1.0000
  H   H425      1.0  0.29507616218351984  0.7063803876982746  0.21449372943555536  1.0000
  H   H426      1.0  0.3166098215022783  0.6742155219447942  0.23596899884969763  1.0000
  H   H427      1.0  0.32076907960693485  0.6448069089960401  0.21209985889619978  1.0000
  H   H428      1.0  0.4310424532437545  0.6949495893111013  0.22270248792471442  1.0000
  H   H429      1.0  0.3946156801593629  0.6671381715157185  0.24057241008618993  1.0000
  H   H430      1.0  0.4014748578632987  0.6382635080574423  0.21662618204907444  1.0000
  H   H431      1.0  0.3602799555045339  0.7538899961881236  0.24306669696532798  1.0000
  H   H432      1.0  0.3372722945679224  0.7836107580957483  0.22142555690837795  1.0000
  H   H433      1.0  0.39446181912968725  0.7799745408202641  0.22387899614910658  1.0000
  H   H434      1.0  0.40190990594166803  0.7359775968204739  0.19202455808866248  1.0000
  H   H435      1.0  0.34483382090981934  0.7406764558070358  0.18858805519681104  1.0000
  H   H436      1.0  0.37123880090065975  0.6790913337143533  0.18696914679904011  1.0000
  N   N16       1.0  0.9862080357131724  0.0988517973388503  0.8123531802354816  1.0000
  C   C445      1.0  0.9892015187285766  0.04772032906952073  0.8029386147257104  1.0000
  C   C446      1.0  0.9882755079865826  0.13956180199245027  0.7969662164511389  1.0000
  C   C447      1.0  0.02251589941399912  0.10519381286436746  0.8262110347972232  1.0000
  C   C448      1.0  0.9449249645811069  0.10295159057907965  0.8231750586689789  1.0000
  H   H437      1.0  0.9875948405918656  0.01591242833951023  0.8140441008719924  1.0000
  H   H438      1.0  0.019899745415966175  0.043381536526382554  0.7946289831164544  1.0000
  H   H439      1.0  0.9626082500434286  0.041897612093755976  0.7922421743172764  1.0000
  H   H440      1.0  0.01927456793081328  0.13802523109424714  0.7886675946891742  1.0000
  H   H441      1.0  0.9617857311486253  0.13573593269803808  0.7860153723712493  1.0000
  H   H442      1.0  0.9858441006667075  0.17857747727688358  0.8036034723960872  1.0000
  H   H443      1.0  0.05401117905015429  0.10121791607945285  0.8183674502398987  1.0000
  H   H444      1.0  0.021670441291169018  0.07581073742820821  0.8382766561295731  1.0000
  H   H445      1.0  0.022248802307200718  0.14413166048931972  0.8330820289361819  1.0000
  H   H446      1.0  0.9170931960284953  0.09893931263688005  0.8129193680192113  1.0000
  H   H447      1.0  0.9417003135875498  0.14091706919911662  0.8306318174283125  1.0000
  H   H448      1.0  0.9417832922749382  0.07220857806453118  0.8346657432932858  1.0000
  N   N17       1.0  0.8750591378492671  0.7476493452309158  0.7061942918471932  1.0000
  C   C449      1.0  0.9102223414261973  0.7288524431944208  0.7190961159855972  1.0000
  C   C450      1.0  0.8332023696824267  0.7309246244228539  0.7144662195922445  1.0000
  C   C451      1.0  0.8804843791482275  0.7262021112160328  0.6860925720446003  1.0000
  C   C452      1.0  0.8763260428183166  0.8046056824617964  0.7051048142599361  1.0000
  H   H449      1.0  0.9073786342034493  0.7444816454326042  0.7343604390173712  1.0000
  H   H450      1.0  0.9423273669451644  0.7406647920011886  0.713321660692505  1.0000
  H   H451      1.0  0.9104016806139205  0.6859958005339072  0.7202536872491588  1.0000
  H   H452      1.0  0.8058436500577483  0.7443705184678786  0.7051041415624656  1.0000
  H   H453      1.0  0.831097066538472  0.6881260999481957  0.7153743730755323  1.0000
  H   H454      1.0  0.827937171511539  0.7463778838536307  0.7296304249264864  1.0000
  H   H455      1.0  0.8541864726449822  0.7389019081209555  0.6760106424919612  1.0000
  H   H456      1.0  0.8804908386373353  0.6832370260139257  0.6863743301011141  1.0000
  H   H457      1.0  0.9114491560534306  0.7386769626035078  0.679272103947785  1.0000
  H   H458      1.0  0.9070461602101595  0.818456542393225  0.6984476811287249  1.0000
  H   H459      1.0  0.8739385425790538  0.8222080016099973  0.7200744244605336  1.0000
  H   H460      1.0  0.8496512212303294  0.8203143766109589  0.6958972711642282  1.0000
  N   N18       1.0  0.16134181980098758  0.43548166934076343  0.22460900457736732  1.0000
  C   C453      1.0  0.18243123957802773  0.4841135016043676  0.23042545464165076  1.0000
  C   C454      1.0  0.167167808407794  0.39625119980329704  0.24040050675827956  1.0000
  C   C455      1.0  0.18075759288063153  0.41650860001828816  0.20599964836786464  1.0000
  C   C456      1.0  0.11491934488753305  0.44504952356296895  0.2215866449683727  1.0000
  H   H461      1.0  0.1681833465518194  0.49971597467747025  0.24432386355692498  1.0000
  H   H462      1.0  0.17889078140024026  0.5144741660277726  0.21881291294823157  1.0000
  H   H463      1.0  0.21752544260130968  0.4785385811989937  0.232949128378136  1.0000
  H   H464      1.0  0.15149142776270783  0.35908258839817314  0.23654925398609142  1.0000
  H   H465      1.0  0.20180180068134596  0.3880491359479333  0.24314320905723197  1.0000
  H   H466      1.0  0.15281716765057415  0.40907256874540066  0.2546859109411643  1.0000
  H   H467      1.0  0.16632789373534862  0.37910913710203364  0.2014872550757098  1.0000
  H   H468      1.0  0.2160424701861524  0.41035522301014504  0.20759628588200318  1.0000
  H   H469      1.0  0.1755755141659207  0.4442246474902062  0.19356045851421227  1.0000
  H   H470      1.0  0.09835723086169312  0.4096683540635016  0.21648148700705602  1.0000
  H   H471      1.0  0.10930756254883223  0.47556101484459284  0.21019835854484292  1.0000
  H   H472      1.0  0.09904834903531579  0.4576697298926754  0.23557301203639733  1.0000
  N   N19       1.0  0.054699698976949485  0.966337421879792  0.22507038739676355  1.0000
  C   C457      1.0  0.04307600241645826  0.9222784147219905  0.23802831015973305  1.0000
  C   C458      1.0  0.09038463071524938  0.9510653247972131  0.21179333339095163  1.0000
  C   C459      1.0  0.06831780550967248  0.010226758151550719  0.2374237351851429  1.0000
  C   C460      1.0  0.017105783370861216  0.9817893314974465  0.2130154900395302  1.0000
  H   H473      1.0  0.03309833603931689  0.8882256042724109  0.22919109758663966  1.0000
  H   H474      1.0  0.015815256862689697  0.932082100787764  0.2480552541377866  1.0000
  H   H475      1.0  0.07071246057252889  0.91004093713396  0.24745006951424342  1.0000
  H   H476      1.0  0.0808878985886099  0.9183115669090074  0.20212746319009647  1.0000
  H   H477      1.0  0.10006689274920566  0.9835102915698397  0.20186444593258063  1.0000
  H   H478      1.0  0.1191750020514104  0.9386271846624271  0.22036386335329572  1.0000
  H   H479      1.0  0.04219457494369383  0.022484330383845563  0.24769903861669382  1.0000
  H   H480      1.0  0.07697146529659782  0.04428260367058501  0.22812571138621168  1.0000
  H   H481      1.0  0.09680478619073551  0.9999731167656488  0.24661112700595142  1.0000
  H   H482      1.0  0.005975029043123969  0.9495416513511362  0.20351180524527793  1.0000
  H   H483      1.0  0.02498015824426769  0.014744233671991624  0.20297142698051646  1.0000
  H   H484      1.0  0.9894759846673846  0.9936062256574631  0.22248050212088621  1.0000
  N   N20       1.0  0.5007124472401057  0.9317030931412562  0.2986447737227695  1.0000
  C   C461      1.0  0.5214169197057077  0.9572014796882947  0.3156632982937141  1.0000
  C   C462      1.0  0.454249688529548  0.9251663673914206  0.3026378665631751  1.0000
  C   C463      1.0  0.5206913323154884  0.8805823385980891  0.29559485544120634  1.0000
  C   C464      1.0  0.5065088072047189  0.9636920678496276  0.28062439716985865  1.0000
  H   H485      1.0  0.5565418642908416  0.962924254327138  0.3130500194012458  1.0000
  H   H486      1.0  0.5182594639383865  0.9337458463284526  0.32947030871975935  1.0000
  H   H487      1.0  0.506960950937401  0.9957491875616418  0.3185404936834107  1.0000
  H   H488      1.0  0.4376539382855084  0.9629812104326857  0.304485259234767  1.0000
  H   H489      1.0  0.43796590403769375  0.9051037420538541  0.29019737404264956  1.0000
  H   H490      1.0  0.44841649629375147  0.9020237359392843  0.3163180410915837  1.0000
  H   H491      1.0  0.5070422851203863  0.8608875195660447  0.2824350327851932  1.0000
  H   H492      1.0  0.5157345730794363  0.8547328815397627  0.30861987466916174  1.0000
  H   H493      1.0  0.5560103830689336  0.8839155760976543  0.2932033203531233  1.0000
  H   H494      1.0  0.49167188945001816  0.9452917993945293  0.2674488908766751  1.0000
  H   H495      1.0  0.5411778586270486  0.9696681834234886  0.2771494598334022  1.0000
  H   H496      1.0  0.4913911307463703  0.002390355809326783  0.2822610454270172  1.0000
  N   N21       1.0  0.12808021616659346  0.7811832647285742  0.31418465353437675  1.0000
  C   C465      1.0  0.09939816193899298  0.8247400943072025  0.3089634179808035  1.0000
  C   C466      1.0  0.13701953422241744  0.7504407324350129  0.29625097467034517  1.0000
  C   C467      1.0  0.10694017700118796  0.7483654538880326  0.3293072802775162  1.0000
  C   C468      1.0  0.16888914420059453  0.8012041330077088  0.3222502546379043  1.0000
  H   H497      1.0  0.0912081875935924  0.8480916646197874  0.3222293176739031  1.0000
  H   H498      1.0  0.06857849406770478  0.8109011766694869  0.30254112488033613  1.0000
  H   H499      1.0  0.11473265194129262  0.8510125252493917  0.29790479487359756  1.0000
  H   H500      1.0  0.10681505282020141  0.735467141601616  0.28959121711581887  1.0000
  H   H501      1.0  0.15376345218056872  0.7738630071937451  0.2847223862722385  1.0000
  H   H502      1.0  0.15783863392949632  0.7165380601924686  0.2996818648589269  1.0000
  H   H503      1.0  0.1277798973042493  0.714992529591705  0.3335109904918663  1.0000
  H   H504      1.0  0.07588156456320139  0.7329315576532139  0.3237906367767929  1.0000
  H   H505      1.0  0.09992255706001973  0.770533827574407  0.34306545001916555  1.0000
  H   H506      1.0  0.18504134215070242  0.8278841824014816  0.3115990537415603  1.0000
  H   H507      1.0  0.191875700854891  0.7693738358190695  0.32564860300375026  1.0000
  H   H508      1.0  0.1634159959481395  0.8225244207344372  0.3363110379018974  1.0000
  N   N22       1.0  0.5416804465043287  0.1246193566821634  0.5487092159529686  1.0000
  C   C469      1.0  0.5064014623119663  0.12057459347094657  0.5634031075676531  1.0000
  C   C470      1.0  0.5788654913241645  0.09363979536531053  0.5555211610870836  1.0000
  C   C471      1.0  0.5546813225025196  0.17916791652744601  0.5465036099087178  1.0000
  C   C472      1.0  0.5268412813731663  0.10497832373439131  0.5294003535272416  1.0000
  H   H509      1.0  0.5165928508239789  0.13476460747799468  0.5781953377455866  1.0000
  H   H510      1.0  0.4953685801587188  0.07996837010206548  0.5652814067297081  1.0000
  H   H511      1.0  0.477956036870776  0.14395759292773813  0.5588906098488536  1.0000
  H   H512      1.0  0.6053787109897106  0.09381331488332445  0.5443664542411113  1.0000
  H   H513      1.0  0.5919713806095313  0.10852464142041862  0.5696919491832129  1.0000
  H   H514      1.0  0.5697463100451646  0.052601023440003614  0.55799780563335  1.0000
  H   H515      1.0  0.5272225837835398  0.20383853296617693  0.5416832252446985  1.0000
  H   H516      1.0  0.5809339197283301  0.1837031014624253  0.5353765569146427  1.0000
  H   H517      1.0  0.5664111707586182  0.1951335417710678  0.5607825925842496  1.0000
  H   H518      1.0  0.5526593925232332  0.1072601765550707  0.5179290700119167  1.0000
  H   H519      1.0  0.49858628332785676  0.12706393958141038  0.5238135200787898  1.0000
  H   H520      1.0  0.5173069302275738  0.06376977484948099  0.5305599269861255  1.0000
  N   N23       1.0  0.9167296521819635  0.6026978079503855  0.30015376955385054  1.0000
  C   C473      1.0  0.9356494821610268  0.5753090453326992  0.2830667744489502  1.0000
  C   C474      1.0  0.9514087082271986  0.6187582073226697  0.3136924285743539  1.0000
  C   C475      1.0  0.8867828223193484  0.5679777462834686  0.3107928381849991  1.0000
  C   C476      1.0  0.8932358356901565  0.6487911198315337  0.2929810475003432  1.0000
  H   H521      1.0  0.9103489344323039  0.5599174931993032  0.2730937158291521  1.0000
  H   H522      1.0  0.9558629921051371  0.541991909104851  0.2878898147512711  1.0000
  H   H523      1.0  0.9562951461906299  0.6013720478594421  0.27408376842579274  1.0000
  H   H524      1.0  0.9705064835627711  0.5849961804992193  0.3189738129386076  1.0000
  H   H525      1.0  0.9741526102620348  0.6456525806760686  0.3061738684398178  1.0000
  H   H526      1.0  0.9382237344880653  0.6388697484553978  0.3269061875971482  1.0000
  H   H527      1.0  0.8714732460881612  0.587237910385872  0.3237405084670335  1.0000
  H   H528      1.0  0.9036493844455982  0.5328584849321282  0.3163938477668615  1.0000
  H   H529      1.0  0.8606456506122799  0.5546193366184513  0.3008571313486525  1.0000
  H   H530      1.0  0.877698848820949  0.6700318592474512  0.30538340168601796  1.0000
  H   H531      1.0  0.867574617033281  0.6383417962851774  0.28226444827143937  1.0000
  H   H532      1.0  0.9153371674416719  0.6761677938084489  0.28524831849939497  1.0000
  N   N24       1.0  0.9264778877715906  0.9816935876496121  0.0690890531720756  1.0000
  C   C477      1.0  0.9128429431411308  0.03219844683572526  0.07701926297280888  1.0000
  C   C478      1.0  0.8923449608444181  0.9607247384057485  0.05624556428445231  1.0000
  C   C479      1.0  0.934444555078154  0.9455655056125896  0.08571995947607276  1.0000
  C   C480      1.0  0.96643275953954  0.98827567493768  0.0574115179181533  1.0000
  H   H533      1.0  0.9380377361288407  0.048774939664675276  0.0868330596730478  1.0000
  H   H534      1.0  0.8827514882953307  0.028770492476591025  0.0859223906305294  1.0000
  H   H535      1.0  0.9067601280191148  0.06057253746851243  0.06489303228666553  1.0000
  H   H536      1.0  0.9018400548124116  0.9227103990688728  0.04999815675168652  1.0000
  H   H537      1.0  0.8617266870587436  0.9548157878560604  0.06456152087687997  1.0000
  H   H538      1.0  0.8854019572008547  0.9868962081032066  0.043504489299029586  1.0000
  H   H539      1.0  0.9446559073785707  0.9069651754380988  0.08026338825101566  1.0000
  H   H540      1.0  0.9050069934242914  0.939861488596289  0.09490574647541189  1.0000
  H   H541      1.0  0.9601931819428186  0.960177014435957  0.09568301201735105  1.0000
  H   H542      1.0  0.9615190142680272  0.01454592980060121  0.04451079494037998  1.0000
  H   H543      1.0  0.9781407629185822  0.9508615768336942  0.05151086226948051  1.0000
  H   H544      1.0  0.9927483946269768  0.004635437293101452  0.06656242292558376  1.0000
  N   N25       1.0  0.25982103534984874  0.9657914813739965  0.4444642003265642  1.0000
  C   C481      1.0  0.27963760016887  0.006973695108128064  0.4322996315559405  1.0000
  C   C482      1.0  0.27310154848436924  0.9149543106503876  0.43673022326639455  1.0000
  C   C483      1.0  0.2124449097557334  0.970509977071759  0.44355209312978117  1.0000
  C   C484      1.0  0.2740719065831068  0.9708139862422562  0.46524358386846876  1.0000
  H   H545      1.0  0.27062305592013736  0.04586280445344748  0.4378792852442079  1.0000
  H   H546      1.0  0.2690162223255016  0.004756913654860195  0.4165725296668903  1.0000
  H   H547      1.0  0.315370581210751  0.004289789433069124  0.4324548476578765  1.0000
  H   H548      1.0  0.25926124309631693  0.882977739954946  0.44576217421362996  1.0000
  H   H549      1.0  0.26172878216899303  0.909267139002146  0.42125465982153387  1.0000
  H   H550      1.0  0.3086873670543903  0.9102006119119354  0.4368659687059063  1.0000
  H   H551      1.0  0.1963428879224326  0.9389876914217952  0.45204566996077505  1.0000
  H   H552      1.0  0.20070462739812076  0.9679111998097034  0.42803959730221325  1.0000
  H   H553      1.0  0.20116020677448537  0.008170530093554396  0.44952681986734994  1.0000
  H   H554      1.0  0.25868907474480485  0.94129508850615  0.4749697566094198  1.0000
  H   H555      1.0  0.2657216694195956  0.009372921426203495  0.47132183004331385  1.0000
  H   H556      1.0  0.3095769196532116  0.9657201549688526  0.466627754078318  1.0000
  N   N26       1.0  0.8735126607279329  0.6595814069172029  0.004628241516150711  1.0000
  C   C485      1.0  0.8908355937933343  0.6087404139984086  0.010618470715823225  1.0000
  C   C486      1.0  0.8618029403326452  0.6587016920711296  0.9834127849022304  1.0000
  C   C487      1.0  0.9063546402908579  0.6997516397961546  0.007938173477410881  1.0000
  C   C488      1.0  0.834907506492011  0.6712704004523424  0.01661024337530881  1.0000
  H   H557      1.0  0.8991442362154144  0.6077690958785777  0.02663811645243741  1.0000
  H   H558      1.0  0.9204803638682466  0.5987493132557566  0.0021686770318269932  1.0000
  H   H559      1.0  0.8671398954562961  0.577329376723419  0.008111563895400797  1.0000
  H   H560      1.0  0.8482029235131908  0.6964277308349416  0.978458266453594  1.0000
  H   H561      1.0  0.8901918919937528  0.6501672872207565  0.9738911837583157  1.0000
  H   H562      1.0  0.8368590810100138  0.6291070527754666  0.9803921064440048  1.0000
  H   H563      1.0  0.8942629982164658  0.738582412895218  0.003439034154316012  1.0000
  H   H564      1.0  0.9362708491992643  0.692074337743835  0.9993491464350422  1.0000
  H   H565      1.0  0.9151848959138826  0.702290842762798  0.02388995025506091  1.0000
  H   H566      1.0  0.8424487755962788  0.6725681356588983  0.03273492740348116  1.0000
  H   H567      1.0  0.809054382550034  0.6423319282693573  0.014375426570006011  1.0000
  H   H568      1.0  0.8215389387699134  0.7096076963951067  0.01257851221475148  1.0000
  N   N27       1.0  0.2591895605534825  0.046800751095654736  0.8630538843491045  1.0000
  C   C489      1.0  0.21521423570433046  0.0682881265721027  0.8645193471091103  1.0000
  C   C490      1.0  0.27807040461391824  0.042795349293873075  0.8830751861331314  1.0000
  C   C491      1.0  0.2860660629792322  0.08114165992704803  0.8505854254818768  1.0000
  C   C492      1.0  0.2573521774316634  0.9949946983860647  0.8540752941918025  1.0000
  H   H569      1.0  0.19960587967784899  0.07084867469088563  0.8497261036844441  1.0000
  H   H570      1.0  0.21551117488413646  0.10780102640089573  0.8708576130892548  1.0000
  H   H571      1.0  0.1943213564886743  0.04429088359407851  0.8742953962293444  1.0000
  H   H572      1.0  0.31135000994927586  0.026954270817583392  0.8825600740356289  1.0000
  H   H573      1.0  0.27990420475507327  0.08114608844612281  0.8902564931321996  1.0000
  H   H574      1.0  0.2586551580821175  0.017376439689316348  0.8929697740480513  1.0000
  H   H575      1.0  0.2878067695377383  0.12076359480633791  0.8568075078388934  1.0000
  H   H576      1.0  0.2731390811110588  0.08463994907673023  0.8352821738250807  1.0000
  H   H577      1.0  0.31959340050028295  0.0663539555715269  0.8493252352099803  1.0000
  H   H578      1.0  0.2897562821058667  0.9767955592933354  0.8534853368181435  1.0000
  H   H579      1.0  0.2451059382901351  0.9968184427538129  0.8385954498432301  1.0000
  H   H580      1.0  0.23609844944534375  0.9686560558702726  0.8627158245472263  1.0000
  N   N28       1.0  0.9497161876367035  0.9335083737069546  0.5910932575645086  1.0000
  C   C493      1.0  0.9483322626342062  0.9828956671014561  0.5800469503791673  1.0000
  C   C494      1.0  0.95632002789973  0.9436400590586218  0.6124083247705295  1.0000
  C   C495      1.0  0.9856159653550859  0.9016664551480134  0.5835868507454135  1.0000
  C   C496      1.0  0.908736970320449  0.9056912544380754  0.5883129912496186  1.0000
  H   H581      1.0  0.9435787156803221  0.9767095249659341  0.5639078824205639  1.0000
  H   H582      1.0  0.978649599012101  0.005103715639422024  0.5819957919970161  1.0000
  H   H583      1.0  0.9216475079215456  0.00802554923257337  0.585406804697603  1.0000
  H   H584      1.0  0.9575691087700754  0.9072135049982937  0.6212305963923169  1.0000
  H   H585      1.0  0.9872399993108155  0.9641711575740144  0.6150142107649721  1.0000
  H   H586      1.0  0.9302204838806802  0.9682971379606311  0.6185839973487204  1.0000
  H   H587      1.0  0.9878074345239477  0.8647182607525026  0.5919166536464576  1.0000
  H   H588      1.0  0.017071167863367265  0.9214951869479114  0.585408096605957  1.0000
  H   H589      1.0  0.9813939791381641  0.892071754678476  0.5676510976326813  1.0000
  H   H590      1.0  0.9086185495956993  0.8683171458294341  0.5965045711979051  1.0000
  H   H591      1.0  0.9031719519872415  0.8966176191856754  0.5724025573919365  1.0000
  H   H592      1.0  0.8808656772504602  0.9288195215748456  0.5936602097153303  1.0000
  N   N29       1.0  0.18559596722732086  0.19922167175018446  0.3508337254534534  1.0000
  C   C497      1.0  0.17573248172228428  0.24602245850868365  0.3391110990107656  1.0000
  C   C498      1.0  0.15070115387721716  0.16128853111574637  0.34842859096614937  1.0000
  C   C499      1.0  0.18928419526696816  0.21262730640560945  0.37198370161243444  1.0000
  C   C500      1.0  0.22666747323453884  0.17702859608515076  0.343766364816219  1.0000
  H   H593      1.0  0.2021987651739494  0.27461499509121806  0.3401336258284782  1.0000
  H   H594      1.0  0.14564795321597868  0.26499433857019716  0.344387665446605  1.0000
  H   H595      1.0  0.1717609072542119  0.2369768572992319  0.32314437079056296  1.0000
  H   H596      1.0  0.15781155242179157  0.12473710235135173  0.35655921389719786  1.0000
  H   H597      1.0  0.11939761654308434  0.17632965003014459  0.3540575058620833  1.0000
  H   H598      1.0  0.14595981981628148  0.15179878149129644  0.33259335384281735  1.0000
  H   H599      1.0  0.21467095443775097  0.24206961923708392  0.3744176315196264  1.0000
  H   H600      1.0  0.19708701239895166  0.17828749061303117  0.38117903479479415  1.0000
  H   H601      1.0  0.15846945613810215  0.22829236925647023  0.37786114128075543  1.0000
  H   H602      1.0  0.2534854719901105  0.20516094173735325  0.3450477211792456  1.0000
  H   H603      1.0  0.2244720176856576  0.16489870552256394  0.32801877502243154  1.0000
  H   H604      1.0  0.2358533461859278  0.14243693687447911  0.3525468846673273  1.0000
  N   N30       1.0  0.3388824746403176  0.9079824511608169  0.7089058229900723  1.0000
  C   C501      1.0  0.3364744712802445  0.8808941520512796  0.6897416027213209  1.0000
  C   C502      1.0  0.3273595991796163  0.9628765702879016  0.7060640291036991  1.0000
  C   C503      1.0  0.3831321149637548  0.9040359662292673  0.7167393318165529  1.0000
  C   C504      1.0  0.3085597328732041  0.8841179568516087  0.7231328778302006  1.0000
  H   H605      1.0  0.34502582759308903  0.839375170226706  0.691409749025054  1.0000
  H   H606      1.0  0.3591306880340966  0.8979345800697193  0.6786907529306375  1.0000
  H   H607      1.0  0.30359491424935525  0.8833020733445697  0.6833219050120263  1.0000
  H   H608      1.0  0.32967466013368807  0.9846075616402312  0.7201960324384787  1.0000
  H   H609      1.0  0.3491407288859917  0.9819692370986226  0.6951891008823493  1.0000
  H   H610      1.0  0.2939149799236976  0.9674232078889283  0.7004947333008567  1.0000
  H   H611      1.0  0.40699670367249635  0.9215715830349916  0.7063966322653988  1.0000
  H   H612      1.0  0.39292419353784047  0.8631370319288346  0.7191320263548651  1.0000
  H   H613      1.0  0.3863052601222539  0.9240720713084019  0.7311919811157519  1.0000
  H   H614      1.0  0.3083165516209292  0.9050082313987913  0.7374673448758964  1.0000
  H   H615      1.0  0.3171596166361992  0.8432171055164407  0.7263813862974193  1.0000
  H   H616      1.0  0.2749351622920205  0.8847370128287487  0.7175015388343514  1.0000
  N   N31       1.0  0.26778541978620884  0.357954162691283  0.9076428332354519  1.0000
  C   C505      1.0  0.2606353428802726  0.3999475742794419  0.8930678809170527  1.0000
  C   C506      1.0  0.22823012478793042  0.326778167947416  0.9097497144427364  1.0000
  C   C507      1.0  0.27880623254797543  0.3805362673176863  0.9270265768212882  1.0000
  C   C508      1.0  0.3034995130815712  0.32466261445674394  0.9008165728420057  1.0000
  H   H617      1.0  0.23537487197984353  0.42723492404172314  0.8982171111270968  1.0000
  H   H618      1.0  0.25007637125989196  0.3848210468031038  0.8784700687123358  1.0000
  H   H619      1.0  0.2903577045658094  0.42288521493012327  0.8904792987095506  1.0000
  H   H620      1.0  0.21764887671113706  0.3108977793935738  0.8952992686295965  1.0000
  H   H621      1.0  0.23304938975317682  0.29326437605137773  0.919920012755993  1.0000
  H   H622      1.0  0.20112203356867517  0.3500765525246335  0.9157163111985122  1.0000
  H   H623      1.0  0.284281197262372  0.35000499179186007  0.9384246898552947  1.0000
  H   H624      1.0  0.25246750907526505  0.406073277976912  0.932535580716471  1.0000
  H   H625      1.0  0.30848702251370597  0.40438218622658684  0.9260197777270913  1.0000
  H   H626      1.0  0.3094610734981106  0.2921681353524035  0.9113454905637166  1.0000
  H   H627      1.0  0.33400797724660836  0.3467026567224734  0.899232740957653  1.0000
  H   H628      1.0  0.2963535503371209  0.3074611029236396  0.8861365355356675  1.0000
  N   N32       1.0  0.49911983203339033  0.5772296162596977  0.09037008709901599  1.0000
  C   C509      1.0  0.4572725384975032  0.589676038023533  0.08115586801791079  1.0000
  C   C510      1.0  0.4946425484356301  0.5785182812165676  0.11218875250097433  1.0000
  C   C511      1.0  0.5314059376514264  0.6157163842737106  0.08394250768572153  1.0000
  C   C512      1.0  0.5130109135099391  0.5251889345740087  0.08414291345855576  1.0000
  H   H629      1.0  0.4319939297629075  0.5613681905666672  0.08548570374096472  1.0000
  H   H630      1.0  0.4595663109984686  0.5906054281410449  0.0646772077710847  1.0000
  H   H631      1.0  0.4455573010712269  0.6281415899479587  0.08590756590321887  1.0000
  H   H632      1.0  0.5252935391398664  0.5680108346092462  0.11971613811549764  1.0000
  H   H633      1.0  0.485192345316138  0.6176492168930673  0.11738951592818062  1.0000
  H   H634      1.0  0.4694131071575878  0.5512735135208315  0.11750211089494948  1.0000
  H   H635      1.0  0.5355073406333575  0.6159673503654447  0.06752853432305181  1.0000
  H   H636      1.0  0.5633920667258806  0.6079616140338359  0.09070329678500035  1.0000
  H   H637      1.0  0.5215598217273694  0.6555317293839705  0.08815299213940749  1.0000
  H   H638      1.0  0.5442282313530855  0.5140801512408982  0.09103311533194043  1.0000
  H   H639      1.0  0.5170279602218266  0.5231006975399343  0.06777445278915505  1.0000
  H   H640      1.0  0.4890366564552324  0.49528587485270525  0.08850208643793298  1.0000
  N   N33       1.0  0.5198268850703347  0.9920188349233813  0.1518924652542193  1.0000
  C   C513      1.0  0.5358834775273964  0.012802529170697685  0.1708348211327915  1.0000
  C   C514      1.0  0.5067769516262675  0.937620733322953  0.15467686743656614  1.0000
  C   C515      1.0  0.5543043212519537  0.9951025672880157  0.13678839232886972  1.0000
  C   C516      1.0  0.4824318280622263  0.022733817496276565  0.14516174548791322  1.0000
  H   H641      1.0  0.5105068442659779  0.012662593709813486  0.18249602218479652  1.0000
  H   H642      1.0  0.5470361518485706  0.05337353154273661  0.1690905258502582  1.0000
  H   H643      1.0  0.5633089581757994  0.9897035574075047  0.17672263297682309  1.0000
  H   H644      1.0  0.4948059921936764  0.9205972679616649  0.14061307643875046  1.0000
  H   H645      1.0  0.5340713704314334  0.9133704484637641  0.1599711101388629  1.0000
  H   H646      1.0  0.4804632461772358  0.9339340274555765  0.16580826298862184  1.0000
  H   H647      1.0  0.5433772942721153  0.9797204225100428  0.12228204706232874  1.0000
  H   H648      1.0  0.5831855934304389  0.9726082281901275  0.14139221287979933  1.0000
  H   H649      1.0  0.5646772762408431  0.03579150727388214  0.13427744883838097  1.0000
  H   H650      1.0  0.4914892605925668  0.06362307250245136  0.14238497611407727  1.0000
  H   H651      1.0  0.45616156616582987  0.02273245680244118  0.15642863751549754  1.0000
  H   H652      1.0  0.4691340296767643  0.0074696784279653095  0.13109549225828127  1.0000
  N   N34       1.0  0.5467003402941257  0.9632829055869638  0.6382133045797197  1.0000
  C   C517      1.0  0.5754532578576771  0.969486788574573  0.6554345175869061  1.0000
  C   C518      1.0  0.5215747483261423  0.011125283975223832  0.635142147901886  1.0000
  C   C519      1.0  0.5170946694190582  0.9197926001934255  0.6420154248019195  1.0000
  C   C520      1.0  0.5726806544258138  0.9525645400661958  0.6203204360199767  1.0000
  H   H653      1.0  0.5567156882548988  0.9772174476921898  0.669211255539531  1.0000
  H   H654      1.0  0.5981796989092518  0.002103076856424524  0.6531778530503042  1.0000
  H   H655      1.0  0.5949483497954978  0.9339213241914539  0.6580743237622277  1.0000
  H   H656      1.0  0.5024402776586298  0.02091275761380329  0.6485884810530058  1.0000
  H   H657      1.0  0.5427349567702447  0.04465306119585799  0.6318611937926437  1.0000
  H   H658      1.0  0.49862856638760533  0.007136797975169751  0.6225994714105252  1.0000
  H   H659      1.0  0.5350603116273578  0.8837201616179413  0.6453821743616381  1.0000
  H   H660      1.0  0.4959978095349129  0.9122363114020718  0.629043366502405  1.0000
  H   H661      1.0  0.4959496331893565  0.9273023450951491  0.6549819854187775  1.0000
  H   H662      1.0  0.5930845949012966  0.9176106050973039  0.622432805746361  1.0000
  H   H663      1.0  0.5945937597137286  0.985110962409633  0.6166607319799591  1.0000
  H   H664      1.0  0.5518790221601922  0.945635357021393  0.6071911770382834  1.0000
  N   N35       1.0  0.7636240393570557  0.543211616159409  0.7495758274512949  1.0000
  C   C521      1.0  0.7666638524108128  0.5268419371995301  0.7286662732872736  1.0000
  C   C522      1.0  0.7905446941429617  0.5894387898186677  0.752512193322987  1.0000
  C   C523      1.0  0.779031499065293  0.5012072114547564  0.7626662827562771  1.0000
  C   C524      1.0  0.7183173349255452  0.5553979710370073  0.7544487291393214  1.0000
  H   H665      1.0  0.7470415403331047  0.4917782458022401  0.7259155744575182  1.0000
  H   H666      1.0  0.8004707370575002  0.5177093553657084  0.724409414906637  1.0000
  H   H667      1.0  0.754988632878775  0.5576991344750427  0.7184059245161077  1.0000
  H   H668      1.0  0.7878716665575103  0.6040812101343237  0.7679795472830324  1.0000
  H   H669      1.0  0.8251788515789145  0.5809385938780558  0.7497051139994174  1.0000
  H   H670      1.0  0.7808736374450475  0.6212190699754507  0.7422987375754995  1.0000
  H   H671      1.0  0.8128645903875614  0.49032168566641954  0.7591176641870214  1.0000
  H   H672      1.0  0.7591878000678817  0.4658486679539384  0.7611440755926161  1.0000
  H   H673      1.0  0.7780985598798714  0.512916366735695  0.7785198514407129  1.0000
  H   H674      1.0  0.7149014178831795  0.5697615419635589  0.7698983487844469  1.0000
  H   H675      1.0  0.6972818075662401  0.5209984221709973  0.7530077474123378  1.0000
  H   H676      1.0  0.7051760497214489  0.5856940580194079  0.7443942570542894  1.0000
  N   N36       1.0  0.7200282314897807  0.1690326208158992  0.36372522365148285  1.0000
  C   C525      1.0  0.6817158628580953  0.13612389687616422  0.36662813092676366  1.0000
  C   C526      1.0  0.7590939723171533  0.13941536542322996  0.36902781651372873  1.0000
  C   C527      1.0  0.7165911024156201  0.2151135916169602  0.376443882133103  1.0000
  C   C528      1.0  0.722811457732553  0.1855303656527476  0.34274600756091156  1.0000
  H   H677      1.0  0.6515528607715869  0.15708214196446924  0.3627941492128417  1.0000
  H   H678      1.0  0.6787729541351931  0.1229234601743725  0.38229436375471093  1.0000
  H   H679      1.0  0.6833088380624044  0.10090447776866318  0.35727208442415037  1.0000
  H   H680      1.0  0.788733268796967  0.16217083957636902  0.3661081313410853  1.0000
  H   H681      1.0  0.7591745376923866  0.12836246661944295  0.3850099021165845  1.0000
  H   H682      1.0  0.7616666132812768  0.10310520352866415  0.36039218693578357  1.0000
  H   H683      1.0  0.7443757692814463  0.24148585146412604  0.37414645704078675  1.0000
  H   H684      1.0  0.715932276253204  0.20454434177391345  0.3924614299694344  1.0000
  H   H685      1.0  0.6869037349815436  0.23768648364124445  0.3732232991319662  1.0000
  H   H686      1.0  0.7513967776418716  0.21059953062858172  0.3400957820327653  1.0000
  H   H687      1.0  0.6938941920680284  0.20813240932670007  0.3382238826787557  1.0000
  H   H688      1.0  0.7255447433352074  0.15180268903515026  0.3326881978065877  1.0000
  N   N37       1.0  0.6570962017418254  0.8894920419875687  0.43838257941139613  1.0000
  C   C529      1.0  0.6419039941461411  0.8728836430806813  0.4186938808728197  1.0000
  C   C530      1.0  0.7044801950723646  0.894383843203147  0.4380088085641023  1.0000
  C   C531      1.0  0.6445527385141302  0.8509104126417836  0.4535482507334252  1.0000
  C   C532      1.0  0.6374915376642927  0.9398142158687559  0.4433398818674572  1.0000
  H   H689      1.0  0.6062740672470555  0.8688054761022261  0.4184068864579341  1.0000
  H   H690      1.0  0.6559144758141215  0.8348852429813244  0.41453393054227267  1.0000
  H   H691      1.0  0.6509745223578953  0.9011746294004411  0.40691175173706634  1.0000
  H   H692      1.0  0.7171046591421342  0.906125954432679  0.4527287959824782  1.0000
  H   H693      1.0  0.720215889315422  0.8570421522270648  0.43424150198187933  1.0000
  H   H694      1.0  0.715175994395636  0.923759292763554  0.4269345250541468  1.0000
  H   H695      1.0  0.6090467202565251  0.8456522626679456  0.45410934591427266  1.0000
  H   H696      1.0  0.655220726385193  0.8626445670909814  0.46860121702496876  1.0000
  H   H697      1.0  0.6593657814637089  0.8126288750916911  0.45053453067396987  1.0000
  H   H698      1.0  0.6481448723853195  0.9534927555223273  0.4581361625769785  1.0000
  H   H699      1.0  0.6017281278421011  0.9377737618082567  0.4438096029779749  1.0000
  H   H700      1.0  0.6462272930838817  0.97020309438724  0.4323260235001379  1.0000
  N   N38       1.0  0.1013819100562614  0.20145558331168267  0.10243579978169405  1.0000
  C   C533      1.0  0.05392870393526449  0.20101969168677858  0.10383083577892524  1.0000
  C   C534      1.0  0.11926536259335872  0.159246750981757  0.11477280620950572  1.0000
  C   C535      1.0  0.11775955996814141  0.25153681905793257  0.10951796727575511  1.0000
  C   C536      1.0  0.11440739046645301  0.19401401380378666  0.08156465609019185  1.0000
  H   H701      1.0  0.04046473191341215  0.16375838896450468  0.09857421239254016  1.0000
  H   H702      1.0  0.03935657373892787  0.2325884272002288  0.09473926670417351  1.0000
  H   H703      1.0  0.04294902984291382  0.20641298290287824  0.11939961548163246  1.0000
  H   H704      1.0  0.10928265373865864  0.1630096819765543  0.13057265276112504  1.0000
  H   H705      1.0  0.10799924122610771  0.12085400164608175  0.109619207028267  1.0000
  H   H706      1.0  0.15504591439942003  0.1587829873042037  0.11432302549261875  1.0000
  H   H707      1.0  0.15343903952322202  0.2536055368269976  0.1084916919766471  1.0000
  H   H708      1.0  0.10871208774554186  0.25825444935188546  0.1252748285532879  1.0000
  H   H709      1.0  0.1043840418793347  0.2843013314632733  0.10066663658353635  1.0000
  H   H710      1.0  0.15004966376405593  0.19401801369029936  0.07990589630459691  1.0000
  H   H711      1.0  0.10133669560050529  0.2252904545606511  0.07188084020385942  1.0000
  H   H712      1.0  0.10237761388584632  0.15657906854769466  0.07577074101939588  1.0000
  N   N39       1.0  0.0788085178129958  0.44194253830211017  0.7977985718951341  1.0000
  C   C537      1.0  0.08046570193532432  0.46309571061394567  0.8180609056394416  1.0000
  C   C538      1.0  0.08145486780571498  0.4844963259816302  0.7831620043937394  1.0000
  C   C539      1.0  0.03794617213918983  0.41384448397247947  0.7951586005413456  1.0000
  C   C540      1.0  0.11539341665323041  0.40627166237618323  0.7947516170593859  1.0000
  H   H713      1.0  0.07951628444493397  0.43173793524879817  0.8294227506876839  1.0000
  H   H714      1.0  0.053013698696319445  0.48963189086574954  0.8209871085876732  1.0000
  H   H715      1.0  0.11074828339664702  0.4849565905652917  0.8205301438763016  1.0000
  H   H716      1.0  0.11197225274852808  0.5063968736365254  0.7847141035087836  1.0000
  H   H717      1.0  0.08043726130175433  0.46956455682742637  0.7676949034151781  1.0000
  H   H718      1.0  0.05420090389022247  0.5120767471129156  0.7848723468559117  1.0000
  H   H719      1.0  0.03480072505623011  0.3997518309151708  0.7797305436400437  1.0000
  H   H720      1.0  0.009544362975660635  0.4389533224543045  0.7981259142025483  1.0000
  H   H721      1.0  0.03586880436172257  0.37969023824849396  0.8051942777402551  1.0000
  H   H722      1.0  0.11598487198615014  0.39115189231832287  0.7793850990629727  1.0000
  H   H723      1.0  0.11386215840055272  0.3726330584384281  0.8050673672778094  1.0000
  H   H724      1.0  0.1467649786137586  0.4257223571068928  0.7972875895864611  1.0000
  N   N40       1.0  0.6720280333935646  0.5714923586417435  0.3630480659809962  1.0000
  C   C541      1.0  0.6809202701495594  0.5309971702765354  0.3780216711264075  1.0000
  C   C542      1.0  0.6265787230891969  0.5879219646638131  0.36460607518675786  1.0000
  C   C543      1.0  0.6804452533779437  0.5508258654607449  0.34303723673838415  1.0000
  C   C544      1.0  0.7002019481177308  0.6163408538860239  0.3665248264234581  1.0000
  H   H725      1.0  0.714176327986428  0.5156855737193108  0.37645811172490573  1.0000
  H   H726      1.0  0.6587673507781958  0.4976587697384354  0.3764759379392943  1.0000
  H   H727      1.0  0.677618969281097  0.5460265755212197  0.3933844547326476  1.0000
  H   H728      1.0  0.6186883852101076  0.6180772425916378  0.35334133365564824  1.0000
  H   H729      1.0  0.6042157096240252  0.5550899810339056  0.3623621979000557  1.0000
  H   H730      1.0  0.6195901499208323  0.6049981914231588  0.37939070023480564  1.0000
  H   H731      1.0  0.7146830998206165  0.5385487039252731  0.34139083089566225  1.0000
  H   H732      1.0  0.6738329729476852  0.5802477810532207  0.3313400046957493  1.0000
  H   H733      1.0  0.6600342026595737  0.5165943323517282  0.3399296289053012  1.0000
  H   H734      1.0  0.6932625751463859  0.6483480050697547  0.3559257473135287  1.0000
  H   H735      1.0  0.7346699311997188  0.6060818880453035  0.3647844401081888  1.0000
  H   H736      1.0  0.6959145223237145  0.6317353796872271  0.38176300770718197  1.0000
  N   N41       1.0  0.009814592924873855  0.5015472510328425  0.6240742639800784  1.0000
  C   C545      1.0  0.96661287977035  0.48168865251213017  0.6292517289798578  1.0000
  C   C546      1.0  0.026676400494726193  0.5320802531000917  0.6407450393816299  1.0000
  C   C547      1.0  0.006892438874166906  0.5345934397288717  0.6061821541576705  1.0000
  C   C548      1.0  0.03911759505415935  0.457819063989955  0.6201070385290547  1.0000
  H   H737      1.0  0.9535525941137771  0.45671377082776915  0.6173488833229654  1.0000
  H   H738      1.0  0.943283568846223  0.5137474150917675  0.6316618876726602  1.0000
  H   H739      1.0  0.9673342448588098  0.4580460926628794  0.643086291868587  1.0000
  H   H740      1.0  0.005816095893195872  0.566011646091158  0.6437958517485644  1.0000
  H   H741      1.0  0.02824270588399469  0.5087350469464872  0.6546416792273668  1.0000
  H   H742      1.0  0.05950866812041533  0.5469929224412098  0.6375145921301387  1.0000
  H   H743      1.0  0.03884063210886768  0.5507351235447022  0.6019307550468317  1.0000
  H   H744      1.0  0.9847925583394413  0.5678087945980814  0.6086164499310331  1.0000
  H   H745      1.0  0.9943947998180709  0.5127083905812237  0.5933079272311028  1.0000
  H   H746      1.0  0.07201033582279348  0.47122835673554553  0.6161312772226435  1.0000
  H   H747      1.0  0.027258450871530115  0.4338193286649586  0.6076427721274449  1.0000
  H   H748      1.0  0.041953785365081764  0.43186750441308897  0.6332377245830446  1.0000
  N   N42       1.0  0.8029192360579581  0.8209824777504052  0.8621383969068834  1.0000
  C   C549      1.0  0.8403830339337892  0.8508164245862836  0.8549904725945291  1.0000
  C   C550      1.0  0.8067568466464101  0.7670158308461149  0.8553972550094928  1.0000
  C   C551      1.0  0.7629921062613532  0.8440653102308673  0.8541445942332738  1.0000
  C   C552      1.0  0.8014524119080216  0.8221618563857999  0.8840271426873987  1.0000
  H   H749      1.0  0.8711565637744746  0.8339636774844087  0.8603800444046613  1.0000
  H   H750      1.0  0.8387227046856782  0.8915718558991533  0.8600614492965206  1.0000
  H   H751      1.0  0.8416446570341767  0.8519763098269423  0.8384870447237643  1.0000
  H   H752      1.0  0.8072401908168955  0.7645696724370108  0.838917161343195  1.0000
  H   H753      1.0  0.8367010738638494  0.7483862360143306  0.8609429103259949  1.0000
  H   H754      1.0  0.7792666809698972  0.7433838329942509  0.8608210037220869  1.0000
  H   H755      1.0  0.7340535533996233  0.8219794275530603  0.8588332479746489  1.0000
  H   H756      1.0  0.7633755469066044  0.8452655972821411  0.8376503505327282  1.0000
  H   H757      1.0  0.7586006044397564  0.8843663209394056  0.8593643984852345  1.0000
  H   H758      1.0  0.7735075745078189  0.8000138748269012  0.8898307527519292  1.0000
  H   H759      1.0  0.7980705529879812  0.8622834142807305  0.889626424990124  1.0000
  H   H760      1.0  0.8309402639426472  0.8049828289275257  0.8906537350790673  1.0000
  N   N43       1.0  0.6754017510961549  0.5866875796923916  0.5664849350095308  1.0000
  C   C553      1.0  0.7130095044755441  0.552688205959965  0.5632720065862962  1.0000
  C   C554      1.0  0.6754268467382081  0.6049972221483931  0.5871850795765157  1.0000
  C   C555      1.0  0.6354154551406154  0.5576277091921111  0.562686733487213  1.0000
  C   C556      1.0  0.6779464308866701  0.6313324317234691  0.5527878543494826  1.0000
  H   H761      1.0  0.7149604803826134  0.5395860739156451  0.5476143923560864  1.0000
  H   H762      1.0  0.7117075839933702  0.5178769885317223  0.572990965629386  1.0000
  H   H763      1.0  0.7436771691154086  0.5731093642656752  0.5665024056220924  1.0000
  H   H764      1.0  0.6467985970461844  0.6294188223870155  0.5904563895183919  1.0000
  H   H765      1.0  0.6749931230347054  0.572112487475482  0.5978836683660848  1.0000
  H   H766      1.0  0.704624678025573  0.6282297646509829  0.5904271162558267  1.0000
  H   H767      1.0  0.6063954600035311  0.582267749837804  0.5647335429044699  1.0000
  H   H768      1.0  0.6321295627120149  0.5240126122363702  0.5729463789579555  1.0000
  H   H769      1.0  0.6346570861486966  0.5427726506115567  0.5472341901217899  1.0000
  H   H770      1.0  0.7083784486692514  0.6532972070188838  0.5548431825186557  1.0000
  H   H771      1.0  0.650546876438513  0.6584171838960331  0.5549611348252846  1.0000
  H   H772      1.0  0.6772107928918901  0.6188156281354226  0.5370458623497639  1.0000
  N   N44       1.0  0.1329342862410109  0.48928131050383017  0.3947933126192105  1.0000
  C   C557      1.0  0.10517773275938724  0.45854743781037705  0.4081935676992043  1.0000
  C   C558      1.0  0.12100854302926584  0.4794364946830068  0.37397300953659457  1.0000
  C   C559      1.0  0.17831968355046865  0.47435503924438427  0.3979133608943005  1.0000
  C   C560      1.0  0.12743064664264828  0.5447563935833148  0.3990848500552865  1.0000
  H   H773      1.0  0.07062788789000861  0.46863480444074024  0.4062974388905571  1.0000
  H   H774      1.0  0.11366120614844981  0.46487718940726813  0.4240179847408506  1.0000
  H   H775      1.0  0.10867737675634515  0.41644678765523924  0.40531452832202325  1.0000
  H   H776      1.0  0.14247180614830016  0.5006523803836761  0.3634752785137291  1.0000
  H   H777      1.0  0.12371249724345453  0.4377452899373309  0.370399128247791  1.0000
  H   H778      1.0  0.0873135388637103  0.49147835532447925  0.3708959733078307  1.0000
  H   H779      1.0  0.2001198368622413  0.4952602328665642  0.38758713606235423  1.0000
  H   H780      1.0  0.1834530139806802  0.43257574406390065  0.39543129798603127  1.0000
  H   H781      1.0  0.1889842329335182  0.4828231976105277  0.4132652975936703  1.0000
  H   H782      1.0  0.14737285772645164  0.5689354567566187  0.3889410605988495  1.0000
  H   H783      1.0  0.13750951032095263  0.5539656165893695  0.4144854659057924  1.0000
  H   H784      1.0  0.09339529771621091  0.5572597114039626  0.39735884895063334  1.0000
  N   N45       1.0  0.2235243380262344  0.08809030212425761  0.24145958311270452  1.0000
  C   C561      1.0  0.22765341437095632  0.035135104485954693  0.23370572133835338  1.0000
  C   C562      1.0  0.21306369804535444  0.0857210294795292  0.26284760390429984  1.0000
  C   C563      1.0  0.1888514164017538  0.11570096977093769  0.23076442447570655  1.0000
  C   C564      1.0  0.2646931777415866  0.11565576725708415  0.2385261936862995  1.0000
  H   H785      1.0  0.2540063377157842  0.013769277011085324  0.24132650501208924  1.0000
  H   H786      1.0  0.23528532511077802  0.03527138191158685  0.2175690381304986  1.0000
  H   H787      1.0  0.19755220630991885  0.012660473596000088  0.23601679212352372  1.0000
  H   H788      1.0  0.2388168818286086  0.06551225451692222  0.2713709780889293  1.0000
  H   H789      1.0  0.20910833167619197  0.12502416847237252  0.2691870223783422  1.0000
  H   H790      1.0  0.1826096796674858  0.0642327720709559  0.26564718054035946  1.0000
  H   H791      1.0  0.19572467581467554  0.11828995412703636  0.21457841019542198  1.0000
  H   H792      1.0  0.18483871610814384  0.15586369610903716  0.23630534805437398  1.0000
  H   H793      1.0  0.15734904530367605  0.09585838200159147  0.23252976609034418  1.0000
  H   H794      1.0  0.273846962184845  0.11773678794264386  0.22254702349623018  1.0000
  H   H795      1.0  0.29164658142065597  0.09583440039062419  0.2463584602270215  1.0000
  H   H796      1.0  0.26285166245991254  0.15588975584798348  0.24413703129317968  1.0000
  N   N46       1.0  0.7168243412509483  0.5224024541701504  0.9746645886548698  1.0000
  C   C565      1.0  0.7393309771152876  0.5057671270982665  0.956451933236901  1.0000
  C   C566      1.0  0.7475996989318109  0.5488743384571236  0.9877517200395142  1.0000
  C   C567      1.0  0.699198648218073  0.4769211673526036  0.9851437298167955  1.0000
  C   C568      1.0  0.6812534396198003  0.5578288546073908  0.9693454879617537  1.0000
  H   H797      1.0  0.7171344631536745  0.4854258177317882  0.9462401397316801  1.0000
  H   H798      1.0  0.7664299372843354  0.47905411461006026  0.9598799649014338  1.0000
  H   H799      1.0  0.7527347174699082  0.5391887795809331  0.9481079639674873  1.0000
  H   H800      1.0  0.7312990851659185  0.5642752477542327  0.0011836966302614105  1.0000
  H   H801      1.0  0.7736934460258457  0.5222252049415089  0.9927128978451067  1.0000
  H   H802      1.0  0.7629419039232096  0.5819853063693595  0.9799841607578764  1.0000
  H   H803      1.0  0.6750852101387049  0.456636073352326  0.9759371323977175  1.0000
  H   H804      1.0  0.6830246903262431  0.48786644285052005  0.9992228708059111  1.0000
  H   H805      1.0  0.7249578362043891  0.44867079017288364  0.9888147608339446  1.0000
  H   H806      1.0  0.658054720572585  0.5391356200224081  0.9590838829655531  1.0000
  H   H807      1.0  0.6933291577960208  0.5931844288484858  0.9617963905684752  1.0000
  H   H808      1.0  0.6629873220184344  0.5705137850988062  0.9826516883524684  1.0000
  N   N47       1.0  0.9562163981442121  0.4250856212960171  0.20095865918977107  1.0000
  C   C569      1.0  0.9216625565924726  0.45235577274961863  0.19009034664481383  1.0000
  C   C570      1.0  0.9586899626489188  0.44523989268766934  0.22136987924177906  1.0000
  C   C571      1.0  0.997816267290219  0.433549372960277  0.19079049861898117  1.0000
  C   C572      1.0  0.9467828019897224  0.36924960065854445  0.20158851560299476  1.0000
  H   H809      1.0  0.9199405746815543  0.4397217027001826  0.17437532315309665  1.0000
  H   H810      1.0  0.9270360169079968  0.494772987341879  0.18992674911059843  1.0000
  H   H811      1.0  0.889644979243526  0.44552870385639154  0.19704298798097933  1.0000
  H   H812      1.0  0.9849079410506015  0.42614202018497965  0.22990479296025068  1.0000
  H   H813      1.0  0.9651492186533582  0.4875445104549561  0.22136243631732752  1.0000
  H   H814      1.0  0.9281046078464914  0.4386891609015984  0.2296550200741469  1.0000
  H   H815      1.0  0.02434714425731932  0.4124001917489067  0.19831901425255577  1.0000
  H   H816      1.0  0.006553231714650165  0.47513501745451087  0.1905261764557174  1.0000
  H   H817      1.0  0.9970049962880302  0.4200313813839459  0.1751606381268157  1.0000
  H   H818      1.0  0.9447112299283852  0.3527828744940108  0.18643391463559977  1.0000
  H   H819      1.0  0.915787289453516  0.36113761884138346  0.20932258734445844  1.0000
  H   H820      1.0  0.9722175452194268  0.3474752254453503  0.2096594614666104  1.0000
  N   N48       1.0  0.5374676840522509  0.8792462704424641  0.8665699581716346  1.0000
  C   C573      1.0  0.5188130230314446  0.9099824664735642  0.8828652224766764  1.0000
  C   C574      1.0  0.5694488433789758  0.8424813164777163  0.8747075184084533  1.0000
  C   C575      1.0  0.5588755419171283  0.914108972825593  0.8522414573606005  1.0000
  C   C576      1.0  0.502842184917907  0.8506640908082496  0.8564800851191997  1.0000
  H   H821      1.0  0.4947841741244822  0.9383824672846267  0.8772456157800137  1.0000
  H   H822      1.0  0.5440913615455432  0.9319635468071508  0.8908374513795554  1.0000
  H   H823      1.0  0.5022086104763743  0.8849952004615499  0.8939543385826294  1.0000
  H   H824      1.0  0.5844339857469874  0.8187279496613412  0.862833844434968  1.0000
  H   H825      1.0  0.5960763807481047  0.8629496337553769  0.8823886778337429  1.0000
  H   H826      1.0  0.5545850137471987  0.8155634831193794  0.8856432435907325  1.0000
  H   H827      1.0  0.5358413299397748  0.9421037522890996  0.8455245999832202  1.0000
  H   H828      1.0  0.5740561387223532  0.8923353199083139  0.8398760932508859  1.0000
  H   H829      1.0  0.5846419142335819  0.9367896630695207  0.859511973006289  1.0000
  H   H830      1.0  0.5157812800541901  0.8268994304456673  0.8441221079450175  1.0000
  H   H831      1.0  0.4783434796876492  0.8774113047453396  0.8500932436577527  1.0000
  H   H832      1.0  0.48572349221862293  0.824278567403456  0.866914453914478  1.0000
  N   N49       1.0  0.5023744809907161  0.3183174132129958  0.17845543551369733  1.0000
  C   C577      1.0  0.5328719990195869  0.34180129599837994  0.1924865050277798  1.0000
  C   C578      1.0  0.47340406009732183  0.35862464489686247  0.1704566780222385  1.0000
  C   C579      1.0  0.4766982311103472  0.27851379829554257  0.18885882527982165  1.0000
  C   C580      1.0  0.5266057708677251  0.29443636731365636  0.16202307617850015  1.0000
  H   H833      1.0  0.5156218126868004  0.35973309461152464  0.2051788567772255  1.0000
  H   H834      1.0  0.5525499222513037  0.3723648220188027  0.18517623712978792  1.0000
  H   H835      1.0  0.5555874383527967  0.3126406485182392  0.1986606576872638  1.0000
  H   H836      1.0  0.45017848349598  0.34228758672626275  0.15968288696920585  1.0000
  H   H837      1.0  0.45451657100785187  0.3773991243273082  0.18249074299183135  1.0000
  H   H838      1.0  0.49185561493635294  0.3894047339567162  0.1626355256226062  1.0000
  H   H839      1.0  0.4529334394774991  0.26040637650959475  0.1787709629755225  1.0000
  H   H840      1.0  0.45849941327169724  0.29522454092471007  0.20156152460431512  1.0000
  H   H841      1.0  0.49753687565133825  0.24696893174697343  0.19474880944149117  1.0000
  H   H842      1.0  0.5496307692590886  0.2647210225206178  0.16755473322971598  1.0000
  H   H843      1.0  0.5455421595893569  0.32357055147333463  0.15361954304013378  1.0000
  H   H844      1.0  0.5047461711036382  0.27513169793824077  0.15138651069020467  1.0000
  N   N50       1.0  0.7108044170659998  0.10508782270554229  0.9371412412722011  1.0000
  C   C581      1.0  0.7541806401644827  0.12259956911443703  0.9429229797248438  1.0000
  C   C582      1.0  0.6813220082783716  0.1498038885115449  0.9360146811062938  1.0000
  C   C583      1.0  0.6946638825171035  0.06787282231592462  0.9520710768510721  1.0000
  C   C584      1.0  0.7131759594370807  0.08007845994230722  0.9175536080478869  1.0000
  H   H845      1.0  0.7768305818318901  0.08951239525250276  0.9446462846774581  1.0000
  H   H846      1.0  0.7533976991242697  0.14379383904795984  0.9572050229301083  1.0000
  H   H847      1.0  0.7681725028900898  0.1489507223033455  0.9315670334087769  1.0000
  H   H848      1.0  0.6484424053729566  0.13803866788022368  0.9314372003018283  1.0000
  H   H849      1.0  0.6783329414739457  0.1692861493790252  0.9505890250705239  1.0000
  H   H850      1.0  0.6929849152195183  0.17904429609495454  0.9251229467720878  1.0000
  H   H851      1.0  0.6627625926434076  0.05211193708881234  0.947801051248042  1.0000
  H   H852      1.0  0.691051133088866  0.08615296608275269  0.966879098744947  1.0000
  H   H853      1.0  0.7171224273154413  0.03462645054228397  0.9538242621675183  1.0000
  H   H854      1.0  0.7229775342001213  0.1078902134560904  0.9057684419231214  1.0000
  H   H855      1.0  0.6815777939004656  0.06363372350779883  0.913126726984881  1.0000
  H   H856      1.0  0.737139646023589  0.04821597323722515  0.9175526478471885  1.0000
  N   N51       1.0  0.942715497201401  0.19641674865492442  0.49365340009311504  1.0000
  C   C585      1.0  0.9213816449760391  0.1455654037897185  0.49287430341354627  1.0000
  C   C586      1.0  0.9562743458691282  0.20672067222320556  0.5141918312983003  1.0000
  C   C587      1.0  0.9123317168854587  0.2370112182645412  0.48713135084874726  1.0000
  C   C588      1.0  0.98091778973456  0.1963880975270933  0.4805499487299971  1.0000
  H   H857      1.0  0.9097421831482102  0.1366805980165191  0.47769769645256094  1.0000
  H   H858      1.0  0.893020498965716  0.14408699537310188  0.5029457727580572  1.0000
  H   H859      1.0  0.9434859353714907  0.11395514258516504  0.4975761969278592  1.0000
  H   H860      1.0  0.9282950720334562  0.20744119749435996  0.5244832977972119  1.0000
  H   H861      1.0  0.9787088503073632  0.17642270647660108  0.5196912176336663  1.0000
  H   H862      1.0  0.972857309531293  0.2445435885827325  0.515428691060294  1.0000
  H   H863      1.0  0.8836512627901498  0.2386280388162889  0.49703216097326747  1.0000
  H   H864      1.0  0.9006352613876211  0.22997958290281084  0.47181107168776154  1.0000
  H   H865      1.0  0.9275996446918138  0.2757947025055816  0.4873801119765699  1.0000
  H   H866      1.0  0.004562361114150093  0.1663356138442904  0.48520713987932373  1.0000
  H   H867      1.0  0.9979160160658629  0.2341756673159905  0.4809228081686515  1.0000
  H   H868      1.0  0.9719828770065138  0.1886978049211887  0.46489370083094606  1.0000
  N   N52       1.0  0.35044829923361087  0.22449930059142043  0.5930917865286187  1.0000
  C   C589      1.0  0.3505414735895572  0.2785657194128983  0.5998893433284969  1.0000
  C   C590      1.0  0.3114816814685646  0.21511434257818984  0.5811904183357388  1.0000
  C   C591      1.0  0.35080046281170263  0.1895176738829243  0.6104694329102143  1.0000
  C   C592      1.0  0.38899054245267656  0.21478855933914343  0.5807666692590292  1.0000
  H   H869      1.0  0.3800702408886148  0.28720852817231357  0.6085400060611218  1.0000
  H   H870      1.0  0.3224556258634285  0.28694203041693034  0.6096211074816805  1.0000
  H   H871      1.0  0.3492982484462907  0.3060677973843049  0.5871477400247573  1.0000
  H   H872      1.0  0.3106574105680522  0.1745916455615133  0.5758149720184887  1.0000
  H   H873      1.0  0.2817714735644461  0.22204106170778748  0.5900408026686453  1.0000
  H   H874      1.0  0.3105020225539253  0.24117433462993887  0.5679873071153639  1.0000
  H   H875      1.0  0.35039892207475587  0.14832445599758892  0.6058706502014163  1.0000
  H   H876      1.0  0.3224925122424896  0.1960513478812469  0.6202794092634545  1.0000
  H   H877      1.0  0.38004360502072804  0.195499569206395  0.619674137142332  1.0000
  H   H878      1.0  0.39014324866068134  0.17415559504868017  0.5755080930411544  1.0000
  H   H879      1.0  0.41895808013680164  0.22141271367002213  0.5892656203036899  1.0000
  H   H880      1.0  0.3899299877330167  0.24077886880243282  0.567558263551777  1.0000
  N   N53       1.0  0.9281139068972494  0.20832606531805878  0.6960477056988614  1.0000
  C   C593      1.0  0.9669397503828527  0.2361730972731626  0.6892314736955987  1.0000
  C   C594      1.0  0.8911137213542994  0.24423425933838705  0.6962431516902339  1.0000
  C   C595      1.0  0.9354473906550478  0.18770144414110712  0.716247321087051  1.0000
  C   C596      1.0  0.9189822109219261  0.16527673047216718  0.6824442956424654  1.0000
  H   H881      1.0  0.9733070074207545  0.2707299418887663  0.6984689236656637  1.0000
  H   H882      1.0  0.9636453493820593  0.24956304855885802  0.6735874291394172  1.0000
  H   H883      1.0  0.9960175208426674  0.2111999735388621  0.6900251048965561  1.0000
  H   H884      1.0  0.885041756090884  0.2607648407645293  0.6812190519291508  1.0000
  H   H885      1.0  0.8611232266192825  0.22476626367407504  0.7012618130154514  1.0000
  H   H886      1.0  0.8968783537203593  0.27733864171228423  0.7063198519592355  1.0000
  H   H887      1.0  0.9069272905238742  0.16613685770103048  0.7218931455312154  1.0000
  H   H888      1.0  0.9424856852755626  0.2191719263352652  0.7268873216794665  1.0000
  H   H889      1.0  0.9633274731144039  0.16054379604260882  0.7165358984640282  1.0000
  H   H890      1.0  0.9155032343819605  0.17899747310730743  0.6668458987748976  1.0000
  H   H891      1.0  0.888925817467697  0.144716912527729  0.6866717555408204  1.0000
  H   H892      1.0  0.9453208255261031  0.13627022760656726  0.6826353762927959  1.0000
  N   N54       1.0  0.18008244970457274  0.7684846828289262  0.5421988515500283  1.0000
  C   C597      1.0  0.17867056964952732  0.730771525708412  0.5587094446157312  1.0000
  C   C598      1.0  0.21743486934302933  0.7570762867193421  0.529347030978968  1.0000
  C   C599      1.0  0.18409233542935788  0.8211090748178891  0.5502499501535421  1.0000
  C   C600      1.0  0.14016660131365527  0.764784871125765  0.5304505827670594  1.0000
  H   H893      1.0  0.1502728734016286  0.7372953869342936  0.5685103192424402  1.0000
  H   H894      1.0  0.20802119423371657  0.7328545594463531  0.5680548969699141  1.0000
  H   H895      1.0  0.17635143393143904  0.6905435083042569  0.5531598945728411  1.0000
  H   H896      1.0  0.24833504807216986  0.7592782982024786  0.5375899915245669  1.0000
  H   H897      1.0  0.21527298436946274  0.7175143478074271  0.5230927071801246  1.0000
  H   H898      1.0  0.2195925345679604  0.7844308240061649  0.5165974814221616  1.0000
  H   H899      1.0  0.2139880498156859  0.825177687076926  0.5591554857017369  1.0000
  H   H900      1.0  0.1563316128264776  0.8307736659899736  0.5600464020541697  1.0000
  H   H901      1.0  0.18536611010399728  0.850516979798878  0.5381678554858123  1.0000
  H   H902      1.0  0.13948673504886266  0.7936979097090626  0.5181924903541446  1.0000
  H   H903      1.0  0.11100915313068456  0.7707313737110234  0.5398087527989054  1.0000
  H   H904      1.0  0.13722032196288697  0.7261867790237315  0.5235159720857677  1.0000
  N   N55       1.0  0.42066962994377993  0.4825967837851989  0.2884079738458454  1.0000
  C   C601      1.0  0.40171702794924297  0.5188422847065641  0.2738437520453222  1.0000
  C   C602      1.0  0.46814643392099053  0.4862159137031847  0.2875307841899032  1.0000
  C   C603      1.0  0.4073639188810702  0.42938811941250105  0.2836913756862841  1.0000
  C   C604      1.0  0.40531147173976684  0.49584631373349575  0.308508943434962  1.0000
  H   H905      1.0  0.36592486146661424  0.517117070715574  0.27403847928107916  1.0000
  H   H906      1.0  0.41245716714340586  0.5097700827639411  0.25851023717612637  1.0000
  H   H907      1.0  0.41109466986510435  0.5593786264272489  0.27691181316261404  1.0000
  H   H908      1.0  0.48063223272866623  0.4761390380679251  0.2725322690833874  1.0000
  H   H909      1.0  0.4794677360092516  0.5259618797936796  0.29082410140865145  1.0000
  H   H910      1.0  0.483660835914363  0.45947935129239265  0.2983386346246292  1.0000
  H   H911      1.0  0.3716337161088118  0.42557472929452966  0.2837583200977583  1.0000
  H   H912      1.0  0.420188961772526  0.4011312057826939  0.2946745932115104  1.0000
  H   H913      1.0  0.4192862376581944  0.4175679323539487  0.26880644949242005  1.0000
  H   H914      1.0  0.41891914746090414  0.46930613288964174  0.31992064559672967  1.0000
  H   H915      1.0  0.36959229077245154  0.4928184051044232  0.30965163860769046  1.0000
  H   H916      1.0  0.41426325501600103  0.5359278237692479  0.31256848348758476  1.0000
  N   N56       1.0  0.3110370942572929  0.5227549720783184  0.46177332212465483  1.0000
  C   C605      1.0  0.3164011419748043  0.5678115303733837  0.4484680557598911  1.0000
  C   C606      1.0  0.3496768175805417  0.4895232479321897  0.46058777191789746  1.0000
  C   C607      1.0  0.2728702867569039  0.49295025885895155  0.45565442748966756  1.0000
  C   C608      1.0  0.3052453405535791  0.5406530563439164  0.48237514643238294  1.0000
  H   H917      1.0  0.34516696384856743  0.5909320196155741  0.452452557798882  1.0000
  H   H918      1.0  0.28805647597326994  0.5940496143486431  0.449230452897685  1.0000
  H   H919      1.0  0.3198412707393467  0.5558244941723363  0.43271734231642717  1.0000
  H   H920      1.0  0.34717693649283404  0.45602770316205626  0.4709039979008904  1.0000
  H   H921      1.0  0.3540193922626189  0.4734775791380286  0.44543542595654345  1.0000
  H   H922      1.0  0.3793840970467901  0.5109577124216059  0.4644983510854444  1.0000
  H   H923      1.0  0.26764182994799557  0.4588452936524199  0.46548130660389525  1.0000
  H   H924      1.0  0.2765519785709396  0.47817119870572083  0.44027353779564  1.0000
  H   H925      1.0  0.24317774724074093  0.5169797164263333  0.45597096877222515  1.0000
  H   H926      1.0  0.2764521206903278  0.5659920957591499  0.48383716598688115  1.0000
  H   H927      1.0  0.33338206590674835  0.5635125202519512  0.4874266082025984  1.0000
  H   H928      1.0  0.3011067256075318  0.5076075380273432  0.4928324255898296  1.0000
  N   N57       1.0  0.21046973850010642  0.21569707000892224  0.5241720060616739  1.0000
  C   C609      1.0  0.18603611502965753  0.2646623296306334  0.5230880374727949  1.0000
  C   C610      1.0  0.19043895096528346  0.17710240055658022  0.511094604684793  1.0000
  C   C611      1.0  0.20982811192468526  0.1962302233057749  0.5448084063067058  1.0000
  C   C612      1.0  0.25541448085837787  0.2247015001825097  0.517808269670705  1.0000
  H   H929      1.0  0.2009228000204672  0.2950840525801859  0.5323523986898872  1.0000
  H   H930      1.0  0.15240823899192268  0.2595330028199181  0.5283869239374872  1.0000
  H   H931      1.0  0.1842794767897683  0.27989265924487206  0.5076530490783325  1.0000
  H   H932      1.0  0.20946551436335004  0.1407288311334931  0.5106111174627771  1.0000
  H   H933      1.0  0.15758073930977726  0.1667869959346906  0.5163596759490446  1.0000
  H   H934      1.0  0.1875332696536428  0.19165953584048956  0.4955851106950632  1.0000
  H   H935      1.0  0.2279884324064161  0.15934103808456856  0.546239259553893  1.0000
  H   H936      1.0  0.17619882763672703  0.1888209840536519  0.5499475723601375  1.0000
  H   H937      1.0  0.22416252666218892  0.22464826708996966  0.5551356564542295  1.0000
  H   H938      1.0  0.27454971169348197  0.1883734177497256  0.5178481469462627  1.0000
  H   H939      1.0  0.27200166885086535  0.252366081283234  0.5277347208465717  1.0000
  H   H940      1.0  0.25690266058854594  0.2410074522732857  0.5025028160733266  1.0000
  N   N58       1.0  0.1525655466011071  0.8305749629443231  0.9987017053442384  1.0000
  C   C613      1.0  0.1671433927934005  0.8003250582414443  0.9814555961227592  1.0000
  C   C614      1.0  0.19023429699609484  0.8458190939545711  0.010631897007929991  1.0000
  C   C615      1.0  0.12303995530631906  0.798996197181896  0.010934812635805091  1.0000
  C   C616      1.0  0.12971045360667688  0.8772404842800992  0.9916590148762302  1.0000
  H   H941      1.0  0.182433362351077  0.7634496052790797  0.9861527591850093  1.0000
  H   H942      1.0  0.19092588952475475  0.8221602486389632  0.9723627184581964  1.0000
  H   H943      1.0  0.1396903811829613  0.7904287888619456  0.9716434604094729  1.0000
  H   H944      1.0  0.1807164192924664  0.8706370034814058  0.023283768448632225  1.0000
  H   H945      1.0  0.2073770673289952  0.8118915036770925  0.01692788011056301  1.0000
  H   H946      1.0  0.21402201439080182  0.8678190138008088  0.001613137126762032  1.0000
  H   H947      1.0  0.11053335522681063  0.8210971902047942  0.02377687884866675  1.0000
  H   H948      1.0  0.13924881613135387  0.7637552186367388  0.016751146118120896  1.0000
  H   H949      1.0  0.09457737431639712  0.7863497497533709  0.0022401793162760697  1.0000
  H   H950      1.0  0.12018171766147012  0.9025119559167619  0.0042308006392706154  1.0000
  H   H951      1.0  0.09965477972268433  0.8671642332103319  0.9836393022087642  1.0000
  H   H952      1.0  0.15018168273661603  0.9003376685346407  0.9813810419395469  1.0000
  N   N59       1.0  0.35145936160746927  0.004729999895826786  0.07747217182523221  1.0000
  C   C617      1.0  0.32472551708042824  0.9600061001167238  0.08332050295806594  1.0000
  C   C618      1.0  0.3235266970707135  0.04605687802082903  0.06945051198194167  1.0000
  C   C619      1.0  0.38305019000792356  0.9886502752312278  0.06226849887336334  1.0000
  C   C620      1.0  0.374703297271565  0.024343155296729035  0.0949267658784753  1.0000
  H   H953      1.0  0.3442437899709128  0.9291054856169426  0.09041332016443211  1.0000
  H   H954      1.0  0.30862411681383156  0.9426052353896219  0.0702947610452824  1.0000
  H   H955      1.0  0.2990107393115632  0.9711112642822206  0.093991429233997  1.0000
  H   H956      1.0  0.30706470923637696  0.03380792103919594  0.05566893176011608  1.0000
  H   H957      1.0  0.29795182587269553  0.05697308272389079  0.08021725821915673  1.0000
  H   H958      1.0  0.34224930279775306  0.08146306908810552  0.06597229714004878  1.0000
  H   H959      1.0  0.4053598783992253  0.020555242470697177  0.058385310300043285  1.0000
  H   H960      1.0  0.36705823236378904  0.9762849319823446  0.04839131454891713  1.0000
  H   H961      1.0  0.40311616804064304  0.9557347859828857  0.06758982517506555  1.0000
  H   H962      1.0  0.39356334690928063  0.0596346446019167  0.09115045764444067  1.0000
  H   H963      1.0  0.3978725396168712  0.9951314829132804  0.10061177035255034  1.0000
  H   H964      1.0  0.3521462268074489  0.034305617003417055  0.10715859559591351  1.0000
  N   N60       1.0  0.7463025428433707  0.3413050882101407  0.8330592774801433  1.0000
  C   C621      1.0  0.7530563665925118  0.2892293499586676  0.8247800766602303  1.0000
  C   C622      1.0  0.7596971881980614  0.38078607942685827  0.818388729427003  1.0000
  C   C623      1.0  0.7721936234727282  0.3469058581485882  0.8512533822316717  1.0000
  C   C624      1.0  0.7002072097148418  0.3483199231301351  0.8378501424345951  1.0000
  H   H965      1.0  0.7873377122006419  0.28265251480482917  0.8207034492416119  1.0000
  H   H966      1.0  0.7332585834661628  0.283136785962748  0.811285338872583  1.0000
  H   H967      1.0  0.7437681591428588  0.258647190266194  0.8356352603545439  1.0000
  H   H968      1.0  0.7546726312745906  0.42051330408538806  0.824248091909164  1.0000
  H   H969      1.0  0.7944411498105365  0.376999969684494  0.8145154482520932  1.0000
  H   H970      1.0  0.7409356961444011  0.37770279707694054  0.8044477333206828  1.0000
  H   H971      1.0  0.8069547799607867  0.3399167547081745  0.8483254504396011  1.0000
  H   H972      1.0  0.7617503586499121  0.31924669646670134  0.8630176954948258  1.0000
  H   H973      1.0  0.7692564213826953  0.3865680612983724  0.8573824742699421  1.0000
  H   H974      1.0  0.6890064799640603  0.31920396465544876  0.8488509223595849  1.0000
  H   H975      1.0  0.6796966448558768  0.34447359190056487  0.8244699417795979  1.0000
  H   H976      1.0  0.6937834562916074  0.3870245399893498  0.8442549422454965  1.0000
  N   N61       1.0  0.06139428511562395  0.5123018289245729  0.9746577324427521  1.0000
  C   C625      1.0  0.05507005872390125  0.46218171375194705  0.9647750681392211  1.0000
  C   C626      1.0  0.059782299263297256  0.5542104861408509  0.9597267121183283  1.0000
  C   C627      1.0  0.10373957527807254  0.512611901667125  0.9845627628750092  1.0000
  C   C628      1.0  0.02704715300521121  0.520219812117881  0.9895384420190798  1.0000
  H   H977      1.0  0.0564052366490051  0.4296065268107022  0.9755861125121384  1.0000
  H   H978      1.0  0.08032220680305091  0.4552554432207747  0.9533149247359018  1.0000
  H   H979      1.0  0.023295844753621564  0.4605205442426352  0.9572449698218009  1.0000
  H   H980      1.0  0.06425113180110342  0.5925992446655708  0.9666575118335156  1.0000
  H   H981      1.0  0.08553323531754708  0.5496251895979684  0.9483661452652612  1.0000
  H   H982      1.0  0.02846636499357036  0.554981696714304  0.9518042996335391  1.0000
  H   H983      1.0  0.10580149029463648  0.4821856926981328  0.9962354590478606  1.0000
  H   H984      1.0  0.10993932015163543  0.550317798337904  0.991820818471568  1.0000
  H   H985      1.0  0.13032528320978276  0.50574791123091  0.9737612048406347  1.0000
  H   H986      1.0  0.9946474145422449  0.5211729063392039  0.9825632984536437  1.0000
  H   H987      1.0  0.031411000788786  0.5570581980961906  0.9976462088713345  1.0000
  H   H988      1.0  0.026548607213326303  0.4885640348028729  0.0007631937594796412  1.0000
  N   N62       1.0  0.4868130015831943  0.5398364563594094  0.6658532860555112  1.0000
  C   C629      1.0  0.5322305208133188  0.5416279276949516  0.6722060399077867  1.0000
  C   C630      1.0  0.45899143372502565  0.5311330016579872  0.6833588963323235  1.0000
  C   C631      1.0  0.4811237067726953  0.49739851700009163  0.6515779667938622  1.0000
  C   C632      1.0  0.4750340010430355  0.5893708110289761  0.6563165191742585  1.0000
  H   H989      1.0  0.5541721900203183  0.549627298603053  0.6595029871731571  1.0000
  H   H990      1.0  0.5426766130920246  0.5044991935367384  0.6790322502458431  1.0000
  H   H991      1.0  0.5373287719945448  0.572408709078208  0.6833576434967499  1.0000
  H   H992      1.0  0.46263106995465997  0.5627856403071521  0.6943577858806562  1.0000
  H   H993      1.0  0.4244351578780681  0.5295015573208972  0.6791621094194931  1.0000
  H   H994      1.0  0.4672278235933411  0.4942966357004044  0.6910409275724292  1.0000
  H   H995      1.0  0.44740047799376814  0.49534522833729167  0.6461458404510957  1.0000
  H   H996      1.0  0.48938327631219125  0.45931989457766864  0.6582995166923483  1.0000
  H   H997      1.0  0.502221340172563  0.5026580339668769  0.638375857028461  1.0000
  H   H998      1.0  0.47910828841441455  0.6222675203427237  0.6666883266796799  1.0000
  H   H999      1.0  0.44095619039570644  0.5894726749560353  0.6513326274375583  1.0000
  H   H1000     1.0  0.49549504768400987  0.597270568127976  0.6430963235935828  1.0000
  N   N63       1.0  0.4812751070814178  0.677492832855239  0.5502084395365271  1.0000
  C   C633      1.0  0.5122162887512548  0.6790204029172517  0.533537111027795  1.0000
  C   C634      1.0  0.5021639677315675  0.6975932179560638  0.5682073200066317  1.0000
  C   C635      1.0  0.4674731419477271  0.6236892187845221  0.5537809303693497  1.0000
  C   C636      1.0  0.4434011598343818  0.7097793835845557  0.5453474169310196  1.0000
  H   H1001     1.0  0.4982530327321455  0.6625509946153403  0.5197925055288289  1.0000
  H   H1002     1.0  0.5417365663654581  0.6563802927607528  0.5369774432223998  1.0000
  H   H1003     1.0  0.5225184351323469  0.7191916955643453  0.530070108532655  1.0000
  H   H1004     1.0  0.5133985745674272  0.7379329243450494  0.5659011110038429  1.0000
  H   H1005     1.0  0.479469410300114  0.6980601121563953  0.5810190213722364  1.0000
  H   H1006     1.0  0.5305385706106821  0.6738908983524097  0.5725324356170791  1.0000
  H   H1007     1.0  0.44431236498457355  0.6209025788375269  0.5663691344387429  1.0000
  H   H1008     1.0  0.4952438089952074  0.5982566335458932  0.5575040047103985  1.0000
  H   H1009     1.0  0.4516242609767943  0.6070479915065268  0.5405234822407864  1.0000
  H   H1010     1.0  0.4194658290027297  0.7096866781963823  0.5576743851246668  1.0000
  H   H1011     1.0  0.42691644434713427  0.6961067058545255  0.5317503139142616  1.0000
  H   H1012     1.0  0.45266344399359326  0.7508014276247821  0.5428307243416657  1.0000
  N   N64       1.0  0.9470594714407198  0.25213227749207845  0.31376058373148485  1.0000
  C   C637      1.0  0.9735002340237228  0.24094939500140677  0.2960357776303335  1.0000
  C   C638      1.0  0.9154924617532814  0.21026703091741172  0.31679132898921497  1.0000
  C   C639      1.0  0.9241131531628003  0.3015638701527563  0.3108850194503855  1.0000
  C   C640      1.0  0.974938769662631  0.25572454641671527  0.3313906510552016  1.0000
  H   H1013     1.0  0.9982225853578267  0.271260990751494  0.29343253583306916  1.0000
  H   H1014     1.0  0.9534045405879789  0.23882561470940078  0.28242467429272766  1.0000
  H   H1015     1.0  0.9905985005979765  0.2033626765096468  0.2975693011697016  1.0000
  H   H1016     1.0  0.8948518893146099  0.21765248458559006  0.3300055319575108  1.0000
  H   H1017     1.0  0.893892236013914  0.2064393302897971  0.3037625506075228  1.0000
  H   H1018     1.0  0.9318997351140641  0.172458064021195  0.31916353285893706  1.0000
  H   H1019     1.0  0.9045032740616716  0.31164549413822673  0.3241388258669685  1.0000
  H   H1020     1.0  0.9019407181402213  0.29981874664234676  0.29801378453962957  1.0000
  H   H1021     1.0  0.9468602932769468  0.3339632395235468  0.3081743478765183  1.0000
  H   H1022     1.0  0.9993182567168198  0.28675981292143593  0.329604311333619  1.0000
  H   H1023     1.0  0.9924742543866868  0.21888804778980653  0.33414679572893663  1.0000
  H   H1024     1.0  0.9557231958619808  0.26429441953044375  0.34496715816248524  1.0000
