data_image0
_chemical_formula_structural       FeS2H2CFe3HS2CHSHC7H7C2H3CHSHCH3N2C2HSH6CHSHCH3C5FeS2FeSHFeSFeS3FeS2H2SFeNCHS2C6H5C3H3CHCHC3H2C3HC2H7CHCH5FeSH4CHCH2FeHCHC2H2NSNH2CHCHC2SHC2H3C2SC2HCSH3CNH6CH4CH3CHCSHFeS2FeCFeHS2H2Fe2S2FeSFeSCSC6H8CH3FeC7HCHCH2SNH2C2HCH3CSHCHCH2CHCS2HSH2CHCHNH3SH2NH5CH2FeCNFeS2H2S3HC2H2CNHC7H5FeHCH3CHSH5CHCHSCHCH3CHFe2S2FeS2FeSFeS3HC2HCH5CH6C2H2CH3C2HC2HCH2NHCH2FeS2FeS2FeHFeS3FeS2FeS2FeSFeHS2HC5H5NHCH2CHC9H6CH5CSH3C2HC2NH6SHNH2CHCH5C3H2C4NHCHCH3C2HNH3C2HC3H2CHCH4CH4CH2CH7CHCHNCFeS2FeS2Fe2S3FeS2FeS2FeSFeS3HCNH6C2H4C6H4CH4C2HC2H3CHC3HCHCNH2CH2CHCHCNH6CH7C2H2CHCH3C3HCH2FeS2FeSHFeHFeS3C2SH2CHCH3C4SH4CH2CHC2H2FeS2FeS2FeSFeS3FeS2FeS2Fe2S4H7C8H7CH2C6NH3NHC4H3CHC3H7CH3NC5H13C2H4C2HCHCH5C2H2CH3NHFeSCFeS2FeCFeS3C3H4SHCH2NCHC2HC3HCH2NHCH5CSH3CH2CH3CH4CFeSCFeSHFeSFeS3H2C2H3C6H5CHCSH2C2HC2HNHC2SHNHCNH2NH2CH2CH4CH2CHCH2C2H3SH3C2H3CH5FeCSFeS2C2HCS2HCFeS2FeS2FeSFeS3H2C4H3C2HC6H4CH3CHCH6CH4CHC2HFeN2H2CFeHSH5C2H3NC2H3CH4CH2C2H4NCH2SCHCH3CH2CH6C4H2CNH2CH3CH3FeS2FeS2FeCFeS3HFeS2FeS2Fe2S3C2H2C2NHCH2C8H6C2H3CH3CH3SH2C2H11CHCH2NHC2H2CH2C2HNSHC2HCHC2HC2H2CH2NH10CH4CFeSFeS2FeSFeCS2H2C3HC2H2C2NC2HCNH3CH2SC2HCHCH4CSH4CH2CH5CHC2H2CH7CH2SCHCNHFeS2FeS2FeSFeS2C2H5C6HCH2C3H2CNC3H3CH5CH3CH6CSHCH2NH2CHCH3CH2NHCHCH2NSFeSCFeSFeS2HFeS2FeS2FeSFeS3CH3C2HCFeC3HC3H4NHCHC6H11SC2H5SHCHC6H6CHNCHNCHCHCHCHCHCH3C2HSH2NH2CH8CHC2H3CFeS2FeS2FeSFeS3FeSHFeS2FeCFeHS2NHCHC2HSC3HC3H3C6H5CHNCH4SH3CH8NH2CSH4C3H2CHCHCHC2H2CH3CSHCHCH4NC2H4CH2C3H3CH2CH6FeS2FeS2FeSFeCS2H4CH2C4H3CH3CHCHCH3C2H5CHCSCHNCH2C2H2CNCH4CHCHCH3CH3C2HNHCH2NCFeSCFeSHFeSFeS3C4H6CH2NHCH4C2H2C4HC2HC3SCHCH3S2HC2H8CH2SH2CSH3FeHSFeCSHNHS2FeS2FeS2FeSFeS3NHC2HC2H2C2SCHCHC2HC6H6CH3CH3C3HCHC3HCHN2HCHC2HCH3CH3CH2C2HC3H4FeH5SH4CH2FeH2CHFeSHFeS2FeSFeS3FeS2FeS2FeHFeHS2HCHCHSH5C7H4NH2CH6C2H3C2H2C5H2CNC5H2CHCH2SC2H2CH4CHCH12CH3C2FeS2FeS2FeHFeS3C2H2CH2CHCHC3H2CH2CH3CH6NCH2NCHSH4C2HCNCHC2H7C4H6CH2CHFeS2FeS2FeSFeS3C6H4C2H3CH3C2SC2NCH4CHCH4NCH3CH2CH2C2H2CH6CHFeS2FeS2FeSH2S2FeS2FeS2FeSFeS3CHCH2C3H4CNH2C6H8CHCH6CHCH2C4H2CHC3H4CH2CHNHNCH3SHCH2CHCHC2SFeHC3H2NCH3C3H3CH2FeSCFeS2FeSFeHS2NH10CH3CHC4H4C2HC3H3CFeS2FeS2FeCFeS3FeS2FeS2FeSFeS3HCH3CHC2HC3H2CH3C6H4CHSHC2HCSHC3HNC2H6CHC2HNH2C2H2CH2CH3CNHC2H4C2H4C2HC2H9CH2SH7CH2CHCHCHCHNCFeSHFeSNH2FeSHSFeS2FeS2FeHFeS3C3HC2H5C7H7NCH3SC3HCH2SCH3C2HNC3SHCHCH2FeH3C2H3C2HCHC3H10FeSCFeSHFeHFeS3C3NHCH6CH2CH5C3H2CHCHCH2SHCFeSHFeS2FeSFeHS3HCSNH5CH2CHCHCHCH3CHC7H2CH4CH2SHCFeSHFeS2FeSFeS3FeS2FeS2FeSFeHS2CHNCHCH4C3H2CH2C3H4C6H5CSHCHC3H2C2HNC4HCHNC2HCH3CH8CH3CHC3HCHNH6CNC3H6CHC2H8SNCH7C2H3FeSFeS2FeSFeS3FeS2FeSHFeSFeS3CH3CH3C3HC2H4CHNHC6H4C2H7C2H2CHCHSH2CH4CH2CH5CHC2H3C3H4CH2NCH2C2HCHCHSFeS2FeSHFeSFeHS2NCSNH3C2H6C2H2CHCHC2NH4C2H2C2HCHSCHCH2CH4C2
_chemical_formula_sum              "Fe192 S384 H1536 C960 N96"
_cell_length_a       51.3777
_cell_length_b       51.0988
_cell_length_c       51.3167
_cell_angle_alpha    82.1571
_cell_angle_beta     82.0879
_cell_angle_gamma    82.7559

_space_group_name_H-M_alt    "P 1"
_space_group_IT_number       1

loop_
  _space_group_symop_operation_xyz
  'x, y, z'

loop_
  _atom_site_type_symbol
  _atom_site_label
  _atom_site_symmetry_multiplicity
  _atom_site_fract_x
  _atom_site_fract_y
  _atom_site_fract_z
  _atom_site_occupancy
  Fe  Fe1       1.0  0.17906  0.41893  0.07348  1.0000
  S   S1        1.0  0.22256  0.41877  0.07441  1.0000
  S   S2        1.0  0.14783  0.41707  0.10986  1.0000
  H   H1        1.0  0.16404  0.47056  0.09770  1.0000
  H   H2        1.0  0.18519  0.48033  0.13449  1.0000
  C   C1        1.0  0.24143  0.48151  0.09169  1.0000
  Fe  Fe2       1.0  0.22765  0.39337  0.04138  1.0000
  Fe  Fe3       1.0  0.12437  0.42653  0.26571  1.0000
  Fe  Fe4       1.0  0.22029  0.45248  0.04178  1.0000
  H   H3        1.0  0.19106  0.50833  0.09042  1.0000
  S   S3        1.0  0.18409  0.39044  0.04253  1.0000
  S   S4        1.0  0.17639  0.45494  0.04293  1.0000
  C   C2        1.0  0.14676  0.48505  0.10316  1.0000
  H   H4        1.0  0.13193  0.47364  0.11634  1.0000
  S   S5        1.0  0.24258  0.48818  0.03747  1.0000
  H   H5        1.0  0.24574  0.36723  0.09311  1.0000
  C   C3        1.0  0.14396  0.35263  0.19879  1.0000
  C   C4        1.0  0.15449  0.42599  0.19703  1.0000
  C   C5        1.0  0.17743  0.42344  0.17865  1.0000
  C   C6        1.0  0.17582  0.42121  0.15179  1.0000
  C   C7        1.0  0.15119  0.42125  0.14305  1.0000
  C   C8        1.0  0.12825  0.42436  0.16129  1.0000
  C   C9        1.0  0.12984  0.42699  0.18801  1.0000
  H   H6        1.0  0.19662  0.42278  0.18533  1.0000
  H   H7        1.0  0.19367  0.41888  0.13804  1.0000
  H   H8        1.0  0.10908  0.42466  0.15470  1.0000
  H   H9        1.0  0.11195  0.42945  0.20167  1.0000
  H   H10       1.0  0.11627  0.51337  0.13864  1.0000
  H   H11       1.0  0.16036  0.33738  0.19289  1.0000
  H   H12       1.0  0.14062  0.30515  0.22783  1.0000
  C   C10       1.0  0.16733  0.49415  0.13996  1.0000
  C   C11       1.0  0.24595  0.49837  0.06802  1.0000
  H   H13       1.0  0.10320  0.36415  0.25491  1.0000
  H   H14       1.0  0.09553  0.36831  0.22156  1.0000
  H   H15       1.0  0.16243  0.17479  0.26387  1.0000
  C   C12       1.0  0.11181  0.36795  0.23388  1.0000
  H   H16       1.0  0.10775  0.31960  0.22214  1.0000
  S   S6        1.0  0.26247  0.36197  0.03790  1.0000
  H   H17       1.0  0.04659  0.32128  0.26186  1.0000
  C   C13       1.0  0.24199  0.49065  0.11610  1.0000
  H   H18       1.0  0.16281  0.36897  0.23953  1.0000
  H   H19       1.0  0.23775  0.47776  0.13438  1.0000
  H   H20       1.0  0.15368  0.48249  0.15447  1.0000
  N   N1        1.0  0.13398  0.34764  0.22725  1.0000
  N   N2        1.0  0.15460  0.50625  0.11635  1.0000
  C   C14       1.0  0.26709  0.36536  0.08985  1.0000
  C   C15       1.0  0.12465  0.32102  0.23314  1.0000
  H   H21       1.0  0.12808  0.35266  0.18604  1.0000
  S   S7        1.0  0.15772  0.42615  0.23113  1.0000
  H   H22       1.0  0.15178  0.37228  0.19393  1.0000
  H   H23       1.0  0.06804  0.27507  0.26973  1.0000
  H   H24       1.0  0.17257  0.33407  0.23887  1.0000
  H   H25       1.0  0.23702  0.46160  0.09142  1.0000
  H   H26       1.0  0.11837  0.38814  0.23101  1.0000
  H   H27       1.0  0.13790  0.49323  0.08474  1.0000
  C   C16       1.0  0.15543  0.34904  0.24334  1.0000
  H   H28       1.0  0.11773  0.31649  0.25464  1.0000
  S   S8        1.0  0.08178  0.43309  0.25904  1.0000
  H   H29       1.0  0.14850  0.34551  0.26495  1.0000
  C   C17       1.0  0.24679  0.51680  0.11691  1.0000
  H   H30       1.0  0.15379  0.20853  0.27085  1.0000
  H   H31       1.0  0.18793  0.19480  0.26719  1.0000
  H   H32       1.0  0.17379  0.50948  0.15038  1.0000
  C   C18       1.0  0.25230  0.52404  0.06881  1.0000
  C   C19       1.0  0.17342  0.52145  0.09771  1.0000
  C   C20       1.0  0.06043  0.31625  0.27636  1.0000
  C   C21       1.0  0.16753  0.19018  0.27512  1.0000
  C   C22       1.0  0.13083  0.52417  0.12445  1.0000
  Fe  Fe5       1.0  0.12292  0.19240  0.38645  1.0000
  S   S9        1.0  0.13637  0.23212  0.37088  1.0000
  S   S10       1.0  0.15552  0.15740  0.38520  1.0000
  Fe  Fe6       1.0  0.06351  0.21674  0.39626  1.0000
  S   S11       1.0  0.07465  0.25770  0.38098  1.0000
  H   H33       1.0  0.18208  0.14937  0.33060  1.0000
  Fe  Fe7       1.0  0.10099  0.23789  0.34917  1.0000
  S   S12       1.0  0.10464  0.25085  0.30547  1.0000
  Fe  Fe8       1.0  0.10870  0.24670  0.40476  1.0000
  S   S13       1.0  0.12102  0.27071  0.43359  1.0000
  S   S14       1.0  0.08815  0.19744  0.36268  1.0000
  S   S15       1.0  0.09668  0.20668  0.42188  1.0000
  Fe  Fe9       1.0  0.11042  0.41857  0.32731  1.0000
  S   S16       1.0  0.06684  0.42414  0.32430  1.0000
  S   S17       1.0  0.12148  0.40493  0.36905  1.0000
  H   H34       1.0  0.04424  0.20080  0.46539  1.0000
  H   H35       1.0  0.17723  0.24342  0.50473  1.0000
  S   S18       1.0  0.20176  0.19040  0.49538  1.0000
  Fe  Fe10      1.0  0.07630  0.45751  0.29282  1.0000
  N   N3        1.0  0.04075  0.23457  0.48698  1.0000
  C   C23       1.0  0.06886  0.51654  0.50272  1.0000
  H   H36       1.0  0.13206  0.15962  0.30324  1.0000
  S   S19       1.0  0.11956  0.45397  0.29758  1.0000
  S   S20       1.0  0.11950  0.39050  0.29597  1.0000
  C   C24       1.0  0.12259  0.42482  0.39460  1.0000
  C   C25       1.0  0.10977  0.41741  0.42010  1.0000
  C   C26       1.0  0.11513  0.42846  0.44229  1.0000
  C   C27       1.0  0.13368  0.44682  0.43925  1.0000
  C   C28       1.0  0.14546  0.45527  0.41359  1.0000
  C   C29       1.0  0.13998  0.44434  0.39138  1.0000
  H   H37       1.0  0.09638  0.40226  0.42279  1.0000
  H   H38       1.0  0.10561  0.42206  0.46183  1.0000
  H   H39       1.0  0.15981  0.46950  0.41099  1.0000
  H   H40       1.0  0.15050  0.44979  0.37203  1.0000
  H   H41       1.0  0.18054  0.18906  0.44720  1.0000
  C   C30       1.0  0.19771  0.18617  0.38691  1.0000
  C   C31       1.0  0.18961  0.16169  0.38411  1.0000
  C   C32       1.0  0.20911  0.14026  0.37961  1.0000
  H   H42       1.0  0.18319  0.20283  0.39059  1.0000
  H   H43       1.0  0.20315  0.12120  0.37737  1.0000
  H   H44       1.0  0.17199  0.34795  0.49587  1.0000
  C   C33       1.0  0.02611  0.31269  0.34854  1.0000
  H   H45       1.0  0.07499  0.49537  0.50983  1.0000
  C   C34       1.0  0.23518  0.12970  0.48407  1.0000
  H   H46       1.0  0.20468  0.16051  0.30268  1.0000
  C   C35       1.0  0.14464  0.24953  0.45037  1.0000
  C   C36       1.0  0.15503  0.22550  0.44093  1.0000
  C   C37       1.0  0.15271  0.25606  0.47344  1.0000
  H   H47       1.0  0.14916  0.22031  0.42317  1.0000
  H   H48       1.0  0.14475  0.27457  0.48091  1.0000
  C   C38       1.0  0.09007  0.28356  0.29981  1.0000
  C   C39       1.0  0.07257  0.29019  0.28075  1.0000
  C   C40       1.0  0.04990  0.20642  0.48390  1.0000
  H   H49       1.0  0.23338  0.17137  0.44552  1.0000
  C   C41       1.0  0.08427  0.32937  0.30916  1.0000
  C   C42       1.0  0.09577  0.30307  0.31421  1.0000
  H   H50       1.0  0.03136  0.33335  0.34246  1.0000
  H   H51       1.0  0.17939  0.14046  0.29856  1.0000
  H   H52       1.0  0.08867  0.34444  0.32032  1.0000
  H   H53       1.0  0.10924  0.29793  0.32905  1.0000
  H   H54       1.0  0.23183  0.12671  0.43309  1.0000
  H   H55       1.0  0.19017  0.32999  0.47002  1.0000
  H   H56       1.0  0.04722  0.24728  0.44513  1.0000
  C   C43       1.0  0.24427  0.16787  0.38089  1.0000
  H   H57       1.0  0.16117  0.31791  0.48878  1.0000
  C   C44       1.0  0.15002  0.33520  0.43976  1.0000
  H   H58       1.0  0.16933  0.32768  0.42921  1.0000
  H   H59       1.0  0.12091  0.50310  0.49087  1.0000
  H   H60       1.0  0.09095  0.49458  0.33067  1.0000
  H   H61       1.0  0.04774  0.51797  0.49940  1.0000
  H   H62       1.0  0.07179  0.20235  0.48304  1.0000
  Fe  Fe11      1.0  0.07646  0.39902  0.29110  1.0000
  S   S21       1.0  0.02024  0.22020  0.41478  1.0000
  H   H63       1.0  0.03935  0.29953  0.33558  1.0000
  H   H64       1.0  0.11751  0.34354  0.48510  1.0000
  H   H65       1.0  0.09037  0.48789  0.46372  1.0000
  H   H66       1.0  0.18696  0.36949  0.43794  1.0000
  C   C45       1.0  0.17298  0.20778  0.45454  1.0000
  H   H67       1.0  0.07472  0.24892  0.46261  1.0000
  C   C46       1.0  0.08404  0.50921  0.45738  1.0000
  H   H68       1.0  0.13749  0.50248  0.31800  1.0000
  H   H69       1.0  0.21490  0.13630  0.47861  1.0000
  Fe  Fe12      1.0  0.13012  0.44450  0.51016  1.0000
  H   H70       1.0  0.12905  0.37433  0.48877  1.0000
  C   C47       1.0  0.17218  0.20223  0.31791  1.0000
  H   H71       1.0  0.11391  0.37134  0.45995  1.0000
  C   C48       1.0  0.16662  0.37533  0.44737  1.0000
  C   C49       1.0  0.17074  0.23822  0.48718  1.0000
  H   H72       1.0  0.19270  0.20719  0.31121  1.0000
  H   H73       1.0  0.25105  0.12674  0.37420  1.0000
  N   N4        1.0  0.16539  0.18112  0.30386  1.0000
  S   S22       1.0  0.14365  0.45877  0.46689  1.0000
  N   N5        1.0  0.15351  0.35188  0.46017  1.0000
  H   H74       1.0  0.23062  0.20827  0.38775  1.0000
  H   H75       1.0  0.13967  0.31761  0.44861  1.0000
  C   C50       1.0  0.25185  0.12097  0.43947  1.0000
  H   H76       1.0  0.12362  0.19338  0.31024  1.0000
  C   C51       1.0  0.18052  0.21385  0.47793  1.0000
  H   H77       1.0  0.15849  0.22081  0.31480  1.0000
  C   C52       1.0  0.12736  0.36067  0.47406  1.0000
  C   C53       1.0  0.25302  0.16439  0.45243  1.0000
  S   S23       1.0  0.05129  0.36830  0.28424  1.0000
  H   H78       1.0  0.23737  0.14037  0.50105  1.0000
  C   C54       1.0  0.13799  0.17536  0.31347  1.0000
  C   C55       1.0  0.16998  0.33628  0.47955  1.0000
  H   H79       1.0  0.15562  0.38662  0.43144  1.0000
  H   H80       1.0  0.04631  0.27317  0.46565  1.0000
  H   H81       1.0  0.13802  0.34651  0.42454  1.0000
  C   C56       1.0  0.04885  0.24129  0.51158  1.0000
  C   C57       1.0  0.22478  0.18921  0.38531  1.0000
  S   S24       1.0  0.09112  0.42844  0.52060  1.0000
  C   C58       1.0  0.18373  0.15680  0.30903  1.0000
  C   C59       1.0  0.05273  0.25177  0.46411  1.0000
  H   H82       1.0  0.16803  0.38933  0.46186  1.0000
  C   C60       1.0  0.23630  0.14333  0.37785  1.0000
  S   S25       1.0  0.05214  0.49727  0.29170  1.0000
  H   H83       1.0  0.10442  0.51806  0.28610  1.0000
  H   H84       1.0  0.25406  0.09910  0.44530  1.0000
  H   H85       1.0  0.04108  0.19285  0.50073  1.0000
  C   C61       1.0  0.11346  0.52381  0.48385  1.0000
  N   N6        1.0  0.25555  0.13553  0.46141  1.0000
  H   H86       1.0  0.17092  0.19592  0.33960  1.0000
  H   H87       1.0  0.23623  0.10809  0.49122  1.0000
  H   H88       1.0  0.09719  0.51521  0.43897  1.0000
  H   H89       1.0  0.13570  0.16831  0.33508  1.0000
  H   H90       1.0  0.04294  0.26258  0.51409  1.0000
  H   H91       1.0  0.06351  0.51064  0.45229  1.0000
  C   C62       1.0  0.06642  0.33587  0.29040  1.0000
  H   H92       1.0  0.25493  0.17613  0.46868  1.0000
  H   H93       1.0  0.09061  0.51064  0.35971  1.0000
  H   H94       1.0  0.03084  0.30658  0.36916  1.0000
  H   H95       1.0  0.07066  0.23728  0.51167  1.0000
  C   C63       1.0  0.08747  0.51417  0.33844  1.0000
  H   H96       1.0  0.26661  0.12538  0.42188  1.0000
  H   H97       1.0  0.26838  0.16966  0.43570  1.0000
  H   H98       1.0  0.13766  0.52036  0.34583  1.0000
  C   C64       1.0  0.13292  0.52238  0.32507  1.0000
  H   H99       1.0  0.06626  0.52150  0.33722  1.0000
  C   C65       1.0  0.20001  0.49592  0.70800  1.0000
  S   S26       1.0  0.19355  0.16005  0.56976  1.0000
  H   H100      1.0  0.21753  0.50653  0.70869  1.0000
  Fe  Fe13      1.0  0.19679  0.23385  0.57734  1.0000
  S   S27       1.0  0.19268  0.20231  0.61201  1.0000
  S   S28       1.0  0.20130  0.27544  0.58436  1.0000
  Fe  Fe14      1.0  0.22412  0.17775  0.58775  1.0000
  C   C66       1.0  0.15265  0.49922  0.70875  1.0000
  Fe  Fe15      1.0  0.16245  0.18799  0.59069  1.0000
  H   H101      1.0  0.25648  0.25954  0.56863  1.0000
  S   S29       1.0  0.22997  0.21057  0.55466  1.0000
  S   S30       1.0  0.16462  0.22143  0.55792  1.0000
  H   H102      1.0  0.09738  0.29968  0.63126  1.0000
  H   H103      1.0  0.15448  0.48898  0.69067  1.0000
  Fe  Fe16      1.0  0.17267  0.42475  0.75785  1.0000
  Fe  Fe17      1.0  0.14059  0.43732  0.56960  1.0000
  S   S31       1.0  0.10261  0.41961  0.58345  1.0000
  S   S32       1.0  0.16702  0.44629  0.59900  1.0000
  Fe  Fe18      1.0  0.11272  0.39769  0.54764  1.0000
  S   S33       1.0  0.10792  0.35542  0.54415  1.0000
  Fe  Fe19      1.0  0.08529  0.45221  0.55486  1.0000
  S   S34       1.0  0.04798  0.47852  0.56519  1.0000
  C   C67       1.0  0.25679  0.22942  0.61577  1.0000
  S   S35       1.0  0.12264  0.47125  0.54258  1.0000
  C   C68       1.0  0.16105  0.43955  0.63419  1.0000
  C   C69       1.0  0.18115  0.44191  0.64957  1.0000
  C   C70       1.0  0.17704  0.43713  0.67754  1.0000
  C   C71       1.0  0.15252  0.43050  0.69051  1.0000
  C   C72       1.0  0.13236  0.42846  0.67513  1.0000
  C   C73       1.0  0.13662  0.43273  0.64718  1.0000
  H   H104      1.0  0.20016  0.44707  0.63975  1.0000
  H   H105      1.0  0.19283  0.43848  0.68904  1.0000
  H   H106      1.0  0.11335  0.42327  0.68493  1.0000
  H   H107      1.0  0.12099  0.43073  0.63574  1.0000
  H   H108      1.0  0.08035  0.26215  0.57969  1.0000
  H   H109      1.0  0.08830  0.22858  0.63274  1.0000
  H   H110      1.0  0.25654  0.22566  0.63766  1.0000
  H   H111      1.0  0.08419  0.25597  0.65186  1.0000
  C   C74       1.0  0.04553  0.18534  0.57115  1.0000
  H   H112      1.0  0.06531  0.18856  0.63131  1.0000
  H   H113      1.0  0.13201  0.26174  0.63840  1.0000
  H   H114      1.0  0.11316  0.17907  0.55701  1.0000
  Fe  Fe20      1.0  0.19752  0.19506  0.53841  1.0000
  C   C75       1.0  0.04378  0.18840  0.59804  1.0000
  C   C76       1.0  0.17764  0.29910  0.57058  1.0000
  C   C77       1.0  0.16305  0.29260  0.55177  1.0000
  C   C78       1.0  0.14171  0.31009  0.54356  1.0000
  C   C79       1.0  0.13564  0.33465  0.55328  1.0000
  C   C80       1.0  0.15113  0.34192  0.57092  1.0000
  C   C81       1.0  0.17202  0.32401  0.57976  1.0000
  H   H115      1.0  0.16813  0.27408  0.54358  1.0000
  C   C82       1.0  0.06699  0.18725  0.61027  1.0000
  H   H116      1.0  0.14645  0.36093  0.57851  1.0000
  C   C83       1.0  0.02236  0.45840  0.57620  1.0000
  H   H117      1.0  0.20356  0.48569  0.68983  1.0000
  H   H118      1.0  0.09518  0.52410  0.64882  1.0000
  S   S36       1.0  0.12095  0.18267  0.61194  1.0000
  N   N7        1.0  0.10259  0.26431  0.61180  1.0000
  H   H119      1.0  0.07251  0.17924  0.53584  1.0000
  H   H120      1.0  0.13456  0.50294  0.62187  1.0000
  C   C84       1.0  0.08364  0.25056  0.63167  1.0000
  C   C85       1.0  0.09637  0.29339  0.61154  1.0000
  H   H121      1.0  0.17067  0.51335  0.75103  1.0000
  C   C86       1.0  0.12579  0.51294  0.60392  1.0000
  H   H122      1.0  0.15115  0.48352  0.72608  1.0000
  H   H123      1.0  0.19922  0.48033  0.72537  1.0000
  H   H124      1.0  0.14460  0.26586  0.60391  1.0000
  C   C87       1.0  0.12971  0.25625  0.61867  1.0000
  S   S37       1.0  0.15246  0.41243  0.53566  1.0000
  H   H125      1.0  0.06301  0.25550  0.62678  1.0000
  C   C88       1.0  0.09221  0.18391  0.59564  1.0000
  H   H126      1.0  0.18335  0.32923  0.59421  1.0000
  C   C89       1.0  0.07078  0.18203  0.55653  1.0000
  H   H127      1.0  0.10587  0.23526  0.58463  1.0000
  H   H128      1.0  0.13366  0.51240  0.70966  1.0000
  C   C90       1.0  0.02809  0.43077  0.57988  1.0000
  H   H129      1.0  0.11055  0.30431  0.59700  1.0000
  C   C91       1.0  0.10070  0.25696  0.58529  1.0000
  S   S38       1.0  0.21649  0.42717  0.75097  1.0000
  S   S39       1.0  0.26007  0.15505  0.60572  1.0000
  H   H130      1.0  0.07621  0.30026  0.60597  1.0000
  S   S40       1.0  0.14559  0.42563  0.72572  1.0000
  H   H131      1.0  0.11447  0.26721  0.56976  1.0000
  H   H132      1.0  0.02457  0.19064  0.60966  1.0000
  C   C92       1.0  0.09394  0.18180  0.56854  1.0000
  H   H133      1.0  0.04808  0.42173  0.57549  1.0000
  C   C93       1.0  0.08716  0.48946  0.61624  1.0000
  H   H134      1.0  0.13494  0.23437  0.61929  1.0000
  N   N8        1.0  0.17540  0.51433  0.70863  1.0000
  H   H135      1.0  0.09409  0.47614  0.60065  1.0000
  H   H136      1.0  0.13337  0.50048  0.58772  1.0000
  H   H137      1.0  0.26134  0.20989  0.60798  1.0000
  S   S41       1.0  0.22372  0.49796  0.76898  1.0000
  H   H138      1.0  0.09208  0.51635  0.56746  1.0000
  H   H139      1.0  0.06516  0.49083  0.61918  1.0000
  N   N9        1.0  0.09656  0.51594  0.60854  1.0000
  H   H140      1.0  0.23640  0.23734  0.61168  1.0000
  H   H141      1.0  0.17985  0.52494  0.66632  1.0000
  H   H142      1.0  0.03949  0.22938  0.52934  1.0000
  H   H143      1.0  0.09453  0.47948  0.63490  1.0000
  H   H144      1.0  0.24855  0.28275  0.60862  1.0000
  C   C94       1.0  0.26853  0.27397  0.61359  1.0000
  H   H145      1.0  0.26782  0.27208  0.63553  1.0000
  H   H146      1.0  0.12987  0.30456  0.52972  1.0000
  Fe  Fe21      1.0  0.18487  0.42667  0.01193  1.0000
  C   C95       1.0  0.13775  0.51197  0.87007  1.0000
  N   N10       1.0  0.18875  0.51196  0.96147  1.0000
  Fe  Fe22      1.0  0.17006  0.42778  0.81863  1.0000
  S   S42       1.0  0.21312  0.43112  0.81579  1.0000
  S   S43       1.0  0.14292  0.43186  0.85722  1.0000
  H   H147      1.0  0.25251  0.33279  0.95343  1.0000
  H   H148      1.0  0.22330  0.49116  0.97734  1.0000
  S   S44       1.0  0.25093  0.36686  0.79565  1.0000
  S   S45       1.0  0.16002  0.43675  0.97756  1.0000
  S   S46       1.0  0.17453  0.39383  0.79392  1.0000
  H   H149      1.0  0.24971  0.47071  0.81349  1.0000
  C   C96       1.0  0.17228  0.49687  0.83701  1.0000
  C   C97       1.0  0.23100  0.50865  0.79789  1.0000
  H   H150      1.0  0.15122  0.49633  0.97230  1.0000
  H   H151      1.0  0.12385  0.48370  0.83455  1.0000
  C   C98       1.0  0.24280  0.49087  0.81726  1.0000
  N   N11       1.0  0.14697  0.51383  0.84137  1.0000
  H   H152      1.0  0.18659  0.48050  0.93825  1.0000
  C   C99       1.0  0.24573  0.49919  0.84158  1.0000
  C   C100      1.0  0.15785  0.43421  0.94364  1.0000
  C   C101      1.0  0.13281  0.44055  0.93521  1.0000
  C   C102      1.0  0.12903  0.43940  0.90890  1.0000
  C   C103      1.0  0.15027  0.43247  0.89006  1.0000
  C   C104      1.0  0.17575  0.42665  0.89805  1.0000
  C   C105      1.0  0.17951  0.42729  0.92493  1.0000
  H   H153      1.0  0.11595  0.44595  0.94931  1.0000
  H   H154      1.0  0.10931  0.44383  0.90314  1.0000
  H   H155      1.0  0.19237  0.42128  0.88368  1.0000
  H   H156      1.0  0.19902  0.42254  0.93107  1.0000
  H   H157      1.0  0.24954  0.39301  0.95288  1.0000
  Fe  Fe23      1.0  0.21781  0.39928  0.78878  1.0000
  H   H158      1.0  0.17030  0.47576  0.84475  1.0000
  C   C106      1.0  0.26021  0.37949  0.96780  1.0000
  H   H159      1.0  0.24521  0.36911  0.98190  1.0000
  H   H160      1.0  0.25712  0.35651  0.92437  1.0000
  H   H161      1.0  0.13418  0.49121  0.87831  1.0000
  C   C107      1.0  0.12701  0.50480  0.82747  1.0000
  H   H162      1.0  0.25472  0.48532  0.85654  1.0000
  S   S47       1.0  0.22866  0.42731  0.00866  1.0000
  H   H163      1.0  0.19403  0.47440  0.98538  1.0000
  H   H164      1.0  0.10756  0.51696  0.83071  1.0000
  H   H165      1.0  0.21607  0.49699  0.92977  1.0000
  H   H166      1.0  0.18536  0.51316  0.92000  1.0000
  H   H167      1.0  0.17975  0.49757  0.81559  1.0000
  C   C108      1.0  0.19444  0.50010  0.93628  1.0000
  H   H168      1.0  0.18774  0.50315  0.84722  1.0000
  C   C109      1.0  0.20145  0.49422  0.98239  1.0000
  H   H169      1.0  0.13321  0.50618  0.80574  1.0000
  S   S48       1.0  0.16416  0.45815  0.78317  1.0000
  C   C110      1.0  0.15984  0.51563  0.96928  1.0000
  H   H170      1.0  0.15263  0.51803  0.88122  1.0000
  C   C111      1.0  0.26746  0.34399  0.94019  1.0000
  H   H171      1.0  0.15483  0.52483  0.98807  1.0000
  H   H172      1.0  0.26574  0.41984  0.78633  1.0000
  H   H173      1.0  0.19739  0.50249  0.00172  1.0000
  C   C112      1.0  0.23628  0.52512  0.84676  1.0000
  H   H174      1.0  0.11896  0.52497  0.87422  1.0000
  Fe  Fe24      1.0  0.20802  0.45843  0.77854  1.0000
  Fe  Fe25      1.0  0.17548  0.60509  0.17343  1.0000
  S   S49       1.0  0.21977  0.60198  0.16487  1.0000
  S   S50       1.0  0.15243  0.61845  0.21159  1.0000
  Fe  Fe26      1.0  0.16959  0.59419  0.11640  1.0000
  S   S51       1.0  0.21295  0.59061  0.10422  1.0000
  S   S52       1.0  0.14166  0.58806  0.08756  1.0000
  Fe  Fe27      1.0  0.21583  0.56727  0.14407  1.0000
  S   S53       1.0  0.24303  0.52948  0.14736  1.0000
  Fe  Fe28      1.0  0.21268  0.62578  0.12579  1.0000
  S   S54       1.0  0.23735  0.65710  0.10438  1.0000
  S   S55       1.0  0.17200  0.56808  0.15539  1.0000
  S   S56       1.0  0.16869  0.63156  0.13531  1.0000
  H   H175      1.0  0.25738  0.55318  0.09378  1.0000
  C   C113      1.0  0.26388  0.65581  0.12270  1.0000
  C   C114      1.0  0.17561  0.58591  0.25243  1.0000
  H   H176      1.0  0.18786  0.57569  0.23722  1.0000
  C   C115      1.0  0.25269  0.53326  0.09325  1.0000
  H   H177      1.0  0.17299  0.63176  0.07255  1.0000
  H   H178      1.0  0.18050  0.53709  0.10721  1.0000
  H   H179      1.0  0.13300  0.64031  0.04726  1.0000
  H   H180      1.0  0.11720  0.68451  0.08063  1.0000
  H   H181      1.0  0.14353  0.71100  0.04446  1.0000
  C   C116      1.0  0.14125  0.62019  0.26524  1.0000
  H   H182      1.0  0.23962  0.65117  0.16033  1.0000
  H   H183      1.0  0.20602  0.66833  0.26144  1.0000
  H   H184      1.0  0.10596  0.57791  0.05420  1.0000
  H   H185      1.0  0.14518  0.67907  0.09904  1.0000
  H   H186      1.0  0.25610  0.53710  0.05058  1.0000
  H   H187      1.0  0.16418  0.53153  0.08007  1.0000
  C   C117      1.0  0.16123  0.69675  0.04833  1.0000
  C   C118      1.0  0.17790  0.65198  0.06403  1.0000
  H   H188      1.0  0.12077  0.53353  0.10704  1.0000
  H   H189      1.0  0.17171  0.70486  0.06257  1.0000
  C   C119      1.0  0.25955  0.65089  0.15032  1.0000
  H   H190      1.0  0.18655  0.59567  0.04398  1.0000
  H   H191      1.0  0.12670  0.63658  0.25986  1.0000
  H   H192      1.0  0.22683  0.64200  0.27788  1.0000
  C   C120      1.0  0.12405  0.58186  0.04152  1.0000
  C   C121      1.0  0.14599  0.58691  0.05265  1.0000
  H   H193      1.0  0.13591  0.54066  0.13417  1.0000
  C   C122      1.0  0.15707  0.60726  0.24516  1.0000
  C   C123      1.0  0.13575  0.67133  0.08379  1.0000
  H   H194      1.0  0.13001  0.65129  0.09234  1.0000
  C   C124      1.0  0.16926  0.59209  0.03570  1.0000
  H   H195      1.0  0.18879  0.65934  0.07841  1.0000
  H   H196      1.0  0.12284  0.67354  0.03378  1.0000
  N   N12       1.0  0.15380  0.66996  0.05883  1.0000
  H   H197      1.0  0.19179  0.64991  0.04560  1.0000
  C   C125      1.0  0.14033  0.65974  0.03924  1.0000
  H   H198      1.0  0.19299  0.63803  0.27606  1.0000
  H   H199      1.0  0.17467  0.69636  0.02937  1.0000
  Fe  Fe29      1.0  0.09863  0.63565  0.39110  1.0000
  S   S57       1.0  0.11414  0.59275  0.39896  1.0000
  S   S58       1.0  0.05671  0.65298  0.38868  1.0000
  Fe  Fe30      1.0  0.15239  0.65434  0.38799  1.0000
  S   S59       1.0  0.17235  0.61290  0.39660  1.0000
  S   S60       1.0  0.17454  0.69034  0.38008  1.0000
  Fe  Fe31      1.0  0.14737  0.60296  0.36709  1.0000
  H   H200      1.0  0.07820  0.69385  0.42424  1.0000
  Fe  Fe32      1.0  0.13719  0.60713  0.42774  1.0000
  S   S61       1.0  0.13307  0.58601  0.47005  1.0000
  S   S62       1.0  0.12965  0.64471  0.35709  1.0000
  S   S63       1.0  0.11961  0.64946  0.42120  1.0000
  Fe  Fe33      1.0  0.08682  0.82011  0.44210  1.0000
  S   S64       1.0  0.07979  0.86427  0.44046  1.0000
  S   S65       1.0  0.08503  0.79617  0.48208  1.0000
  Fe  Fe34      1.0  0.09438  0.82237  0.38312  1.0000
  S   S66       1.0  0.08811  0.86709  0.37654  1.0000
  S   S67       1.0  0.10017  0.79565  0.35098  1.0000
  Fe  Fe35      1.0  0.11470  0.86482  0.40872  1.0000
  S   S68       1.0  0.14602  0.89288  0.40995  1.0000
  Fe  Fe36      1.0  0.05387  0.86236  0.40896  1.0000
  H   H201      1.0  0.25386  0.85261  0.32969  1.0000
  S   S69       1.0  0.12321  0.82050  0.41260  1.0000
  S   S70       1.0  0.05854  0.81790  0.41330  1.0000
  H   H202      1.0  0.16295  0.62912  0.47720  1.0000
  C   C126      1.0  0.11508  0.79828  0.49365  1.0000
  C   C127      1.0  0.13882  0.79465  0.47695  1.0000
  C   C128      1.0  0.16257  0.79959  0.48491  1.0000
  C   C129      1.0  0.16260  0.80823  0.50958  1.0000
  C   C130      1.0  0.13838  0.60015  0.49845  1.0000
  H   H203      1.0  0.26512  0.89588  0.46237  1.0000
  H   H204      1.0  0.13895  0.78791  0.45788  1.0000
  H   H205      1.0  0.18083  0.79711  0.47173  1.0000
  H   H206      1.0  0.06990  0.52841  0.51910  1.0000
  H   H207      1.0  0.11509  0.57353  0.52556  1.0000
  N   N13       1.0  0.19858  0.66395  0.30406  1.0000
  H   H208      1.0  0.22719  0.83124  0.42182  1.0000
  C   C131      1.0  0.25040  0.86992  0.34122  1.0000
  H   H209      1.0  0.12687  0.53028  0.46579  1.0000
  H   H210      1.0  0.17291  0.64537  0.51783  1.0000
  C   C132      1.0  0.07806  0.71143  0.40885  1.0000
  H   H211      1.0  0.16494  0.68642  0.32315  1.0000
  C   C133      1.0  0.26616  0.91004  0.34977  1.0000
  C   C134      1.0  0.16212  0.59046  0.29951  1.0000
  C   C135      1.0  0.17155  0.67788  0.30421  1.0000
  C   C136      1.0  0.15405  0.71964  0.37165  1.0000
  C   C137      1.0  0.16040  0.74403  0.37706  1.0000
  C   C138      1.0  0.14397  0.76750  0.37070  1.0000
  C   C139      1.0  0.12157  0.76673  0.35823  1.0000
  C   C140      1.0  0.11577  0.74247  0.35197  1.0000
  C   C141      1.0  0.13163  0.71891  0.35919  1.0000
  H   H212      1.0  0.17780  0.74474  0.38655  1.0000
  H   H213      1.0  0.14901  0.78625  0.37489  1.0000
  H   H214      1.0  0.09868  0.74183  0.34197  1.0000
  H   H215      1.0  0.12653  0.70029  0.35485  1.0000
  H   H216      1.0  0.25510  0.90905  0.30040  1.0000
  H   H217      1.0  0.07832  0.56709  0.48460  1.0000
  C   C142      1.0  0.03835  0.60635  0.41404  1.0000
  H   H218      1.0  0.21936  0.89437  0.52505  1.0000
  H   H219      1.0  0.09765  0.86549  0.49103  1.0000
  H   H220      1.0  0.13101  0.62180  0.30726  1.0000
  H   H221      1.0  0.21903  0.63086  0.32651  1.0000
  H   H222      1.0  0.05772  0.59652  0.40839  1.0000
  C   C143      1.0  0.10374  0.87758  0.50513  1.0000
  S   S71       1.0  0.16500  0.57872  0.33340  1.0000
  H   H223      1.0  0.18489  0.62805  0.32513  1.0000
  H   H224      1.0  0.14673  0.53561  0.31282  1.0000
  H   H225      1.0  0.17928  0.84176  0.41766  1.0000
  C   C144      1.0  0.07669  0.55390  0.46945  1.0000
  C   C145      1.0  0.23514  0.87217  0.41774  1.0000
  H   H226      1.0  0.06926  0.75032  0.44034  1.0000
  C   C146      1.0  0.18027  0.88414  0.41295  1.0000
  C   C147      1.0  0.19153  0.85770  0.41667  1.0000
  N   N14       1.0  0.10505  0.53311  0.32314  1.0000
  H   H227      1.0  0.07947  0.54489  0.29275  1.0000
  H   H228      1.0  0.23594  0.91457  0.41373  1.0000
  H   H229      1.0  0.05556  0.74586  0.37202  1.0000
  H   H230      1.0  0.23760  0.67313  0.30739  1.0000
  H   H231      1.0  0.14823  0.92185  0.50319  1.0000
  H   H232      1.0  0.03109  0.70797  0.39285  1.0000
  S   S72       1.0  0.19215  0.81618  0.51843  1.0000
  H   H233      1.0  0.11113  0.86338  0.52154  1.0000
  N   N15       1.0  0.12430  0.89449  0.49219  1.0000
  H   H234      1.0  0.11162  0.57388  0.32238  1.0000
  H   H235      1.0  0.02231  0.57021  0.43253  1.0000
  C   C148      1.0  0.14377  0.61192  0.29219  1.0000
  H   H236      1.0  0.08896  0.56151  0.45103  1.0000
  C   C149      1.0  0.12745  0.58944  0.52377  1.0000
  H   H237      1.0  0.18805  0.92503  0.40945  1.0000
  H   H238      1.0  0.17040  0.69452  0.28784  1.0000
  H   H239      1.0  0.07998  0.70374  0.38930  1.0000
  H   H240      1.0  0.10743  0.90344  0.45553  1.0000
  H   H241      1.0  0.05184  0.72269  0.45557  1.0000
  C   C150      1.0  0.25445  0.90137  0.48155  1.0000
  C   C151      1.0  0.24018  0.88639  0.52736  1.0000
  C   C152      1.0  0.14735  0.87758  0.48065  1.0000
  H   H242      1.0  0.08574  0.88959  0.51362  1.0000
  H   H243      1.0  0.22085  0.86370  0.49074  1.0000
  C   C153      1.0  0.19657  0.90450  0.41212  1.0000
  C   C154      1.0  0.03281  0.63376  0.40686  1.0000
  C   C155      1.0  0.21703  0.68298  0.30713  1.0000
  C   C156      1.0  0.05397  0.75246  0.39203  1.0000
  N   N16       1.0  0.25464  0.87825  0.50230  1.0000
  H   H244      1.0  0.21131  0.69184  0.32611  1.0000
  C   C157      1.0  0.10038  0.53708  0.29501  1.0000
  H   H245      1.0  0.07833  0.56703  0.33364  1.0000
  C   C158      1.0  0.15988  0.62999  0.51960  1.0000
  H   H246      1.0  0.12873  0.92663  0.46066  1.0000
  H   H247      1.0  0.24159  0.83922  0.50920  1.0000
  H   H248      1.0  0.03380  0.75329  0.44311  1.0000
  C   C159      1.0  0.24174  0.85700  0.49400  1.0000
  C   C160      1.0  0.15426  0.62081  0.49649  1.0000
  H   H249      1.0  0.03570  0.83898  0.47496  1.0000
  N   N17       1.0  0.05360  0.72969  0.41313  1.0000
  H   H250      1.0  0.02994  0.69765  0.42765  1.0000
  H   H251      1.0  0.03578  0.76666  0.39443  1.0000
  H   H252      1.0  0.15705  0.66417  0.30186  1.0000
  C   C161      1.0  0.21877  0.85180  0.41907  1.0000
  C   C162      1.0  0.11521  0.80603  0.51870  1.0000
  H   H253      1.0  0.11555  0.92209  0.52114  1.0000
  C   C163      1.0  0.11363  0.91371  0.47100  1.0000
  C   C164      1.0  0.13250  0.90908  0.51212  1.0000
  C   C165      1.0  0.22380  0.89861  0.41450  1.0000
  H   H254      1.0  0.02709  0.80773  0.49225  1.0000
  H   H255      1.0  0.09611  0.92672  0.47888  1.0000
  C   C166      1.0  0.19914  0.64232  0.32632  1.0000
  H   H256      1.0  0.26518  0.90315  0.37134  1.0000
  C   C167      1.0  0.03047  0.71539  0.41239  1.0000
  H   H257      1.0  0.15659  0.86358  0.49619  1.0000
  H   H258      1.0  0.24688  0.92169  0.34628  1.0000
  H   H259      1.0  0.24872  0.86192  0.36265  1.0000
  H   H260      1.0  0.02475  0.83613  0.50981  1.0000
  C   C168      1.0  0.09943  0.55884  0.33404  1.0000
  H   H261      1.0  0.25212  0.85023  0.47518  1.0000
  H   H262      1.0  0.26413  0.91780  0.48710  1.0000
  H   H263      1.0  0.23393  0.90937  0.47789  1.0000
  H   H264      1.0  0.16280  0.88968  0.46964  1.0000
  C   C169      1.0  0.02156  0.82960  0.49078  1.0000
  H   H265      1.0  0.10388  0.55692  0.35487  1.0000
  H   H266      1.0  0.09602  0.72140  0.40939  1.0000
  C   C170      1.0  0.05202  0.73943  0.43921  1.0000
  H   H267      1.0  0.14161  0.86542  0.46632  1.0000
  H   H268      1.0  0.19383  0.65016  0.34578  1.0000
  H   H269      1.0  0.07117  0.76365  0.39214  1.0000
  H   H270      1.0  0.23085  0.88087  0.33746  1.0000
  H   H271      1.0  0.11573  0.53641  0.49925  1.0000
  H   H272      1.0  0.21716  0.69963  0.29071  1.0000
  H   H273      1.0  0.05573  0.55642  0.46543  1.0000
  C   C171      1.0  0.13892  0.81137  0.52648  1.0000
  H   H274      1.0  0.19219  0.56078  0.28486  1.0000
  C   C172      1.0  0.20650  0.65263  0.27875  1.0000
  H   H275      1.0  0.11327  0.55139  0.28294  1.0000
  N   N18       1.0  0.08574  0.52588  0.47835  1.0000
  C   C173      1.0  0.17800  0.57750  0.27947  1.0000
  Fe  Fe37      1.0  0.14935  0.85191  0.60176  1.0000
  S   S73       1.0  0.15892  0.81017  0.59189  1.0000
  S   S74       1.0  0.10635  0.86700  0.61462  1.0000
  Fe  Fe38      1.0  0.20894  0.86131  0.59411  1.0000
  S   S75       1.0  0.22198  0.82030  0.58328  1.0000
  S   S76       1.0  0.23875  0.89069  0.59544  1.0000
  Fe  Fe39      1.0  0.18775  0.82746  0.55953  1.0000
  Fe  Fe40      1.0  0.19174  0.80738  0.61690  1.0000
  S   S77       1.0  0.20019  0.77020  0.64444  1.0000
  S   S78       1.0  0.17652  0.86971  0.56742  1.0000
  S   S79       1.0  0.18051  0.84789  0.62964  1.0000
  Fe  Fe41      1.0  0.08996  0.61088  0.65503  1.0000
  S   S80       1.0  0.13037  0.58905  0.64553  1.0000
  S   S81       1.0  0.05373  0.58944  0.65774  1.0000
  Fe  Fe42      1.0  0.11144  0.66349  0.65445  1.0000
  S   S82       1.0  0.15311  0.64561  0.64481  1.0000
  S   S83       1.0  0.10062  0.70693  0.65903  1.0000
  Fe  Fe43      1.0  0.13713  0.62489  0.61543  1.0000
  S   S84       1.0  0.15843  0.63021  0.57337  1.0000
  Fe  Fe44      1.0  0.14193  0.61217  0.67597  1.0000
  S   S85       1.0  0.16886  0.59654  0.70783  1.0000
  S   S86       1.0  0.09605  0.64510  0.62324  1.0000
  S   S87       1.0  0.10117  0.63143  0.68723  1.0000
  H   H276      1.0  0.04749  0.77985  0.61062  1.0000
  C   C174      1.0  0.05814  0.85259  0.56224  1.0000
  N   N19       1.0  0.02067  0.79469  0.64265  1.0000
  H   H277      1.0  0.18892  0.53927  0.73339  1.0000
  H   H278      1.0  0.06032  0.84521  0.54319  1.0000
  H   H279      1.0  0.13199  0.70712  0.54526  1.0000
  H   H280      1.0  0.16826  0.65796  0.75689  1.0000
  H   H281      1.0  0.19991  0.59223  0.75118  1.0000
  H   H282      1.0  0.04885  0.81412  0.61402  1.0000
  C   C175      1.0  0.03023  0.87098  0.59868  1.0000
  C   C176      1.0  0.13057  0.73839  0.58397  1.0000
  H   H283      1.0  0.12004  0.68576  0.71037  1.0000
  H   H284      1.0  0.15374  0.54219  0.73375  1.0000
  H   H285      1.0  0.19385  0.54632  0.68449  1.0000
  H   H286      1.0  0.13368  0.53253  0.59829  1.0000
  C   C177      1.0  0.17216  0.75306  0.65127  1.0000
  C   C178      1.0  0.14696  0.76653  0.64903  1.0000
  C   C179      1.0  0.12491  0.75230  0.65212  1.0000
  C   C180      1.0  0.12801  0.72459  0.65751  1.0000
  C   C181      1.0  0.15300  0.71130  0.66111  1.0000
  C   C182      1.0  0.17507  0.72549  0.65795  1.0000
  H   H287      1.0  0.14445  0.78796  0.64504  1.0000
  H   H288      1.0  0.10556  0.76278  0.64983  1.0000
  H   H289      1.0  0.15540  0.69018  0.66668  1.0000
  H   H290      1.0  0.19449  0.71506  0.66010  1.0000
  C   C183      1.0  0.13258  0.59905  0.54687  1.0000
  H   H291      1.0  0.12354  0.71975  0.76923  1.0000
  H   H292      1.0  0.17267  0.75933  0.55553  1.0000
  H   H293      1.0  0.13594  0.75556  0.59255  1.0000
  H   H294      1.0  0.16464  0.70064  0.60643  1.0000
  C   C184      1.0  0.15212  0.67230  0.76522  1.0000
  C   C185      1.0  0.16642  0.74174  0.54835  1.0000
  H   H295      1.0  0.04890  0.62245  0.69994  1.0000
  C   C186      1.0  0.08074  0.85325  0.57488  1.0000
  C   C187      1.0  0.07831  0.86368  0.59902  1.0000
  H   H296      1.0  0.10010  0.84611  0.56587  1.0000
  H   H297      1.0  0.05081  0.88046  0.62960  1.0000
  H   H298      1.0  0.23963  0.86934  0.54337  1.0000
  C   C188      1.0  0.03528  0.79845  0.61574  1.0000
  H   H299      1.0  0.13663  0.68698  0.57617  1.0000
  C   C189      1.0  0.15974  0.60004  0.74198  1.0000
  C   C190      1.0  0.17943  0.59684  0.75903  1.0000
  C   C191      1.0  0.02938  0.62048  0.69569  1.0000
  H   H300      1.0  0.16356  0.68891  0.55017  1.0000
  C   C192      1.0  0.13334  0.60559  0.75253  1.0000
  H   H301      1.0  0.14600  0.65974  0.71738  1.0000
  C   C193      1.0  0.05291  0.87226  0.61097  1.0000
  N   N20       1.0  0.13940  0.68972  0.74405  1.0000
  H   H302      1.0  0.19135  0.70308  0.58011  1.0000
  H   H303      1.0  0.11788  0.60748  0.73987  1.0000
  C   C194      1.0  0.15882  0.70642  0.72823  1.0000
  H   H304      1.0  0.14948  0.72082  0.71300  1.0000
  H   H305      1.0  0.05244  0.76885  0.65891  1.0000
  C   C195      1.0  0.14621  0.70079  0.56002  1.0000
  H   H306      1.0  0.12428  0.59050  0.56620  1.0000
  C   C196      1.0  0.12965  0.67326  0.72668  1.0000
  H   H307      1.0  0.13857  0.81888  0.54509  1.0000
  C   C197      1.0  0.14921  0.61911  0.54491  1.0000
  N   N21       1.0  0.15414  0.72381  0.57045  1.0000
  H   H308      1.0  0.02156  0.80469  0.60044  1.0000
  H   H309      1.0  0.15879  0.54862  0.68488  1.0000
  H   H310      1.0  0.16751  0.71824  0.74086  1.0000
  H   H311      1.0  0.18426  0.73140  0.53766  1.0000
  H   H312      1.0  0.09251  0.54862  0.57760  1.0000
  H   H313      1.0  0.09384  0.55308  0.62470  1.0000
  C   C198      1.0  0.17704  0.53436  0.68497  1.0000
  H   H314      1.0  0.11475  0.66060  0.73793  1.0000
  H   H315      1.0  0.05298  0.80356  0.66135  1.0000
  H   H316      1.0  0.02931  0.78498  0.68286  1.0000
  H   H317      1.0  0.12063  0.72531  0.60057  1.0000
  H   H318      1.0  0.11583  0.74622  0.57005  1.0000
  H   H319      1.0  0.06377  0.53100  0.58684  1.0000
  H   H320      1.0  0.17539  0.69414  0.71772  1.0000
  C   C199      1.0  0.17332  0.71427  0.58957  1.0000
  C   C200      1.0  0.03970  0.78771  0.66232  1.0000
  H   H321      1.0  0.17969  0.73108  0.59800  1.0000
  H   H322      1.0  0.10674  0.72023  0.74058  1.0000
  C   C201      1.0  0.02600  0.60509  0.67614  1.0000
  H   H323      1.0  0.10191  0.69496  0.76823  1.0000
  C   C202      1.0  0.11691  0.70696  0.75607  1.0000
  H   H324      1.0  0.06543  0.53545  0.63405  1.0000
  H   H325      1.0  0.09685  0.80908  0.53157  1.0000
  H   H326      1.0  0.15246  0.74937  0.53355  1.0000
  C   C203      1.0  0.03278  0.86154  0.57402  1.0000
  C   C204      1.0  0.17194  0.52784  0.73278  1.0000
  C   C205      1.0  0.08742  0.53280  0.62997  1.0000
  H   H327      1.0  0.24961  0.90205  0.53460  1.0000
  C   C206      1.0  0.08581  0.52859  0.58401  1.0000
  H   H328      1.0  0.16081  0.68391  0.77804  1.0000
  H   H329      1.0  0.14028  0.89517  0.52862  1.0000
  Fe  Fe45      1.0  0.16989  0.59869  0.92226  1.0000
  S   S88       1.0  0.21408  0.59699  0.91557  1.0000
  S   S89       1.0  0.14581  0.58850  0.96239  1.0000
  Fe  Fe46      1.0  0.16527  0.60846  0.86161  1.0000
  S   S90       1.0  0.20901  0.60831  0.85132  1.0000
  H   H330      1.0  0.18772  0.59724  0.99475  1.0000
  Fe  Fe47      1.0  0.21163  0.57327  0.88261  1.0000
  H   H331      1.0  0.10630  0.61302  0.78751  1.0000
  Fe  Fe48      1.0  0.20686  0.63220  0.88508  1.0000
  S   S91       1.0  0.23241  0.66550  0.87780  1.0000
  S   S92       1.0  0.16802  0.57187  0.89128  1.0000
  S   S93       1.0  0.16252  0.63564  0.89342  1.0000
  C   C207      1.0  0.22252  0.53478  0.80270  1.0000
  C   C208      1.0  0.25794  0.65830  0.89784  1.0000
  S   S94       1.0  0.23736  0.53491  0.87811  1.0000
  H   H332      1.0  0.10747  0.57851  0.00607  1.0000
  H   H333      1.0  0.15379  0.65670  0.02069  1.0000
  C   C209      1.0  0.15090  0.54165  0.83091  1.0000
  H   H334      1.0  0.16590  0.54919  0.84081  1.0000
  C   C210      1.0  0.16997  0.59293  0.00777  1.0000
  H   H335      1.0  0.13765  0.66053  0.77844  1.0000
  H   H336      1.0  0.19550  0.54739  0.97661  1.0000
  H   H337      1.0  0.13224  0.55514  0.83392  1.0000
  C   C211      1.0  0.14654  0.60619  0.79653  1.0000
  C   C212      1.0  0.22480  0.54282  0.82719  1.0000
  C   C213      1.0  0.17292  0.60008  0.78613  1.0000
  C   C214      1.0  0.12487  0.58232  0.01408  1.0000
  S   S95       1.0  0.13723  0.61197  0.83009  1.0000
  H   H338      1.0  0.18836  0.59810  0.79885  1.0000
  H   H339      1.0  0.21721  0.56262  0.83087  1.0000
  H   H340      1.0  0.18964  0.55184  0.94269  1.0000
  H   H341      1.0  0.21322  0.54853  0.78786  1.0000
  C   C215      1.0  0.25310  0.64564  0.92367  1.0000
  H   H342      1.0  0.23322  0.64189  0.93191  1.0000
  H   H343      1.0  0.22096  0.53607  0.95152  1.0000
  C   C216      1.0  0.12680  0.60853  0.77964  1.0000
  H   H344      1.0  0.15796  0.54371  0.80930  1.0000
  C   C217      1.0  0.14754  0.58814  0.99689  1.0000
  C   C218      1.0  0.19929  0.53794  0.95794  1.0000
  H   H345      1.0  0.14961  0.52904  0.95395  1.0000
  H   H346      1.0  0.26899  0.57866  0.85458  1.0000
  Fe  Fe49      1.0  0.39666  0.12922  0.19187  1.0000
  S   S96       1.0  0.40582  0.13219  0.14776  1.0000
  S   S97       1.0  0.35523  0.12694  0.21187  1.0000
  Fe  Fe50      1.0  0.45353  0.13005  0.19972  1.0000
  S   S98       1.0  0.46751  0.13246  0.15613  1.0000
  S   S99       1.0  0.48139  0.12655  0.23044  1.0000
  Fe  Fe51      1.0  0.43210  0.16318  0.15237  1.0000
  S   S100      1.0  0.43097  0.20222  0.12469  1.0000
  Fe  Fe52      1.0  0.43989  0.10130  0.15615  1.0000
  S   S101      1.0  0.44950  0.06448  0.13443  1.0000
  S   S102      1.0  0.41986  0.16238  0.19608  1.0000
  S   S103      1.0  0.42905  0.09673  0.20004  1.0000
  Fe  Fe53      1.0  0.40735  0.41681  0.13217  1.0000
  S   S104      1.0  0.37975  0.41797  0.10173  1.0000
  S   S105      1.0  0.40644  0.45354  0.15367  1.0000
  Fe  Fe54      1.0  0.42462  0.35600  0.13029  1.0000
  S   S106      1.0  0.39867  0.35366  0.09919  1.0000
  S   S107      1.0  0.44671  0.31810  0.14980  1.0000
  Fe  Fe55      1.0  0.41259  0.39269  0.08063  1.0000
  Fe  Fe56      1.0  0.36827  0.37910  0.12283  1.0000
  S   S108      1.0  0.32603  0.37017  0.13281  1.0000
  S   S109      1.0  0.44148  0.39349  0.10976  1.0000
  S   S110      1.0  0.39305  0.37934  0.15544  1.0000
  S   S111      1.0  0.42165  0.40473  0.03680  1.0000
  H   H347      1.0  0.27631  0.43543  0.04531  1.0000
  H   H348      1.0  0.50350  0.27399  0.17644  1.0000
  H   H349      1.0  0.29190  0.44675  0.07026  1.0000
  H   H350      1.0  0.34377  0.35777  0.07892  1.0000
  H   H351      1.0  0.31832  0.35247  0.04240  1.0000
  H   H352      1.0  0.31963  0.05403  0.14391  1.0000
  H   H353      1.0  0.37896  0.04151  0.14067  1.0000
  C   C219      1.0  0.29471  0.43278  0.05499  1.0000
  C   C220      1.0  0.49964  0.20215  0.21250  1.0000
  C   C221      1.0  0.43588  0.23405  0.13229  1.0000
  C   C222      1.0  0.44349  0.23788  0.15657  1.0000
  C   C223      1.0  0.44680  0.26367  0.16169  1.0000
  C   C224      1.0  0.44227  0.28591  0.14277  1.0000
  C   C225      1.0  0.43471  0.28203  0.11854  1.0000
  C   C226      1.0  0.43164  0.25628  0.11333  1.0000
  H   H354      1.0  0.44692  0.22098  0.17133  1.0000
  H   H355      1.0  0.45268  0.26639  0.18050  1.0000
  H   H356      1.0  0.43166  0.29881  0.10358  1.0000
  H   H357      1.0  0.42594  0.25354  0.09443  1.0000
  H   H358      1.0  0.42385  0.04041  0.18540  1.0000
  H   H359      1.0  0.34107  0.44609  0.06463  1.0000
  H   H360      1.0  0.46762  0.18062  0.20758  1.0000
  C   C227      1.0  0.51661  0.27316  0.15732  1.0000
  H   H361      1.0  0.31295  0.47955  0.03765  1.0000
  H   H362      1.0  0.29540  0.52334  0.16259  1.0000
  C   C228      1.0  0.48640  0.17939  0.21509  1.0000
  C   C229      1.0  0.32242  0.35980  0.08206  1.0000
  C   C230      1.0  0.43428  0.51848  0.10730  1.0000
  C   C231      1.0  0.35609  0.11052  0.24407  1.0000
  C   C232      1.0  0.37302  0.08714  0.24859  1.0000
  C   C233      1.0  0.42691  0.49263  0.11557  1.0000
  N   N22       1.0  0.31814  0.43746  0.03544  1.0000
  H   H363      1.0  0.43473  0.11098  0.26749  1.0000
  H   H364      1.0  0.38464  0.07837  0.23222  1.0000
  H   H365      1.0  0.27093  0.37178  0.12969  1.0000
  N   N23       1.0  0.35020  0.06861  0.16084  1.0000
  H   H366      1.0  0.50344  0.32268  0.16981  1.0000
  C   C234      1.0  0.36219  0.06390  0.18587  1.0000
  C   C235      1.0  0.51697  0.32081  0.15108  1.0000
  C   C236      1.0  0.32914  0.05101  0.16248  1.0000
  C   C237      1.0  0.37066  0.06280  0.13853  1.0000
  H   H367      1.0  0.50356  0.27422  0.14149  1.0000
  H   H368      1.0  0.37888  0.07608  0.18488  1.0000
  H   H369      1.0  0.36993  0.04269  0.19042  1.0000
  C   C238      1.0  0.34214  0.43268  0.04906  1.0000
  H   H370      1.0  0.29652  0.41234  0.06564  1.0000
  C   C239      1.0  0.37486  0.07483  0.27446  1.0000
  C   C240      1.0  0.28139  0.36769  0.11063  1.0000
  C   C241      1.0  0.40733  0.50668  0.15764  1.0000
  H   H371      1.0  0.38748  0.07493  0.13729  1.0000
  H   H372      1.0  0.31799  0.31683  0.15713  1.0000
  H   H373      1.0  0.40055  0.12423  0.26847  1.0000
  H   H374      1.0  0.35424  0.11042  0.15543  1.0000
  H   H375      1.0  0.32334  0.29240  0.18502  1.0000
  H   H376      1.0  0.50421  0.32317  0.13483  1.0000
  H   H377      1.0  0.38551  0.36390  0.04778  1.0000
  C   C242      1.0  0.49759  0.15517  0.22723  1.0000
  H   H378      1.0  0.31582  0.28249  0.15476  1.0000
  H   H379      1.0  0.42586  0.14358  0.25137  1.0000
  H   H380      1.0  0.33720  0.02965  0.16564  1.0000
  N   N24       1.0  0.35540  0.29265  0.15330  1.0000
  C   C243      1.0  0.32687  0.29617  0.16302  1.0000
  C   C244      1.0  0.35909  0.29835  0.12408  1.0000
  C   C245      1.0  0.36642  0.26502  0.16123  1.0000
  C   C246      1.0  0.36922  0.31115  0.16485  1.0000
  C   C247      1.0  0.33882  0.09669  0.15660  1.0000
  H   H381      1.0  0.32953  0.10113  0.13792  1.0000
  H   H382      1.0  0.38036  0.29583  0.11602  1.0000
  H   H383      1.0  0.34877  0.28493  0.11466  1.0000
  H   H384      1.0  0.35121  0.31912  0.11747  1.0000
  H   H385      1.0  0.38802  0.26199  0.15470  1.0000
  H   H386      1.0  0.35705  0.25047  0.15228  1.0000
  H   H387      1.0  0.36360  0.25983  0.18313  1.0000
  H   H388      1.0  0.36091  0.33214  0.15992  1.0000
  H   H389      1.0  0.39061  0.30980  0.15724  1.0000
  H   H390      1.0  0.36756  0.30700  0.18682  1.0000
  H   H391      1.0  0.32671  0.51708  0.17535  1.0000
  H   H392      1.0  0.34759  0.06931  0.20296  1.0000
  H   H393      1.0  0.43197  0.47733  0.10252  1.0000
  C   C248      1.0  0.41382  0.48641  0.14104  1.0000
  C   C249      1.0  0.30804  0.35678  0.06142  1.0000
  H   H394      1.0  0.32735  0.13931  0.26204  1.0000
  H   H395      1.0  0.39740  0.50206  0.17744  1.0000
  H   H396      1.0  0.49102  0.22080  0.20292  1.0000
  H   H397      1.0  0.32548  0.52100  0.14025  1.0000
  C   C250      1.0  0.43540  0.03414  0.14459  1.0000
  C   C251      1.0  0.30902  0.36560  0.10662  1.0000
  H   H398      1.0  0.31345  0.05474  0.17922  1.0000
  C   C252      1.0  0.34057  0.12129  0.26548  1.0000
  H   H399      1.0  0.49070  0.49125  0.11354  1.0000
  C   C253      1.0  0.28034  0.36059  0.06501  1.0000
  H   H400      1.0  0.36033  0.43591  0.03498  1.0000
  H   H401      1.0  0.34490  0.41185  0.05889  1.0000
  H   H402      1.0  0.32357  0.10185  0.17328  1.0000
  H   H403      1.0  0.44478  0.52280  0.08774  1.0000
  H   H404      1.0  0.36256  0.06701  0.11919  1.0000
  C   C254      1.0  0.42080  0.12938  0.26922  1.0000
  C   C255      1.0  0.51218  0.49282  0.11328  1.0000
  H   H405      1.0  0.48885  0.02886  0.16357  1.0000
  H   H406      1.0  0.51739  0.22383  0.27006  1.0000
  C   C256      1.0  0.42392  0.02722  0.17061  1.0000
  H   H407      1.0  0.50996  0.52200  0.15420  1.0000
  H   H408      1.0  0.45436  0.16345  0.27614  1.0000
  H   H409      1.0  0.51872  0.48061  0.13136  1.0000
  N   N25       1.0  0.51742  0.52080  0.11204  1.0000
  H   H410      1.0  0.38833  0.05702  0.27780  1.0000
  Fe  Fe57      1.0  0.31578  0.14443  0.38077  1.0000
  S   S112      1.0  0.31761  0.10000  0.38882  1.0000
  C   C257      1.0  0.41665  0.12096  0.31690  1.0000
  Fe  Fe58      1.0  0.37705  0.14354  0.37861  1.0000
  S   S113      1.0  0.38294  0.09919  0.38676  1.0000
  S   S114      1.0  0.40986  0.17086  0.36905  1.0000
  Fe  Fe59      1.0  0.35337  0.10000  0.35823  1.0000
  C   C258      1.0  0.48864  0.15084  0.37983  1.0000
  Fe  Fe60      1.0  0.34686  0.10351  0.41648  1.0000
  S   S115      1.0  0.34411  0.08175  0.45761  1.0000
  S   S116      1.0  0.34962  0.14424  0.34776  1.0000
  S   S117      1.0  0.34286  0.14807  0.41087  1.0000
  C   C259      1.0  0.44386  0.17117  0.37254  1.0000
  C   C260      1.0  0.45344  0.19603  0.36821  1.0000
  C   C261      1.0  0.46157  0.14839  0.37838  1.0000
  H   H411      1.0  0.44010  0.21375  0.36375  1.0000
  H   H412      1.0  0.45451  0.12901  0.38166  1.0000
  H   H413      1.0  0.38245  0.15962  0.29542  1.0000
  H   H414      1.0  0.34450  0.04765  0.41625  1.0000
  S   S118      1.0  0.36397  0.07121  0.32813  1.0000
  H   H415      1.0  0.36533  0.15172  0.50948  1.0000
  C   C262      1.0  0.47993  0.19848  0.37010  1.0000
  H   H416      1.0  0.43084  0.10268  0.31614  1.0000
  H   H417      1.0  0.32521  0.04476  0.50070  1.0000
  N   N26       1.0  0.42244  0.14087  0.29376  1.0000
  C   C263      1.0  0.33565  0.04929  0.45837  1.0000
  H   H418      1.0  0.33064  0.11751  0.30794  1.0000
  C   C264      1.0  0.33740  0.03716  0.43513  1.0000
  C   C265      1.0  0.40371  0.09493  0.49538  1.0000
  H   H419      1.0  0.40328  0.17368  0.31393  1.0000
  C   C266      1.0  0.49784  0.17610  0.37582  1.0000
  C   C267      1.0  0.40292  0.16464  0.29544  1.0000
  C   C268      1.0  0.37338  0.13493  0.49788  1.0000
  H   H420      1.0  0.29789  0.13107  0.45286  1.0000
  C   C269      1.0  0.44931  0.14848  0.29343  1.0000
  H   H421      1.0  0.42518  0.14066  0.49379  1.0000
  H   H422      1.0  0.50209  0.23382  0.30121  1.0000
  N   N27       1.0  0.39385  0.11710  0.51115  1.0000
  H   H423      1.0  0.51808  0.18893  0.32160  1.0000
  C   C270      1.0  0.34264  0.10913  0.29145  1.0000
  H   H424      1.0  0.39648  0.11491  0.31778  1.0000
  H   H425      1.0  0.38149  0.14362  0.47774  1.0000
  H   H426      1.0  0.46454  0.13104  0.29180  1.0000
  H   H427      1.0  0.50225  0.13335  0.38427  1.0000
  H   H428      1.0  0.38746  0.08317  0.49312  1.0000
  C   C271      1.0  0.35991  0.08598  0.29592  1.0000
  S   S119      1.0  0.27805  0.17323  0.37943  1.0000
  H   H429      1.0  0.40691  0.18013  0.27838  1.0000
  H   H430      1.0  0.48648  0.21808  0.36724  1.0000
  H   H431      1.0  0.41775  0.12892  0.33580  1.0000
  C   C272      1.0  0.32663  0.03553  0.48272  1.0000
  H   H432      1.0  0.35656  0.12406  0.49537  1.0000
  H   H433      1.0  0.45117  0.15712  0.31182  1.0000
  C   C273      1.0  0.41599  0.13215  0.51355  1.0000
  H   H434      1.0  0.40490  0.02992  0.33576  1.0000
  H   H435      1.0  0.41920  0.08109  0.50491  1.0000
  H   H436      1.0  0.41251  0.10232  0.47507  1.0000
  C   C274      1.0  0.28211  0.12705  0.46959  1.0000
  H   H437      1.0  0.28480  0.10533  0.47635  1.0000
  H   H438      1.0  0.28558  0.13773  0.48608  1.0000
  H   H439      1.0  0.43182  0.11923  0.52344  1.0000
  H   H440      1.0  0.40928  0.14896  0.52549  1.0000
  C   C275      1.0  0.38233  0.10635  0.53786  1.0000
  Fe  Fe61      1.0  0.47166  0.14451  0.60554  1.0000
  S   S120      1.0  0.46836  0.10095  0.61713  1.0000
  C   C276      1.0  0.50031  0.16885  0.76822  1.0000
  Fe  Fe62      1.0  0.41474  0.15322  0.58888  1.0000
  S   S121      1.0  0.40859  0.11057  0.60009  1.0000
  H   H441      1.0  0.36129  0.03045  0.62025  1.0000
  Fe  Fe63      1.0  0.42763  0.11348  0.63589  1.0000
  S   S122      1.0  0.41281  0.09128  0.67477  1.0000
  Fe  Fe64      1.0  0.44967  0.10226  0.58008  1.0000
  S   S123      1.0  0.45409  0.06927  0.55437  1.0000
  S   S124      1.0  0.43114  0.15707  0.62669  1.0000
  S   S125      1.0  0.45554  0.14497  0.56638  1.0000
  H   H442      1.0  0.28269  0.28851  0.60481  1.0000
  H   H443      1.0  0.36550  0.04293  0.68919  1.0000
  C   C277      1.0  0.33987  0.15420  0.60323  1.0000
  C   C278      1.0  0.31319  0.14972  0.61084  1.0000
  H   H444      1.0  0.31799  0.25017  0.60088  1.0000
  H   H445      1.0  0.34453  0.06268  0.61051  1.0000
  H   H446      1.0  0.45168  0.10796  0.73453  1.0000
  C   C279      1.0  0.39900  0.11077  0.69984  1.0000
  C   C280      1.0  0.39219  0.13817  0.69429  1.0000
  C   C281      1.0  0.38273  0.15348  0.71508  1.0000
  C   C282      1.0  0.38040  0.14139  0.74137  1.0000
  C   C283      1.0  0.38635  0.11389  0.74671  1.0000
  C   C284      1.0  0.39554  0.09860  0.72599  1.0000
  H   H447      1.0  0.39426  0.14760  0.67409  1.0000
  H   H448      1.0  0.37799  0.17474  0.71086  1.0000
  H   H449      1.0  0.28196  0.23228  0.56608  1.0000
  H   H450      1.0  0.40047  0.07736  0.73036  1.0000
  H   H451      1.0  0.33289  0.19340  0.54505  1.0000
  C   C285      1.0  0.32749  0.18114  0.56345  1.0000
  H   H452      1.0  0.36536  0.09513  0.53683  1.0000
  C   C286      1.0  0.30085  0.17639  0.57094  1.0000
  S   S126      1.0  0.37223  0.16074  0.76765  1.0000
  H   H453      1.0  0.35469  0.14585  0.61600  1.0000
  H   H454      1.0  0.30762  0.13794  0.62947  1.0000
  C   C287      1.0  0.29349  0.16085  0.59484  1.0000
  C   C288      1.0  0.47144  0.11634  0.68355  1.0000
  H   H455      1.0  0.50496  0.20979  0.75320  1.0000
  C   C289      1.0  0.27633  0.25147  0.57439  1.0000
  C   C290      1.0  0.34715  0.17012  0.57955  1.0000
  H   H456      1.0  0.37506  0.12258  0.55042  1.0000
  N   N28       1.0  0.37023  0.37722  0.77576  1.0000
  H   H457      1.0  0.48749  0.11611  0.66658  1.0000
  C   C291      1.0  0.51426  0.19123  0.76231  1.0000
  C   C292      1.0  0.34825  0.08383  0.65481  1.0000
  S   S127      1.0  0.38032  0.17728  0.56974  1.0000
  H   H458      1.0  0.46707  0.16821  0.68857  1.0000
  N   N29       1.0  0.27612  0.24797  0.60350  1.0000
  H   H459      1.0  0.44534  0.05663  0.61082  1.0000
  C   C293      1.0  0.37090  0.04065  0.66780  1.0000
  N   N30       1.0  0.47899  0.12840  0.70559  1.0000
  H   H460      1.0  0.34301  0.08714  0.67598  1.0000
  H   H461      1.0  0.49033  0.16583  0.71224  1.0000
  N   N31       1.0  0.35085  0.05526  0.65158  1.0000
  H   H462      1.0  0.30875  0.21714  0.60330  1.0000
  H   H463      1.0  0.38369  0.10433  0.76687  1.0000
  C   C294      1.0  0.43778  0.04175  0.60190  1.0000
  H   H464      1.0  0.36392  0.40731  0.74301  1.0000
  H   H465      1.0  0.46690  0.09551  0.68985  1.0000
  C   C295      1.0  0.45704  0.12842  0.72750  1.0000
  H   H466      1.0  0.50104  0.15664  0.67950  1.0000
  H   H467      1.0  0.28604  0.18465  0.55817  1.0000
  H   H468      1.0  0.45352  0.12764  0.67595  1.0000
  H   H469      1.0  0.46233  0.13651  0.74487  1.0000
  C   C296      1.0  0.37842  0.39008  0.74881  1.0000
  H   H470      1.0  0.36713  0.09255  0.64773  1.0000
  H   H471      1.0  0.39237  0.33960  0.76878  1.0000
  C   C297      1.0  0.32516  0.04469  0.66031  1.0000
  H   H472      1.0  0.33280  0.09537  0.64339  1.0000
  C   C298      1.0  0.34414  0.36755  0.77662  1.0000
  H   H473      1.0  0.39802  0.39765  0.74756  1.0000
  H   H474      1.0  0.30953  0.05520  0.64845  1.0000
  C   C299      1.0  0.48462  0.15600  0.69613  1.0000
  C   C300      1.0  0.44033  0.04258  0.57436  1.0000
  H   H475      1.0  0.39724  0.09256  0.54826  1.0000
  H   H476      1.0  0.39047  0.04817  0.66173  1.0000
  H   H477      1.0  0.30339  0.23438  0.63203  1.0000
  S   S128      1.0  0.50854  0.15476  0.62109  1.0000
  H   H478      1.0  0.37858  0.05936  0.61627  1.0000
  H   H479      1.0  0.43895  0.14065  0.72129  1.0000
  H   H480      1.0  0.31835  0.04700  0.68152  1.0000
  C   C301      1.0  0.30273  0.23699  0.61023  1.0000
  C   C302      1.0  0.35912  0.05182  0.62338  1.0000
  H   H481      1.0  0.29058  0.26547  0.56447  1.0000
  H   H482      1.0  0.38000  0.37598  0.73381  1.0000
  H   H483      1.0  0.49894  0.09221  0.72335  1.0000
  C   C303      1.0  0.50285  0.11283  0.71504  1.0000
  H   H484      1.0  0.50969  0.12193  0.73103  1.0000
  H   H485      1.0  0.48030  0.17018  0.76356  1.0000
  H   H486      1.0  0.32849  0.38424  0.77249  1.0000
  H   H487      1.0  0.34445  0.35342  0.76188  1.0000
  H   H488      1.0  0.51203  0.02623  0.54587  1.0000
  Fe  Fe65      1.0  0.41170  0.10320  0.84548  1.0000
  C   C304      1.0  0.43218  0.49083  0.90320  1.0000
  S   S129      1.0  0.40182  0.06725  0.87480  1.0000
  Fe  Fe66      1.0  0.41953  0.16284  0.84444  1.0000
  S   S130      1.0  0.42249  0.10413  0.80160  1.0000
  S   S131      1.0  0.41524  0.19666  0.87010  1.0000
  C   C305      1.0  0.48600  0.21631  0.87170  1.0000
  C   C306      1.0  0.34732  0.21298  0.85202  1.0000
  H   H489      1.0  0.28217  0.32928  0.93048  1.0000
  C   C307      1.0  0.29990  0.37498  0.93685  1.0000
  S   S132      1.0  0.38432  0.14138  0.84254  1.0000
  S   S133      1.0  0.44581  0.12441  0.85169  1.0000
  H   H490      1.0  0.50915  0.49946  0.83873  1.0000
  C   C308      1.0  0.32807  0.19508  0.81873  1.0000
  Fe  Fe67      1.0  0.40509  0.35343  0.86776  1.0000
  S   S134      1.0  0.36212  0.35566  0.88399  1.0000
  S   S135      1.0  0.42111  0.32164  0.84046  1.0000
  Fe  Fe68      1.0  0.41198  0.40641  0.88866  1.0000
  S   S136      1.0  0.36946  0.41181  0.90563  1.0000
  S   S137      1.0  0.43682  0.43743  0.89725  1.0000
  Fe  Fe69      1.0  0.37532  0.36842  0.91977  1.0000
  S   S138      1.0  0.35975  0.35436  0.96164  1.0000
  Fe  Fe70      1.0  0.36098  0.39883  0.86824  1.0000
  S   S139      1.0  0.32960  0.42380  0.84697  1.0000
  S   S140      1.0  0.41863  0.36307  0.90513  1.0000
  S   S141      1.0  0.40318  0.39649  0.84965  1.0000
  H   H491      1.0  0.31741  0.36890  0.85500  1.0000
  H   H492      1.0  0.32851  0.21314  0.86566  1.0000
  C   C309      1.0  0.40307  0.40219  0.99020  1.0000
  C   C310      1.0  0.39002  0.39062  0.97324  1.0000
  C   C311      1.0  0.37515  0.36954  0.98315  1.0000
  C   C312      1.0  0.37299  0.36039  0.01024  1.0000
  H   H493      1.0  0.27971  0.33173  0.99016  1.0000
  H   H494      1.0  0.41458  0.41844  0.98231  1.0000
  H   H495      1.0  0.39198  0.39782  0.95242  1.0000
  C   C313      1.0  0.36836  0.39672  0.79486  1.0000
  C   C314      1.0  0.30630  0.37995  0.83996  1.0000
  H   H496      1.0  0.46280  0.42362  0.98338  1.0000
  C   C315      1.0  0.41574  0.23144  0.86087  1.0000
  C   C316      1.0  0.40869  0.24854  0.88057  1.0000
  C   C317      1.0  0.40971  0.27619  0.87454  1.0000
  C   C318      1.0  0.41822  0.28707  0.84873  1.0000
  C   C319      1.0  0.42514  0.26997  0.82894  1.0000
  C   C320      1.0  0.42373  0.24233  0.83490  1.0000
  H   H497      1.0  0.40258  0.24035  0.90076  1.0000
  H   H498      1.0  0.40441  0.28903  0.89000  1.0000
  H   H499      1.0  0.43187  0.27816  0.80893  1.0000
  H   H500      1.0  0.42930  0.22949  0.81950  1.0000
  C   C321      1.0  0.49636  0.39655  0.92981  1.0000
  H   H501      1.0  0.51381  0.36660  0.97257  1.0000
  H   H502      1.0  0.49786  0.22623  0.88324  1.0000
  H   H503      1.0  0.40090  0.46426  0.86049  1.0000
  C   C322      1.0  0.28912  0.36724  0.82806  1.0000
  H   H504      1.0  0.30370  0.35475  0.98767  1.0000
  C   C323      1.0  0.51243  0.14487  0.77995  1.0000
  H   H505      1.0  0.48740  0.43745  0.95876  1.0000
  H   H506      1.0  0.33790  0.42237  0.99986  1.0000
  H   H507      1.0  0.48840  0.47327  0.87919  1.0000
  H   H508      1.0  0.39015  0.02788  0.91710  1.0000
  H   H509      1.0  0.29554  0.44232  0.80763  1.0000
  H   H510      1.0  0.49561  0.38651  0.99684  1.0000
  C   C324      1.0  0.31517  0.46525  0.02273  1.0000
  H   H511      1.0  0.30718  0.24355  0.83062  1.0000
  H   H512      1.0  0.30948  0.32843  0.96716  1.0000
  H   H513      1.0  0.51221  0.16737  0.87910  1.0000
  H   H514      1.0  0.45671  0.43080  0.94930  1.0000
  C   C325      1.0  0.36810  0.21631  0.80675  1.0000
  H   H515      1.0  0.31557  0.36106  0.92724  1.0000
  C   C326      1.0  0.42420  0.47126  0.89011  1.0000
  C   C327      1.0  0.30838  0.40712  0.83278  1.0000
  H   H516      1.0  0.49886  0.17631  0.82273  1.0000
  Fe  Fe71      1.0  0.39820  0.14399  0.79902  1.0000
  N   N32       1.0  0.48406  0.39615  0.95764  1.0000
  N   N33       1.0  0.34253  0.21673  0.82391  1.0000
  H   H517      1.0  0.35845  0.22884  0.85654  1.0000
  H   H518      1.0  0.40877  0.03066  0.83265  1.0000
  C   C328      1.0  0.40720  0.47908  0.87073  1.0000
  Fe  Fe72      1.0  0.45464  0.12757  0.80747  1.0000
  H   H519      1.0  0.32443  0.19713  0.79759  1.0000
  S   S142      1.0  0.43173  0.16761  0.80067  1.0000
  H   H520      1.0  0.50358  0.23589  0.82164  1.0000
  H   H521      1.0  0.49734  0.47678  0.91111  1.0000
  H   H522      1.0  0.32283  0.24608  0.79698  1.0000
  H   H523      1.0  0.51061  0.46902  0.97934  1.0000
  H   H524      1.0  0.38406  0.34431  0.80310  1.0000
  C   C329      1.0  0.40206  0.39220  0.01700  1.0000
  C   C330      1.0  0.48653  0.18811  0.83751  1.0000
  H   H525      1.0  0.35934  0.19373  0.85715  1.0000
  H   H526      1.0  0.47136  0.35745  0.95853  1.0000
  H   H527      1.0  0.47400  0.20270  0.88594  1.0000
  N   N34       1.0  0.28036  0.36036  0.95516  1.0000
  C   C331      1.0  0.38648  0.37169  0.02716  1.0000
  C   C332      1.0  0.42343  0.51798  0.89674  1.0000
  H   H528      1.0  0.51197  0.41028  0.92520  1.0000
  H   H529      1.0  0.44729  0.38476  0.94985  1.0000
  H   H530      1.0  0.50574  0.37651  0.92548  1.0000
  C   C333      1.0  0.47220  0.42321  0.96249  1.0000
  H   H531      1.0  0.38061  0.19725  0.81105  1.0000
  H   H532      1.0  0.33703  0.25934  0.82185  1.0000
  H   H533      1.0  0.30864  0.19465  0.83132  1.0000
  H   H534      1.0  0.44503  0.48497  0.91847  1.0000
  C   C334      1.0  0.50480  0.47740  0.88965  1.0000
  H   H535      1.0  0.33779  0.35708  0.79651  1.0000
  H   H536      1.0  0.31010  0.38749  0.94750  1.0000
  C   C335      1.0  0.29383  0.42135  0.81337  1.0000
  C   C336      1.0  0.51740  0.22094  0.83224  1.0000
  H   H537      1.0  0.45404  0.37660  0.98368  1.0000
  H   H538      1.0  0.28686  0.34644  0.83408  1.0000
  H   H539      1.0  0.33952  0.17528  0.82272  1.0000
  H   H540      1.0  0.47477  0.17420  0.85158  1.0000
  N   N35       1.0  0.50307  0.20186  0.85147  1.0000
  C   C337      1.0  0.46328  0.37792  0.96265  1.0000
  H   H541      1.0  0.29053  0.38821  0.92082  1.0000
  H   H542      1.0  0.47185  0.23198  0.86245  1.0000
  S   S143      1.0  0.49533  0.11685  0.78776  1.0000
  C   C338      1.0  0.27414  0.38173  0.80902  1.0000
  H   H543      1.0  0.33260  0.46966  0.00804  1.0000
  C   C339      1.0  0.32669  0.24258  0.81808  1.0000
  H   H544      1.0  0.45649  0.03708  0.84864  1.0000
  H   H545      1.0  0.47233  0.20245  0.82682  1.0000
  H   H546      1.0  0.37944  0.23259  0.80975  1.0000
  C   C340      1.0  0.39899  0.50620  0.86384  1.0000
  H   H547      1.0  0.29722  0.46943  0.01224  1.0000
  H   H548      1.0  0.36285  0.38743  0.81546  1.0000
  C   C341      1.0  0.49250  0.52474  0.88164  1.0000
  H   H549      1.0  0.40971  0.36125  0.78341  1.0000
  H   H550      1.0  0.38642  0.51200  0.84829  1.0000
  H   H551      1.0  0.36538  0.21824  0.78537  1.0000
  H   H552      1.0  0.51615  0.48489  0.02141  1.0000
  H   H553      1.0  0.48150  0.40327  0.91574  1.0000
  H   H554      1.0  0.47887  0.05181  0.86471  1.0000
  C   C342      1.0  0.29386  0.34300  0.97588  1.0000
  C   C343      1.0  0.39963  0.03277  0.87469  1.0000
  C   C344      1.0  0.27690  0.40865  0.80137  1.0000
  C   C345      1.0  0.38994  0.35461  0.78295  1.0000
  H   H555      1.0  0.36174  0.34390  0.01796  1.0000
  H   H556      1.0  0.38746  0.40499  0.79443  1.0000
  C   C346      1.0  0.50434  0.38692  0.97568  1.0000
  N   N36       1.0  0.51447  0.50325  0.87888  1.0000
  H   H557      1.0  0.35311  0.41378  0.79073  1.0000
  H   H558      1.0  0.30251  0.42181  0.00471  1.0000
  C   C347      1.0  0.32050  0.41920  0.01504  1.0000
  H   H559      1.0  0.45282  0.03486  0.88408  1.0000
  H   H560      1.0  0.47618  0.52200  0.87038  1.0000
  H   H561      1.0  0.32322  0.39811  0.02392  1.0000
  C   C348      1.0  0.46766  0.03430  0.86610  1.0000
  H   H562      1.0  0.26939  0.39190  0.97944  1.0000
  H   H563      1.0  0.51742  0.02610  0.84186  1.0000
  H   H564      1.0  0.48400  0.52534  0.90274  1.0000
  Fe  Fe73      1.0  0.40947  0.91648  0.17159  1.0000
  S   S144      1.0  0.44056  0.90919  0.19895  1.0000
  S   S145      1.0  0.39142  0.95969  0.16509  1.0000
  Fe  Fe74      1.0  0.41173  0.85594  0.16649  1.0000
  S   S146      1.0  0.44314  0.84533  0.19345  1.0000
  S   S147      1.0  0.39390  0.82246  0.15203  1.0000
  Fe  Fe75      1.0  0.41917  0.87477  0.21839  1.0000
  C   C349      1.0  0.30321  0.57162  0.13604  1.0000
  Fe  Fe76      1.0  0.46102  0.88074  0.17107  1.0000
  S   S148      1.0  0.50422  0.87822  0.15581  1.0000
  S   S149      1.0  0.38630  0.88344  0.19312  1.0000
  S   S150      1.0  0.43129  0.88999  0.14198  1.0000
  H   H565      1.0  0.31383  0.55612  0.20049  1.0000
  Fe  Fe77      1.0  0.42113  0.66796  0.13899  1.0000
  S   S151      1.0  0.38148  0.68040  0.12538  1.0000
  S   S152      1.0  0.44213  0.70061  0.15113  1.0000
  Fe  Fe78      1.0  0.42199  0.61017  0.12367  1.0000
  S   S153      1.0  0.38262  0.62028  0.10859  1.0000
  S   S154      1.0  0.44236  0.56924  0.11493  1.0000
  Fe  Fe79      1.0  0.39768  0.65879  0.09065  1.0000
  Fe  Fe80      1.0  0.37146  0.64062  0.14516  1.0000
  S   S155      1.0  0.33320  0.63602  0.17083  1.0000
  S   S156      1.0  0.43800  0.64787  0.10289  1.0000
  S   S157      1.0  0.41003  0.62878  0.16170  1.0000
  C   C350      1.0  0.42841  0.53855  0.12417  1.0000
  C   C351      1.0  0.50980  0.90532  0.19684  1.0000
  H   H566      1.0  0.39266  0.73791  0.05654  1.0000
  H   H567      1.0  0.41025  0.54757  0.16269  1.0000
  C   C352      1.0  0.41196  0.00336  0.17739  1.0000
  C   C353      1.0  0.42047  0.76540  0.08230  1.0000
  N   N37       1.0  0.43101  0.74529  0.06427  1.0000
  H   H568      1.0  0.31236  0.56524  0.11668  1.0000
  C   C354      1.0  0.41168  0.74408  0.04574  1.0000
  H   H569      1.0  0.42194  0.62656  0.05341  1.0000
  H   H570      1.0  0.47115  0.75371  0.06261  1.0000
  C   C355      1.0  0.43566  0.01652  0.12580  1.0000
  C   C356      1.0  0.41443  0.53260  0.14924  1.0000
  C   C357      1.0  0.40789  0.78878  0.15193  1.0000
  C   C358      1.0  0.39150  0.76941  0.14950  1.0000
  C   C359      1.0  0.40163  0.74243  0.14937  1.0000
  C   C360      1.0  0.42840  0.73441  0.15152  1.0000
  C   C361      1.0  0.44481  0.75380  0.15401  1.0000
  C   C362      1.0  0.43468  0.78083  0.15410  1.0000
  H   H571      1.0  0.37075  0.77527  0.14781  1.0000
  H   H572      1.0  0.38859  0.72786  0.14783  1.0000
  H   H573      1.0  0.46554  0.74787  0.15573  1.0000
  H   H574      1.0  0.44761  0.79550  0.15581  1.0000
  H   H575      1.0  0.36291  0.77765  0.26662  1.0000
  H   H576      1.0  0.35563  0.55629  0.13528  1.0000
  C   C363      1.0  0.50285  0.53223  0.13552  1.0000
  C   C364      1.0  0.42451  0.63554  0.03301  1.0000
  H   H577      1.0  0.30446  0.58817  0.18324  1.0000
  H   H578      1.0  0.43425  0.76640  0.09701  1.0000
  H   H579      1.0  0.37520  0.90917  0.24653  1.0000
  C   C365      1.0  0.28964  0.65707  0.10987  1.0000
  H   H580      1.0  0.40718  0.76052  0.20631  1.0000
  H   H581      1.0  0.51227  0.55731  0.08597  1.0000
  H   H582      1.0  0.43078  0.78291  0.20872  1.0000
  C   C366      1.0  0.43567  0.71902  0.07994  1.0000
  H   H583      1.0  0.28284  0.56253  0.18690  1.0000
  H   H584      1.0  0.34442  0.93977  0.27321  1.0000
  H   H585      1.0  0.27749  0.64101  0.18642  1.0000
  S   S158      1.0  0.41236  0.86370  0.26250  1.0000
  H   H586      1.0  0.42330  0.97990  0.11758  1.0000
  H   H587      1.0  0.44415  0.02173  0.10553  1.0000
  C   C367      1.0  0.45620  0.75259  0.04913  1.0000
  C   C368      1.0  0.37495  0.90712  0.26782  1.0000
  H   H588      1.0  0.45060  0.71889  0.09378  1.0000
  H   H589      1.0  0.51892  0.52772  0.06957  1.0000
  H   H590      1.0  0.34649  0.58476  0.15292  1.0000
  H   H591      1.0  0.42434  0.81043  0.24550  1.0000
  H   H592      1.0  0.35594  0.55297  0.17048  1.0000
  H   H593      1.0  0.44272  0.70312  0.06697  1.0000
  H   H594      1.0  0.30355  0.59352  0.13482  1.0000
  H   H595      1.0  0.45342  0.77225  0.03692  1.0000
  H   H596      1.0  0.36669  0.62723  0.05198  1.0000
  H   H597      1.0  0.47972  0.98478  0.15415  1.0000
  H   H598      1.0  0.33102  0.65262  0.11480  1.0000
  C   C369      1.0  0.30673  0.64561  0.15228  1.0000
  H   H599      1.0  0.39505  0.82017  0.20987  1.0000
  C   C370      1.0  0.30398  0.56641  0.18332  1.0000
  H   H600      1.0  0.41911  0.72925  0.03166  1.0000
  H   H601      1.0  0.49243  0.89703  0.20716  1.0000
  N   N38       1.0  0.39664  0.78493  0.23798  1.0000
  H   H602      1.0  0.51483  0.99733  0.10276  1.0000
  C   C371      1.0  0.34499  0.56310  0.15398  1.0000
  C   C372      1.0  0.38175  0.80621  0.22167  1.0000
  H   H603      1.0  0.40225  0.99859  0.19726  1.0000
  H   H604      1.0  0.37156  0.79804  0.20725  1.0000
  C   C373      1.0  0.37818  0.76686  0.25321  1.0000
  H   H605      1.0  0.50623  0.96221  0.14061  1.0000
  H   H606      1.0  0.40123  0.76064  0.09368  1.0000
  C   C374      1.0  0.28095  0.64551  0.16509  1.0000
  C   C375      1.0  0.41658  0.76979  0.22055  1.0000
  H   H607      1.0  0.51350  0.92839  0.22799  1.0000
  N   N39       1.0  0.31710  0.55739  0.15810  1.0000
  S   S159      1.0  0.39457  0.67982  0.04983  1.0000
  H   H608      1.0  0.39573  0.80896  0.26955  1.0000
  C   C376      1.0  0.31113  0.65201  0.12472  1.0000
  C   C377      1.0  0.42397  0.99265  0.13262  1.0000
  H   H609      1.0  0.51517  0.01373  0.18219  1.0000
  C   C378      1.0  0.41178  0.98601  0.15837  1.0000
  H   H610      1.0  0.29297  0.66116  0.08852  1.0000
  C   C379      1.0  0.50136  0.97850  0.15345  1.0000
  C   C380      1.0  0.51076  0.01248  0.11688  1.0000
  H   H611      1.0  0.36773  0.75760  0.23978  1.0000
  C   C381      1.0  0.41006  0.79686  0.25642  1.0000
  C   C382      1.0  0.31614  0.52845  0.15912  1.0000
  H   H612      1.0  0.41724  0.71327  0.09218  1.0000
  H   H613      1.0  0.42826  0.75355  0.23210  1.0000
  C   C383      1.0  0.50857  0.53612  0.08765  1.0000
  H   H614      1.0  0.41710  0.78561  0.07129  1.0000
  H   H615      1.0  0.36665  0.81826  0.23411  1.0000
  N   N40       1.0  0.51698  0.00105  0.14364  1.0000
  H   H616      1.0  0.33262  0.62540  0.06561  1.0000
  H   H617      1.0  0.38877  0.75046  0.26565  1.0000
  H   H618      1.0  0.50488  0.55380  0.13449  1.0000
  H   H619      1.0  0.34464  0.65704  0.05473  1.0000
  H   H620      1.0  0.48133  0.53030  0.13714  1.0000
  H   H621      1.0  0.28206  0.56784  0.13870  1.0000
  H   H622      1.0  0.50519  0.96980  0.17383  1.0000
  H   H623      1.0  0.48960  0.02051  0.11722  1.0000
  H   H624      1.0  0.46471  0.73763  0.03551  1.0000
  H   H625      1.0  0.42131  0.78145  0.26927  1.0000
  C   C384      1.0  0.34602  0.63621  0.05009  1.0000
  H   H626      1.0  0.29729  0.63917  0.03605  1.0000
  H   H627      1.0  0.48700  0.53601  0.08741  1.0000
  H   H628      1.0  0.40727  0.76365  0.03385  1.0000
  H   H629      1.0  0.32600  0.59639  0.03265  1.0000
  C   C385      1.0  0.51032  0.02161  0.16189  1.0000
  Fe  Fe81      1.0  0.33140  0.92861  0.37332  1.0000
  S   S160      1.0  0.33879  0.88489  0.38611  1.0000
  Fe  Fe82      1.0  0.31918  0.94179  0.42977  1.0000
  S   S161      1.0  0.32530  0.89879  0.44590  1.0000
  S   S162      1.0  0.30907  0.96643  0.46346  1.0000
  Fe  Fe83      1.0  0.36162  0.89748  0.41586  1.0000
  S   S163      1.0  0.40150  0.88176  0.42957  1.0000
  Fe  Fe84      1.0  0.30160  0.89181  0.41429  1.0000
  C   C386      1.0  0.50614  0.97015  0.51928  1.0000
  S   S164      1.0  0.35635  0.94078  0.40134  1.0000
  S   S165      1.0  0.29317  0.93502  0.40011  1.0000
  H   H630      1.0  0.35148  0.98594  0.35641  1.0000
  H   H631      1.0  0.38587  0.95007  0.34323  1.0000
  C   C387      1.0  0.38148  0.88927  0.49490  1.0000
  C   C388      1.0  0.35756  0.92445  0.28295  1.0000
  C   C389      1.0  0.37438  0.90220  0.32288  1.0000
  H   H632      1.0  0.31119  0.99989  0.50276  1.0000
  C   C390      1.0  0.43131  0.89522  0.41536  1.0000
  C   C391      1.0  0.45283  0.89234  0.43018  1.0000
  H   H633      1.0  0.41817  0.90949  0.37748  1.0000
  H   H634      1.0  0.45087  0.88241  0.45025  1.0000
  C   C392      1.0  0.45876  0.91663  0.37800  1.0000
  C   C393      1.0  0.34990  0.92542  0.50880  1.0000
  N   N41       1.0  0.39097  0.99162  0.33825  1.0000
  C   C394      1.0  0.39595  0.92446  0.51419  1.0000
  C   C395      1.0  0.36770  0.99814  0.35757  1.0000
  H   H635      1.0  0.34591  0.94716  0.51019  1.0000
  C   C396      1.0  0.31872  0.01011  0.48387  1.0000
  N   N42       1.0  0.37735  0.91809  0.49708  1.0000
  H   H636      1.0  0.41688  0.91947  0.50577  1.0000
  H   H637      1.0  0.39310  0.94591  0.51691  1.0000
  H   H638      1.0  0.29260  0.88365  0.51269  1.0000
  C   C397      1.0  0.32985  0.01138  0.43635  1.0000
  H   H639      1.0  0.31383  0.88473  0.33536  1.0000
  H   H640      1.0  0.28174  0.92384  0.34470  1.0000
  S   S166      1.0  0.33427  0.94261  0.32960  1.0000
  C   C398      1.0  0.38311  0.99654  0.31120  1.0000
  C   C399      1.0  0.32019  0.99799  0.46077  1.0000
  H   H641      1.0  0.40768  0.95906  0.36418  1.0000
  C   C400      1.0  0.43431  0.90775  0.38930  1.0000
  H   H642      1.0  0.36818  0.88363  0.48175  1.0000
  C   C401      1.0  0.40121  0.96336  0.34405  1.0000
  H   H643      1.0  0.37277  0.99477  0.37824  1.0000
  H   H644      1.0  0.40212  0.88302  0.48641  1.0000
  H   H645      1.0  0.41795  0.00543  0.36048  1.0000
  H   H646      1.0  0.40019  0.99237  0.29596  1.0000
  C   C402      1.0  0.47715  0.90171  0.41904  1.0000
  S   S167      1.0  0.51124  0.92356  0.37669  1.0000
  H   H647      1.0  0.30235  0.85486  0.32860  1.0000
  H   H648      1.0  0.37513  0.90067  0.34392  1.0000
  H   H649      1.0  0.37909  0.95502  0.47142  1.0000
  H   H650      1.0  0.51810  0.97504  0.49981  1.0000
  C   C403      1.0  0.35700  0.92176  0.31057  1.0000
  H   H651      1.0  0.36776  0.98373  0.30896  1.0000
  H   H652      1.0  0.36854  0.92871  0.45713  1.0000
  C   C404      1.0  0.41184  0.00845  0.34019  1.0000
  H   H653      1.0  0.29000  0.91043  0.29983  1.0000
  H   H654      1.0  0.42975  0.00392  0.32601  1.0000
  H   H655      1.0  0.40445  0.86927  0.31768  1.0000
  H   H656      1.0  0.49364  0.89895  0.43054  1.0000
  H   H657      1.0  0.46113  0.92543  0.35754  1.0000
  C   C405      1.0  0.48039  0.91358  0.39271  1.0000
  H   H658      1.0  0.33088  0.00218  0.41843  1.0000
  C   C406      1.0  0.29723  0.87208  0.34017  1.0000
  C   C407      1.0  0.39132  0.88460  0.30791  1.0000
  H   H659      1.0  0.41843  0.95755  0.32952  1.0000
  H   H660      1.0  0.40270  0.92801  0.46099  1.0000
  C   C408      1.0  0.38219  0.93318  0.47051  1.0000
  H   H661      1.0  0.33536  0.92044  0.49659  1.0000
  H   H662      1.0  0.29362  0.86165  0.48783  1.0000
  H   H663      1.0  0.35947  0.01932  0.35379  1.0000
  H   H664      1.0  0.37458  0.01753  0.30656  1.0000
  H   H665      1.0  0.29636  0.86412  0.36158  1.0000
  H   H666      1.0  0.37776  0.87729  0.51458  1.0000
  H   H667      1.0  0.48491  0.97432  0.51632  1.0000
  C   C409      1.0  0.28223  0.86817  0.50635  1.0000
  H   H668      1.0  0.51023  0.94838  0.52492  1.0000
  H   H669      1.0  0.28300  0.85074  0.52195  1.0000
  S   S168      1.0  0.26962  0.86358  0.41972  1.0000
  C   C410      1.0  0.39158  0.88688  0.28039  1.0000
  H   H670      1.0  0.27816  0.88069  0.29315  1.0000
  C   C411      1.0  0.27384  0.89729  0.30561  1.0000
  N   N43       1.0  0.27189  0.88731  0.33416  1.0000
  H   H671      1.0  0.48650  0.01994  0.52786  1.0000
  Fe  Fe85      1.0  0.39439  0.89313  0.59166  1.0000
  S   S169      1.0  0.38394  0.90517  0.63244  1.0000
  S   S170      1.0  0.36490  0.87519  0.57156  1.0000
  Fe  Fe86      1.0  0.45336  0.90361  0.58958  1.0000
  S   S171      1.0  0.44680  0.91629  0.63023  1.0000
  S   S172      1.0  0.49189  0.90451  0.56174  1.0000
  Fe  Fe87      1.0  0.42248  0.88202  0.64105  1.0000
  S   S173      1.0  0.42676  0.85271  0.67737  1.0000
  Fe  Fe88      1.0  0.40910  0.93820  0.61753  1.0000
  S   S174      1.0  0.43162  0.86735  0.60125  1.0000
  S   S175      1.0  0.41697  0.92825  0.57586  1.0000
  C   C412      1.0  0.44582  0.90724  0.74556  1.0000
  C   C413      1.0  0.28888  0.90408  0.59621  1.0000
  H   H672      1.0  0.48575  0.93719  0.72980  1.0000
  H   H673      1.0  0.44660  0.89985  0.69458  1.0000
  H   H674      1.0  0.36782  0.85841  0.67082  1.0000
  H   H675      1.0  0.27884  0.92129  0.60499  1.0000
  H   H676      1.0  0.37571  0.82381  0.68106  1.0000
  C   C414      1.0  0.40767  0.86199  0.70631  1.0000
  C   C415      1.0  0.40940  0.84527  0.73011  1.0000
  C   C416      1.0  0.39498  0.85267  0.75367  1.0000
  C   C417      1.0  0.37835  0.87655  0.75336  1.0000
  C   C418      1.0  0.37608  0.89297  0.72943  1.0000
  C   C419      1.0  0.39107  0.88590  0.70597  1.0000
  H   H677      1.0  0.42217  0.82670  0.73040  1.0000
  C   C420      1.0  0.41513  0.00229  0.60713  1.0000
  H   H678      1.0  0.36335  0.91155  0.72922  1.0000
  H   H679      1.0  0.38994  0.89913  0.68778  1.0000
  C   C421      1.0  0.31674  0.90105  0.59126  1.0000
  C   C422      1.0  0.32993  0.87925  0.57935  1.0000
  C   C423      1.0  0.31497  0.86038  0.57278  1.0000
  H   H680      1.0  0.32791  0.91587  0.59624  1.0000
  H   H681      1.0  0.32496  0.84343  0.56355  1.0000
  C   C424      1.0  0.28713  0.86309  0.57834  1.0000
  N   N44       1.0  0.34638  0.83282  0.65395  1.0000
  C   C425      1.0  0.32530  0.85430  0.64749  1.0000
  C   C426      1.0  0.33475  0.80746  0.66177  1.0000
  C   C427      1.0  0.35919  0.83921  0.67604  1.0000
  H   H682      1.0  0.33349  0.87360  0.64084  1.0000
  H   H683      1.0  0.31482  0.84990  0.63125  1.0000
  H   H684      1.0  0.35733  0.82611  0.61314  1.0000
  C   C428      1.0  0.49122  0.91530  0.73166  1.0000
  H   H685      1.0  0.38248  0.81421  0.63452  1.0000
  H   H686      1.0  0.34495  0.84096  0.69429  1.0000
  H   H687      1.0  0.31019  0.85719  0.66490  1.0000
  H   H688      1.0  0.46149  0.86115  0.72512  1.0000
  H   H689      1.0  0.49532  0.86701  0.71548  1.0000
  C   C429      1.0  0.36631  0.83034  0.63048  1.0000
  H   H690      1.0  0.47464  0.98236  0.56273  1.0000
  H   H691      1.0  0.31947  0.80869  0.67933  1.0000
  H   H692      1.0  0.37574  0.84900  0.62427  1.0000
  C   C430      1.0  0.27387  0.88516  0.58983  1.0000
  H   H693      1.0  0.35011  0.79085  0.66692  1.0000
  H   H694      1.0  0.48027  0.90576  0.68414  1.0000
  H   H695      1.0  0.45668  0.93187  0.69619  1.0000
  H   H696      1.0  0.49998  0.95706  0.57251  1.0000
  H   H697      1.0  0.50938  0.91125  0.71763  1.0000
  H   H698      1.0  0.40994  0.98781  0.57086  1.0000
  C   C431      1.0  0.47740  0.87229  0.72938  1.0000
  S   S176      1.0  0.39693  0.97934  0.62810  1.0000
  H   H699      1.0  0.42899  0.89688  0.74231  1.0000
  C   C432      1.0  0.46299  0.91012  0.69915  1.0000
  H   H700      1.0  0.34572  0.91484  0.52911  1.0000
  H   H701      1.0  0.43906  0.92889  0.74405  1.0000
  N   N45       1.0  0.46937  0.90125  0.72641  1.0000
  H   H702      1.0  0.49645  0.90903  0.75211  1.0000
  H   H703      1.0  0.49976  0.99020  0.58059  1.0000
  C   C433      1.0  0.41815  0.00256  0.57953  1.0000
  H   H704      1.0  0.32506  0.80203  0.64542  1.0000
  C   C434      1.0  0.49604  0.97848  0.56499  1.0000
  H   H705      1.0  0.39653  0.83973  0.77199  1.0000
  H   H706      1.0  0.44996  0.90067  0.76630  1.0000
  H   H707      1.0  0.48180  0.86485  0.74993  1.0000
  C   C435      1.0  0.42540  0.02160  0.61822  1.0000
  H   H708      1.0  0.39310  0.91283  0.53412  1.0000
  H   H709      1.0  0.37356  0.01902  0.66570  1.0000
  N   N46       1.0  0.51264  0.98531  0.53964  1.0000
  H   H710      1.0  0.42386  0.02097  0.63950  1.0000
  C   C436      1.0  0.50759  0.01409  0.53091  1.0000
  H   H711      1.0  0.27592  0.84825  0.57350  1.0000
  C   C437      1.0  0.43081  0.02275  0.56310  1.0000
  H   H712      1.0  0.43254  0.02340  0.54178  1.0000
  H   H713      1.0  0.32655  0.02313  0.65816  1.0000
  N   N47       1.0  0.33913  0.63529  0.02322  1.0000
  S   S177      1.0  0.37320  0.88022  0.85686  1.0000
  Fe  Fe89      1.0  0.44529  0.87807  0.82474  1.0000
  S   S178      1.0  0.43409  0.87469  0.86881  1.0000
  C   C438      1.0  0.31477  0.81315  0.82380  1.0000
  Fe  Fe90      1.0  0.40586  0.84679  0.86186  1.0000
  S   S179      1.0  0.39669  0.80883  0.88875  1.0000
  Fe  Fe91      1.0  0.40294  0.90846  0.85915  1.0000
  S   S180      1.0  0.39456  0.94229  0.88470  1.0000
  S   S181      1.0  0.41976  0.84765  0.81840  1.0000
  H   H714      1.0  0.50891  0.90506  0.88688  1.0000
  Fe  Fe92      1.0  0.36573  0.62954  0.92369  1.0000
  S   S182      1.0  0.37426  0.63147  0.87950  1.0000
  S   S183      1.0  0.32557  0.63187  0.94743  1.0000
  Fe  Fe93      1.0  0.42347  0.61771  0.93106  1.0000
  S   S184      1.0  0.43660  0.61751  0.88753  1.0000
  S   S185      1.0  0.45172  0.61124  0.96154  1.0000
  Fe  Fe94      1.0  0.40773  0.65458  0.88361  1.0000
  S   S186      1.0  0.42067  0.69100  0.85653  1.0000
  Fe  Fe95      1.0  0.40195  0.59430  0.88807  1.0000
  S   S187      1.0  0.39745  0.55974  0.86600  1.0000
  S   S188      1.0  0.39658  0.65567  0.92720  1.0000
  S   S189      1.0  0.39148  0.59144  0.93206  1.0000
  C   C439      1.0  0.35815  0.64900  0.00340  1.0000
  H   H715      1.0  0.30290  0.56514  0.91553  1.0000
  H   H716      1.0  0.27014  0.62813  0.95894  1.0000
  H   H717      1.0  0.34312  0.83121  0.87378  1.0000
  C   C440      1.0  0.51087  0.90919  0.86549  1.0000
  C   C441      1.0  0.36098  0.81493  0.82634  1.0000
  H   H718      1.0  0.36712  0.79945  0.81276  1.0000
  C   C442      1.0  0.31214  0.64868  0.02106  1.0000
  Fe  Fe96      1.0  0.38889  0.88251  0.81382  1.0000
  C   C443      1.0  0.43959  0.63136  0.98661  1.0000
  C   C444      1.0  0.43727  0.62030  0.01323  1.0000
  C   C445      1.0  0.32808  0.83207  0.85985  1.0000
  H   H719      1.0  0.35252  0.65062  0.98306  1.0000
  C   C446      1.0  0.41771  0.67333  0.99972  1.0000
  C   C447      1.0  0.43046  0.65810  0.98000  1.0000
  C   C448      1.0  0.30440  0.65663  0.90300  1.0000
  H   H720      1.0  0.32410  0.66126  0.89510  1.0000
  H   H721      1.0  0.40986  0.69373  0.99434  1.0000
  H   H722      1.0  0.43301  0.66700  0.95962  1.0000
  H   H723      1.0  0.29683  0.59099  0.83362  1.0000
  N   N48       1.0  0.30431  0.57581  0.87340  1.0000
  H   H724      1.0  0.33937  0.59105  0.85191  1.0000
  C   C449      1.0  0.32760  0.59046  0.87186  1.0000
  H   H725      1.0  0.31079  0.66998  0.02413  1.0000
  C   C450      1.0  0.40449  0.77619  0.87962  1.0000
  C   C451      1.0  0.39602  0.75467  0.89749  1.0000
  C   C452      1.0  0.40072  0.72855  0.89067  1.0000
  C   C453      1.0  0.41406  0.72362  0.86587  1.0000
  C   C454      1.0  0.42266  0.74513  0.84802  1.0000
  C   C455      1.0  0.41788  0.77130  0.85481  1.0000
  H   H726      1.0  0.38557  0.75824  0.91670  1.0000
  H   H727      1.0  0.39390  0.71230  0.90460  1.0000
  H   H728      1.0  0.43306  0.74154  0.82881  1.0000
  H   H729      1.0  0.42465  0.78761  0.84088  1.0000
  H   H730      1.0  0.29485  0.81075  0.83490  1.0000
  H   H731      1.0  0.31350  0.83286  0.81136  1.0000
  H   H732      1.0  0.35096  0.78319  0.87250  1.0000
  H   H733      1.0  0.49920  0.54456  0.87399  1.0000
  H   H734      1.0  0.51063  0.66023  0.84511  1.0000
  H   H735      1.0  0.35947  0.66952  0.00774  1.0000
  H   H736      1.0  0.48797  0.87816  0.86073  1.0000
  S   S190      1.0  0.41587  0.91331  0.81554  1.0000
  C   C456      1.0  0.41418  0.66188  0.02614  1.0000
  C   C457      1.0  0.47691  0.66357  0.90666  1.0000
  H   H737      1.0  0.45655  0.66820  0.90090  1.0000
  H   H738      1.0  0.40625  0.98143  0.83662  1.0000
  H   H739      1.0  0.37666  0.81378  0.83945  1.0000
  H   H740      1.0  0.31939  0.79757  0.81015  1.0000
  H   H741      1.0  0.48224  0.96713  0.87020  1.0000
  S   S191      1.0  0.36128  0.88650  0.78290  1.0000
  H   H742      1.0  0.51249  0.98719  0.89274  1.0000
  C   C458      1.0  0.40287  0.99162  0.85412  1.0000
  H   H743      1.0  0.28721  0.67431  0.86776  1.0000
  C   C459      1.0  0.39683  0.97711  0.87916  1.0000
  C   C460      1.0  0.28998  0.57491  0.90048  1.0000
  C   C461      1.0  0.28351  0.66424  0.88766  1.0000
  C   C462      1.0  0.49532  0.65557  0.86216  1.0000
  C   C463      1.0  0.29965  0.64322  0.92854  1.0000
  C   C464      1.0  0.34034  0.60730  0.01831  1.0000
  H   H744      1.0  0.48476  0.00572  0.90953  1.0000
  H   H745      1.0  0.31706  0.78090  0.86937  1.0000
  H   H746      1.0  0.33569  0.60591  0.99802  1.0000
  H   H747      1.0  0.29606  0.53668  0.86822  1.0000
  H   H748      1.0  0.30622  0.64798  0.00107  1.0000
  H   H749      1.0  0.45397  0.98604  0.88590  1.0000
  C   C465      1.0  0.49886  0.89407  0.85066  1.0000
  H   H750      1.0  0.32693  0.85231  0.84848  1.0000
  N   N49       1.0  0.49700  0.67092  0.88419  1.0000
  C   C466      1.0  0.27393  0.63818  0.93905  1.0000
  H   H751      1.0  0.49848  0.63380  0.86843  1.0000
  N   N50       1.0  0.33506  0.81120  0.84198  1.0000
  C   C467      1.0  0.28655  0.58950  0.85423  1.0000
  H   H752      1.0  0.37830  0.63805  0.00286  1.0000
  C   C468      1.0  0.33650  0.78478  0.85792  1.0000
  H   H753      1.0  0.34292  0.76852  0.84526  1.0000
  C   C469      1.0  0.39375  0.01802  0.89937  1.0000
  H   H754      1.0  0.44447  0.59966  0.01844  1.0000
  C   C470      1.0  0.50200  0.89876  0.82295  1.0000
  H   H755      1.0  0.47214  0.70479  0.86841  1.0000
  C   C471      1.0  0.39232  0.99063  0.90156  1.0000
  H   H756      1.0  0.34120  0.58095  0.88643  1.0000
  C   C472      1.0  0.49907  0.00608  0.89114  1.0000
  H   H757      1.0  0.27912  0.61006  0.85876  1.0000
  H   H758      1.0  0.50689  0.70587  0.85815  1.0000
  H   H759      1.0  0.38759  0.97978  0.92094  1.0000
  C   C473      1.0  0.46959  0.98652  0.86852  1.0000
  C   C474      1.0  0.31312  0.54845  0.86710  1.0000
  H   H760      1.0  0.45949  0.98769  0.85050  1.0000
  S   S192      1.0  0.48666  0.88012  0.80443  1.0000
  H   H761      1.0  0.32166  0.61131  0.87605  1.0000
  H   H762      1.0  0.47780  0.67449  0.92379  1.0000
  N   N51       1.0  0.48532  0.00909  0.86725  1.0000
  H   H763      1.0  0.49311  0.71186  0.89124  1.0000
  H   H764      1.0  0.30867  0.82990  0.87208  1.0000
  C   C475      1.0  0.40427  0.01950  0.85187  1.0000
  H   H765      1.0  0.36046  0.59665  0.01996  1.0000
  H   H766      1.0  0.36062  0.83471  0.81414  1.0000
  H   H767      1.0  0.47978  0.64195  0.91386  1.0000
  H   H768      1.0  0.51135  0.02261  0.89077  1.0000
  H   H769      1.0  0.47559  0.66000  0.85484  1.0000
  H   H770      1.0  0.27243  0.56372  0.90243  1.0000
  H   H771      1.0  0.32392  0.54844  0.84674  1.0000
  H   H772      1.0  0.32681  0.53769  0.88102  1.0000
  C   C476      1.0  0.49210  0.69964  0.87511  1.0000
  H   H773      1.0  0.42963  0.53288  0.90692  1.0000
  C   C477      1.0  0.50497  0.00952  0.84331  1.0000
  C   C478      1.0  0.51732  0.91849  0.81003  1.0000
  H   H774      1.0  0.49522  0.01191  0.82494  1.0000
  H   H775      1.0  0.28283  0.59527  0.90565  1.0000
  H   H776      1.0  0.51854  0.99073  0.84344  1.0000
  C   C479      1.0  0.40716  0.52581  0.87664  1.0000
  Fe  Fe97      1.0  0.62042  0.23512  0.14963  1.0000
  S   S193      1.0  0.61568  0.23999  0.19288  1.0000
  S   S194      1.0  0.62270  0.26935  0.11615  1.0000
  Fe  Fe98      1.0  0.61173  0.17502  0.16077  1.0000
  S   S195      1.0  0.60539  0.17625  0.20461  1.0000
  S   S196      1.0  0.60281  0.13800  0.14472  1.0000
  Fe  Fe99      1.0  0.58191  0.21566  0.19590  1.0000
  S   S197      1.0  0.54193  0.22835  0.21626  1.0000
  Fe  Fe100     1.0  0.63992  0.20018  0.19724  1.0000
  S   S198      1.0  0.67156  0.18844  0.22393  1.0000
  S   S199      1.0  0.58492  0.21287  0.15259  1.0000
  S   S200      1.0  0.64799  0.19687  0.15353  1.0000
  Fe  Fe101     1.0  0.63136  0.48949  0.10418  1.0000
  S   S201      1.0  0.62961  0.49687  0.06050  1.0000
  H   H777      1.0  0.55757  0.51389  0.09400  1.0000
  Fe  Fe102     1.0  0.62598  0.42863  0.10578  1.0000
  S   S202      1.0  0.62514  0.43219  0.06169  1.0000
  S   S203      1.0  0.62319  0.39081  0.13522  1.0000
  Fe  Fe103     1.0  0.65701  0.45926  0.05889  1.0000
  C   C480      1.0  0.61971  0.06197  0.22586  1.0000
  Fe  Fe104     1.0  0.59798  0.46951  0.06779  1.0000
  H   H778      1.0  0.75161  0.46908  0.16925  1.0000
  S   S204      1.0  0.66037  0.45273  0.10228  1.0000
  S   S205      1.0  0.59691  0.46494  0.11216  1.0000
  N   N52       1.0  0.61217  0.08828  0.23528  1.0000
  H   H779      1.0  0.65178  0.18888  0.08074  1.0000
  C   C481      1.0  0.66844  0.12323  0.27785  1.0000
  H   H780      1.0  0.56348  0.27367  0.17498  1.0000
  C   C482      1.0  0.61944  0.05732  0.15145  1.0000
  C   C483      1.0  0.63445  0.10459  0.22778  1.0000
  H   H781      1.0  0.53057  0.13503  0.24631  1.0000
  S   S206      1.0  0.69539  0.45981  0.03207  1.0000
  C   C484      1.0  0.52447  0.20046  0.22123  1.0000
  C   C485      1.0  0.70244  0.49973  0.06017  1.0000
  C   C486      1.0  0.54606  0.52204  0.11169  1.0000
  H   H782      1.0  0.68154  0.50555  0.06053  1.0000
  C   C487      1.0  0.74189  0.47152  0.04618  1.0000
  C   C488      1.0  0.74410  0.50525  0.07471  1.0000
  C   C489      1.0  0.60634  0.08338  0.14882  1.0000
  H   H783      1.0  0.74393  0.46826  0.12310  1.0000
  H   H784      1.0  0.52276  0.48354  0.09583  1.0000
  H   H785      1.0  0.52250  0.02928  0.10872  1.0000
  C   C490      1.0  0.62280  0.30309  0.12166  1.0000
  C   C491      1.0  0.62118  0.31038  0.14720  1.0000
  C   C492      1.0  0.62118  0.33726  0.15088  1.0000
  C   C493      1.0  0.62283  0.35729  0.12915  1.0000
  C   C494      1.0  0.62413  0.35006  0.10360  1.0000
  C   C495      1.0  0.62408  0.32313  0.09992  1.0000
  H   H786      1.0  0.62027  0.29532  0.16415  1.0000
  H   H787      1.0  0.62021  0.34257  0.17072  1.0000
  H   H788      1.0  0.62536  0.36519  0.08667  1.0000
  H   H789      1.0  0.62528  0.31782  0.08006  1.0000
  H   H790      1.0  0.65252  0.09496  0.23643  1.0000
  C   C496      1.0  0.73129  0.46331  0.17585  1.0000
  H   H791      1.0  0.58921  0.07235  0.27087  1.0000
  N   N53       1.0  0.61187  0.18702  0.07323  1.0000
  C   C497      1.0  0.66055  0.16505  0.24995  1.0000
  H   H792      1.0  0.67844  0.47223  0.18411  1.0000
  H   H793      1.0  0.53831  0.29373  0.19341  1.0000
  H   H794      1.0  0.71361  0.17601  0.26911  1.0000
  H   H795      1.0  0.62248  0.18716  0.25837  1.0000
  S   S207      1.0  0.76127  0.51942  0.09551  1.0000
  H   H796      1.0  0.62978  0.17797  0.10919  1.0000
  H   H797      1.0  0.73307  0.44122  0.17987  1.0000
  H   H798      1.0  0.58264  0.12172  0.22970  1.0000
  C   C498      1.0  0.53564  0.17625  0.23341  1.0000
  H   H799      1.0  0.60057  0.20220  0.03473  1.0000
  H   H800      1.0  0.62756  0.21255  0.09592  1.0000
  H   H801      1.0  0.58556  0.08637  0.14634  1.0000
  H   H802      1.0  0.68108  0.07247  0.15576  1.0000
  H   H803      1.0  0.55480  0.17484  0.24021  1.0000
  H   H804      1.0  0.60881  0.04046  0.15094  1.0000
  H   H805      1.0  0.52914  0.33780  0.14757  1.0000
  H   H806      1.0  0.56637  0.20918  0.26423  1.0000
  N   N54       1.0  0.71333  0.47329  0.15565  1.0000
  H   H807      1.0  0.73119  0.50977  0.14539  1.0000
  H   H808      1.0  0.59989  0.10424  0.27226  1.0000
  C   C499      1.0  0.60576  0.08480  0.26443  1.0000
  S   S208      1.0  0.64307  0.52135  0.12622  1.0000
  H   H809      1.0  0.71098  0.46968  0.11482  1.0000
  H   H810      1.0  0.62488  0.06392  0.20400  1.0000
  H   H811      1.0  0.63730  0.05122  0.23464  1.0000
  H   H812      1.0  0.58177  0.17860  0.10579  1.0000
  C   C500      1.0  0.64653  0.05322  0.15379  1.0000
  C   C501      1.0  0.68676  0.46490  0.16491  1.0000
  C   C502      1.0  0.61681  0.15911  0.06751  1.0000
  H   H813      1.0  0.69917  0.51074  0.13493  1.0000
  H   H814      1.0  0.70101  0.23485  0.27199  1.0000
  C   C503      1.0  0.63529  0.16935  0.26385  1.0000
  H   H815      1.0  0.55362  0.51036  0.12957  1.0000
  C   C504      1.0  0.71716  0.51322  0.07396  1.0000
  H   H816      1.0  0.56353  0.30912  0.17066  1.0000
  C   C505      1.0  0.71464  0.47860  0.04657  1.0000
  H   H817      1.0  0.59303  0.10492  0.20104  1.0000
  C   C506      1.0  0.66010  0.07542  0.15414  1.0000
  C   C507      1.0  0.72387  0.46235  0.13061  1.0000
  H   H818      1.0  0.70213  0.51167  0.16920  1.0000
  H   H819      1.0  0.72542  0.44025  0.13314  1.0000
  C   C508      1.0  0.61996  0.10555  0.14921  1.0000
  H   H820      1.0  0.63514  0.20181  0.03740  1.0000
  H   H821      1.0  0.63966  0.10787  0.20589  1.0000
  H   H822      1.0  0.56966  0.18851  0.07440  1.0000
  C   C509      1.0  0.64686  0.10141  0.15217  1.0000
  S   S209      1.0  0.56046  0.48262  0.04962  1.0000
  H   H823      1.0  0.72418  0.47141  0.19495  1.0000
  C   C510      1.0  0.55047  0.29285  0.17379  1.0000
  H   H824      1.0  0.63722  0.15452  0.05753  1.0000
  C   C511      1.0  0.61490  0.20513  0.04822  1.0000
  H   H825      1.0  0.58039  0.21281  0.09167  1.0000
  H   H826      1.0  0.65771  0.11823  0.15219  1.0000
  H   H827      1.0  0.67724  0.21243  0.27048  1.0000
  H   H828      1.0  0.52849  0.25333  0.15852  1.0000
  N   N55       1.0  0.53369  0.29500  0.15223  1.0000
  C   C512      1.0  0.58473  0.19200  0.08682  1.0000
  C   C513      1.0  0.71139  0.50264  0.15114  1.0000
  H   H829      1.0  0.61157  0.22634  0.05201  1.0000
  H   H830      1.0  0.68716  0.44287  0.16758  1.0000
  H   H831      1.0  0.73734  0.19789  0.27224  1.0000
  H   H832      1.0  0.57257  0.23897  0.27585  1.0000
  C   C514      1.0  0.67715  0.14205  0.25701  1.0000
  H   H833      1.0  0.69663  0.13862  0.24612  1.0000
  H   H834      1.0  0.56367  0.27400  0.12690  1.0000
  C   C515      1.0  0.63108  0.19187  0.09050  1.0000
  C   C516      1.0  0.58883  0.10179  0.22304  1.0000
  C   C517      1.0  0.75658  0.48465  0.06048  1.0000
  H   H835      1.0  0.61457  0.14499  0.08609  1.0000
  H   H836      1.0  0.60336  0.04911  0.23090  1.0000
  H   H837      1.0  0.62957  0.12450  0.23475  1.0000
  C   C518      1.0  0.55073  0.29321  0.12672  1.0000
  H   H838      1.0  0.67259  0.47300  0.15046  1.0000
  H   H839      1.0  0.60271  0.15466  0.05449  1.0000
  C   C519      1.0  0.52197  0.15374  0.23687  1.0000
  H   H840      1.0  0.75144  0.45516  0.03587  1.0000
  H   H841      1.0  0.53878  0.29486  0.10994  1.0000
  H   H842      1.0  0.56401  0.30932  0.12239  1.0000
  H   H843      1.0  0.57161  0.09003  0.22806  1.0000
  H   H844      1.0  0.62307  0.07499  0.27431  1.0000
  H   H845      1.0  0.52131  0.03920  0.15488  1.0000
  Fe  Fe105     1.0  0.63018  0.16866  0.38390  1.0000
  S   S210      1.0  0.64392  0.12532  0.38466  1.0000
  S   S211      1.0  0.65834  0.20015  0.38312  1.0000
  Fe  Fe106     1.0  0.57168  0.15907  0.38145  1.0000
  S   S212      1.0  0.58169  0.11500  0.38201  1.0000
  S   S213      1.0  0.53120  0.18201  0.37661  1.0000
  Fe  Fe107     1.0  0.60740  0.11891  0.41304  1.0000
  S   S214      1.0  0.61226  0.09139  0.45057  1.0000
  Fe  Fe108     1.0  0.61712  0.12570  0.35369  1.0000
  C   C520      1.0  0.74522  0.19770  0.49656  1.0000
  S   S215      1.0  0.59506  0.16250  0.41478  1.0000
  S   S216      1.0  0.60567  0.16962  0.35050  1.0000
  H   H846      1.0  0.55271  0.17804  0.31930  1.0000
  H   H847      1.0  0.60871  0.05136  0.49479  1.0000
  H   H848      1.0  0.67124  0.05517  0.33592  1.0000
  H   H849      1.0  0.66824  0.19313  0.32874  1.0000
  C   C521      1.0  0.62574  0.04569  0.36590  1.0000
  H   H850      1.0  0.74599  0.22745  0.38795  1.0000
  H   H851      1.0  0.69463  0.16669  0.33000  1.0000
  C   C522      1.0  0.60054  0.04453  0.47893  1.0000
  C   C523      1.0  0.70582  0.16787  0.38751  1.0000
  C   C524      1.0  0.69266  0.19361  0.38651  1.0000
  C   C525      1.0  0.70736  0.21499  0.38694  1.0000
  H   H852      1.0  0.69487  0.15120  0.38728  1.0000
  H   H853      1.0  0.69741  0.23500  0.38617  1.0000
  H   H854      1.0  0.73403  0.16856  0.29560  1.0000
  C   C526      1.0  0.65273  0.03831  0.40170  1.0000
  H   H855      1.0  0.64598  0.05870  0.40711  1.0000
  H   H856      1.0  0.62495  0.04524  0.34438  1.0000
  H   H857      1.0  0.74100  0.21505  0.50808  1.0000
  C   C527      1.0  0.73494  0.21078  0.38792  1.0000
  H   H858      1.0  0.67075  0.10815  0.50668  1.0000
  C   C528      1.0  0.58033  0.02605  0.43779  1.0000
  H   H859      1.0  0.69176  0.04940  0.36236  1.0000
  C   C529      1.0  0.65192  0.09911  0.50790  1.0000
  H   H860      1.0  0.61123  0.03248  0.37699  1.0000
  H   H861      1.0  0.60726  0.15412  0.29581  1.0000
  H   H862      1.0  0.74328  0.14363  0.38949  1.0000
  C   C530      1.0  0.53707  0.18997  0.30834  1.0000
  C   C531      1.0  0.62679  0.15081  0.28509  1.0000
  H   H863      1.0  0.64748  0.09893  0.48731  1.0000
  H   H864      1.0  0.52508  0.25380  0.28034  1.0000
  H   H865      1.0  0.75796  0.17492  0.45138  1.0000
  H   H866      1.0  0.61882  0.06635  0.37017  1.0000
  H   H867      1.0  0.58851  0.06360  0.41524  1.0000
  C   C532      1.0  0.73332  0.16364  0.38872  1.0000
  H   H868      1.0  0.53541  0.18007  0.29073  1.0000
  C   C533      1.0  0.72280  0.18495  0.28374  1.0000
  S   S217      1.0  0.63295  0.10446  0.31846  1.0000
  C   C534      1.0  0.59965  0.06050  0.45458  1.0000
  H   H869      1.0  0.74967  0.22384  0.44713  1.0000
  N   N56       1.0  0.70265  0.20016  0.30090  1.0000
  C   C535      1.0  0.67117  0.05520  0.35764  1.0000
  H   H870      1.0  0.55051  0.25073  0.31957  1.0000
  H   H871      1.0  0.62076  0.14261  0.49075  1.0000
  C   C536      1.0  0.58940  0.05132  0.43401  1.0000
  C   C537      1.0  0.71576  0.21254  0.31925  1.0000
  H   H872      1.0  0.56182  0.21851  0.33550  1.0000
  H   H873      1.0  0.59961  0.10130  0.50508  1.0000
  C   C538      1.0  0.74810  0.18502  0.38875  1.0000
  N   N57       1.0  0.54290  0.21778  0.30071  1.0000
  C   C539      1.0  0.54582  0.22984  0.32461  1.0000
  H   H874      1.0  0.70103  0.22406  0.33256  1.0000
  H   H875      1.0  0.72773  0.19688  0.48621  1.0000
  H   H876      1.0  0.74703  0.17959  0.51126  1.0000
  H   H877      1.0  0.67468  0.17170  0.30321  1.0000
  C   C540      1.0  0.68427  0.18209  0.31635  1.0000
  H   H878      1.0  0.66543  0.07609  0.36177  1.0000
  C   C541      1.0  0.64340  0.12775  0.29207  1.0000
  H   H879      1.0  0.67282  0.03254  0.40780  1.0000
  C   C542      1.0  0.62594  0.14162  0.51128  1.0000
  H   H880      1.0  0.68129  0.10538  0.28317  1.0000
  H   H881      1.0  0.52738  0.22997  0.33883  1.0000
  H   H882      1.0  0.65575  0.07810  0.51690  1.0000
  C   C543      1.0  0.52091  0.23301  0.28752  1.0000
  H   H883      1.0  0.72974  0.22641  0.30838  1.0000
  H   H884      1.0  0.67256  0.23322  0.29665  1.0000
  H   H885      1.0  0.72725  0.19732  0.33213  1.0000
  C   C544      1.0  0.76645  0.22393  0.45873  1.0000
  C   C545      1.0  0.56776  0.21827  0.28241  1.0000
  H   H886      1.0  0.58472  0.20714  0.29197  1.0000
  N   N58       1.0  0.65269  0.03724  0.37305  1.0000
  H   H887      1.0  0.60969  0.15330  0.52286  1.0000
  C   C546      1.0  0.68770  0.22111  0.28429  1.0000
  H   H888      1.0  0.64398  0.15192  0.51019  1.0000
  H   H889      1.0  0.76295  0.24210  0.46905  1.0000
  N   N59       1.0  0.63011  0.11382  0.52375  1.0000
  C   C547      1.0  0.60558  0.10112  0.52517  1.0000
  Fe  Fe109     1.0  0.72434  0.17086  0.57680  1.0000
  S   S218      1.0  0.73149  0.12947  0.59741  1.0000
  C   C548      1.0  0.54493  0.17143  0.57828  1.0000
  Fe  Fe110     1.0  0.66322  0.16779  0.58133  1.0000
  S   S219      1.0  0.66698  0.12697  0.60313  1.0000
  H   H890      1.0  0.57297  0.18811  0.54707  1.0000
  Fe  Fe111     1.0  0.69570  0.14184  0.62515  1.0000
  S   S220      1.0  0.69401  0.12858  0.66878  1.0000
  Fe  Fe112     1.0  0.70203  0.11919  0.57304  1.0000
  S   S221      1.0  0.70482  0.08381  0.55091  1.0000
  S   S222      1.0  0.68941  0.18393  0.60600  1.0000
  S   S223      1.0  0.69745  0.15955  0.54988  1.0000
  C   C549      1.0  0.69354  0.15239  0.69043  1.0000
  C   C550      1.0  0.68842  0.14472  0.71770  1.0000
  C   C551      1.0  0.69666  0.19738  0.69901  1.0000
  C   C552      1.0  0.69756  0.17877  0.68103  1.0000
  H   H891      1.0  0.68530  0.12432  0.72506  1.0000
  H   H892      1.0  0.70125  0.18483  0.65999  1.0000
  H   H893      1.0  0.74378  0.20451  0.64629  1.0000
  H   H894      1.0  0.57708  0.18299  0.72131  1.0000
  H   H895      1.0  0.64003  0.20350  0.68455  1.0000
  H   H896      1.0  0.60812  0.08005  0.53427  1.0000
  C   C553      1.0  0.69312  0.05727  0.60033  1.0000
  H   H897      1.0  0.63739  0.14264  0.69410  1.0000
  H   H898      1.0  0.63760  0.18292  0.71574  1.0000
  N   N60       1.0  0.60929  0.17753  0.69036  1.0000
  H   H899      1.0  0.69645  0.07510  0.60792  1.0000
  C   C554      1.0  0.59034  0.16675  0.71233  1.0000
  H   H900      1.0  0.58195  0.21068  0.67755  1.0000
  H   H901      1.0  0.57765  0.15362  0.70549  1.0000
  H   H902      1.0  0.58163  0.18144  0.66177  1.0000
  H   H903      1.0  0.60841  0.20153  0.65254  1.0000
  C   C555      1.0  0.63706  0.11347  0.55077  1.0000
  C   C556      1.0  0.54076  0.15979  0.60461  1.0000
  H   H904      1.0  0.62102  0.12412  0.56352  1.0000
  H   H905      1.0  0.64138  0.16277  0.66269  1.0000
  C   C557      1.0  0.76546  0.20296  0.63998  1.0000
  C   C558      1.0  0.56254  0.15401  0.61921  1.0000
  C   C559      1.0  0.62636  0.15537  0.67890  1.0000
  C   C560      1.0  0.68686  0.16340  0.73558  1.0000
  H   H906      1.0  0.60072  0.15490  0.72849  1.0000
  C   C561      1.0  0.59467  0.19350  0.66966  1.0000
  C   C562      1.0  0.69097  0.18973  0.72629  1.0000
  H   H907      1.0  0.69952  0.21786  0.69179  1.0000
  C   C563      1.0  0.57029  0.17814  0.56710  1.0000
  C   C564      1.0  0.58805  0.16003  0.60778  1.0000
  C   C565      1.0  0.59195  0.17271  0.58182  1.0000
  S   S224      1.0  0.62312  0.18321  0.56740  1.0000
  C   C566      1.0  0.62580  0.19454  0.70061  1.0000
  H   H908      1.0  0.60452  0.15558  0.61928  1.0000
  C   C567      1.0  0.69672  0.05586  0.57305  1.0000
  H   H909      1.0  0.61470  0.14235  0.67051  1.0000
  H   H910      1.0  0.61352  0.21101  0.71020  1.0000
  H   H911      1.0  0.55959  0.14500  0.63957  1.0000
  S   S225      1.0  0.55707  0.21793  0.76259  1.0000
  S   S226      1.0  0.68710  0.21334  0.74865  1.0000
  H   H912      1.0  0.68258  0.15735  0.75664  1.0000
  C   C568      1.0  0.68557  0.03539  0.61803  1.0000
  C   C569      1.0  0.69323  0.03229  0.56350  1.0000
  H   H913      1.0  0.76199  0.43016  0.75872  1.0000
  H   H914      1.0  0.75272  0.17430  0.68723  1.0000
  H   H915      1.0  0.68278  0.03671  0.63910  1.0000
  H   H916      1.0  0.52839  0.17637  0.56688  1.0000
  H   H917      1.0  0.65003  0.02860  0.69924  1.0000
  H   H918      1.0  0.65521  0.12335  0.55024  1.0000
  H   H919      1.0  0.76837  0.20586  0.61788  1.0000
  H   H920      1.0  0.69614  0.03109  0.54240  1.0000
  C   C570      1.0  0.54001  0.18976  0.76878  1.0000
  H   H921      1.0  0.58885  0.11170  0.53721  1.0000
  H   H922      1.0  0.64110  0.09280  0.56061  1.0000
  S   S227      1.0  0.75808  0.19702  0.56338  1.0000
  H   H923      1.0  0.73734  0.48779  0.76322  1.0000
  H   H924      1.0  0.74628  0.15531  0.64731  1.0000
  C   C571      1.0  0.76784  0.15543  0.64062  1.0000
  S   S228      1.0  0.62382  0.17613  0.77451  1.0000
  H   H925      1.0  0.72258  0.26277  0.77339  1.0000
  H   H926      1.0  0.51948  0.11156  0.69872  1.0000
  H   H927      1.0  0.67454  0.26307  0.77626  1.0000
  Fe  Fe113     1.0  0.62079  0.22569  0.82717  1.0000
  H   H928      1.0  0.57150  0.16462  0.78643  1.0000
  S   S229      1.0  0.62238  0.25411  0.85756  1.0000
  Fe  Fe114     1.0  0.62203  0.16613  0.81862  1.0000
  C   C572      1.0  0.69784  0.24173  0.81950  1.0000
  S   S230      1.0  0.61438  0.12507  0.83987  1.0000
  H   H929      1.0  0.64809  0.45992  0.00021  1.0000
  N   N61       1.0  0.76851  0.40767  0.98503  1.0000
  H   H930      1.0  0.66884  0.29654  0.78482  1.0000
  S   S231      1.0  0.65353  0.19216  0.82222  1.0000
  S   S232      1.0  0.58930  0.19854  0.82801  1.0000
  Fe  Fe115     1.0  0.60652  0.47396  0.86523  1.0000
  S   S233      1.0  0.60978  0.47126  0.90845  1.0000
  S   S234      1.0  0.59323  0.51262  0.84072  1.0000
  Fe  Fe116     1.0  0.61330  0.41214  0.86584  1.0000
  S   S235      1.0  0.61643  0.40535  0.90963  1.0000
  S   S236      1.0  0.61309  0.38118  0.83757  1.0000
  Fe  Fe117     1.0  0.58367  0.43873  0.91305  1.0000
  S   S237      1.0  0.54663  0.44214  0.94169  1.0000
  Fe  Fe118     1.0  0.64241  0.43863  0.90070  1.0000
  S   S238      1.0  0.68000  0.43606  0.91931  1.0000
  S   S239      1.0  0.57822  0.44300  0.87019  1.0000
  S   S240      1.0  0.64150  0.44365  0.85659  1.0000
  N   N62       1.0  0.65174  0.49383  0.97056  1.0000
  H   H931      1.0  0.54146  0.48715  0.84763  1.0000
  C   C573      1.0  0.62329  0.50359  0.97445  1.0000
  C   C574      1.0  0.55189  0.16587  0.78082  1.0000
  H   H932      1.0  0.67644  0.45668  0.97577  1.0000
  C   C575      1.0  0.55138  0.45308  0.97153  1.0000
  C   C576      1.0  0.57620  0.44912  0.98077  1.0000
  H   H933      1.0  0.55277  0.49215  0.89193  1.0000
  H   H934      1.0  0.65392  0.27032  0.80609  1.0000
  C   C577      1.0  0.70244  0.45600  0.89980  1.0000
  C   C578      1.0  0.69373  0.47624  0.88072  1.0000
  S   S241      1.0  0.76101  0.50733  0.84871  1.0000
  C   C579      1.0  0.65055  0.06479  0.79794  1.0000
  H   H935      1.0  0.61487  0.49996  0.99567  1.0000
  C   C580      1.0  0.66220  0.49943  0.94230  1.0000
  H   H936      1.0  0.67306  0.47966  0.87784  1.0000
  C   C581      1.0  0.52233  0.18203  0.86435  1.0000
  C   C582      1.0  0.73857  0.48787  0.86883  1.0000
  H   H937      1.0  0.66563  0.06240  0.78127  1.0000
  C   C583      1.0  0.61812  0.28952  0.85218  1.0000
  C   C584      1.0  0.62201  0.30402  0.87250  1.0000
  C   C585      1.0  0.62017  0.33207  0.86860  1.0000
  C   C586      1.0  0.61457  0.34595  0.84419  1.0000
  C   C587      1.0  0.61058  0.33142  0.82393  1.0000
  C   C588      1.0  0.61211  0.30344  0.82793  1.0000
  H   H938      1.0  0.62662  0.29351  0.89136  1.0000
  H   H939      1.0  0.62332  0.34294  0.88436  1.0000
  H   H940      1.0  0.60608  0.34196  0.80504  1.0000
  H   H941      1.0  0.60862  0.29271  0.81221  1.0000
  H   H942      1.0  0.68013  0.23708  0.83377  1.0000
  H   H943      1.0  0.68845  0.30854  0.82164  1.0000
  C   C589      1.0  0.72915  0.45205  0.90375  1.0000
  H   H944      1.0  0.53546  0.19166  0.87482  1.0000
  H   H945      1.0  0.70495  0.50787  0.85056  1.0000
  H   H946      1.0  0.71793  0.29663  0.78061  1.0000
  C   C590      1.0  0.52472  0.50298  0.85053  1.0000
  H   H947      1.0  0.73403  0.48507  0.79880  1.0000
  H   H948      1.0  0.75127  0.37524  0.00969  1.0000
  H   H949      1.0  0.59799  0.07346  0.85868  1.0000
  C   C591      1.0  0.69150  0.28710  0.82947  1.0000
  C   C592      1.0  0.67217  0.27525  0.79305  1.0000
  C   C593      1.0  0.71176  0.49228  0.86537  1.0000
  H   H950      1.0  0.65905  0.50363  0.00808  1.0000
  C   C594      1.0  0.74728  0.46783  0.88811  1.0000
  H   H951      1.0  0.59817  0.45407  0.01249  1.0000
  C   C595      1.0  0.65525  0.46486  0.97883  1.0000
  C   C596      1.0  0.62375  0.09367  0.82783  1.0000
  C   C597      1.0  0.71936  0.27553  0.78978  1.0000
  H   H952      1.0  0.65219  0.48896  0.92959  1.0000
  C   C598      1.0  0.66630  0.50745  0.98664  1.0000
  H   H953      1.0  0.64432  0.45394  0.96723  1.0000
  N   N63       1.0  0.69527  0.26993  0.80796  1.0000
  N   N64       1.0  0.76760  0.46122  0.78114  1.0000
  H   H954      1.0  0.73115  0.42282  0.97115  1.0000
  C   C599      1.0  0.52978  0.46578  0.98638  1.0000
  H   H955      1.0  0.59289  0.43900  0.96948  1.0000
  C   C600      1.0  0.53587  0.50797  0.89366  1.0000
  C   C601      1.0  0.61250  0.07119  0.84152  1.0000
  H   H956      1.0  0.65944  0.52102  0.93512  1.0000
  C   C602      1.0  0.53831  0.14332  0.78592  1.0000
  H   H957      1.0  0.73587  0.43646  0.91853  1.0000
  H   H958      1.0  0.68367  0.49247  0.93878  1.0000
  H   H959      1.0  0.54766  0.12486  0.79523  1.0000
  C   C603      1.0  0.63944  0.04228  0.81180  1.0000
  H   H960      1.0  0.74729  0.44683  0.98383  1.0000
  H   H961      1.0  0.52988  0.23192  0.84211  1.0000
  H   H962      1.0  0.71538  0.23671  0.83047  1.0000
  C   C604      1.0  0.55754  0.47066  0.01971  1.0000
  H   H963      1.0  0.70877  0.28404  0.84087  1.0000
  H   H964      1.0  0.52084  0.46073  0.88767  1.0000
  C   C605      1.0  0.62009  0.04571  0.83345  1.0000
  C   C606      1.0  0.64261  0.09037  0.80574  1.0000
  H   H965      1.0  0.53239  0.52212  0.84185  1.0000
  C   C607      1.0  0.53293  0.47481  0.01020  1.0000
  C   C608      1.0  0.74354  0.42558  0.98655  1.0000
  C   C609      1.0  0.57920  0.45760  0.00508  1.0000
  H   H966      1.0  0.65159  0.10739  0.79510  1.0000
  H   H967      1.0  0.68778  0.50022  0.98444  1.0000
  H   H968      1.0  0.61169  0.49340  0.96285  1.0000
  H   H969      1.0  0.76527  0.45379  0.82361  1.0000
  Fe  Fe119     1.0  0.59290  0.20953  0.78404  1.0000
  H   H970      1.0  0.53537  0.17065  0.84956  1.0000
  H   H971      1.0  0.72593  0.45854  0.78281  1.0000
  H   H972      1.0  0.69985  0.22819  0.80386  1.0000
  H   H973      1.0  0.67377  0.28276  0.84381  1.0000
  H   H974      1.0  0.75670  0.42716  0.80810  1.0000
  S   S242      1.0  0.62126  0.23932  0.78378  1.0000
  H   H975      1.0  0.73152  0.42182  0.00620  1.0000
  H   H976      1.0  0.76795  0.46448  0.89101  1.0000
  H   H977      1.0  0.73725  0.27170  0.80032  1.0000
  H   H978      1.0  0.52894  0.50820  0.91517  1.0000
  C   C610      1.0  0.76251  0.37976  0.98974  1.0000
  H   H979      1.0  0.75041  0.37540  0.97476  1.0000
  H   H980      1.0  0.61145  0.02863  0.84440  1.0000
  Fe  Fe120     1.0  0.65221  0.20478  0.77873  1.0000
  H   H981      1.0  0.53075  0.21065  0.81697  1.0000
  H   H982      1.0  0.61976  0.52531  0.96808  1.0000
  C   C611      1.0  0.74000  0.47369  0.78144  1.0000
  H   H983      1.0  0.52029  0.40029  0.97250  1.0000
  Fe  Fe121     1.0  0.64938  0.98063  0.16968  1.0000
  S   S243      1.0  0.62921  0.97522  0.21128  1.0000
  H   H984      1.0  0.70194  0.69707  0.18281  1.0000
  Fe  Fe122     1.0  0.64840  0.92083  0.16313  1.0000
  S   S244      1.0  0.62833  0.91200  0.20447  1.0000
  S   S245      1.0  0.65926  0.88866  0.13502  1.0000
  Fe  Fe123     1.0  0.60352  0.95064  0.19550  1.0000
  S   S246      1.0  0.56049  0.95419  0.21099  1.0000
  Fe  Fe124     1.0  0.65626  0.93741  0.21632  1.0000
  S   S247      1.0  0.67492  0.92472  0.25405  1.0000
  S   S248      1.0  0.62133  0.95852  0.15307  1.0000
  S   S249      1.0  0.67852  0.94382  0.17565  1.0000
  Fe  Fe125     1.0  0.65628  0.73461  0.12144  1.0000
  S   S250      1.0  0.69216  0.73914  0.09172  1.0000
  S   S251      1.0  0.64377  0.76469  0.15144  1.0000
  Fe  Fe126     1.0  0.64701  0.68107  0.10325  1.0000
  S   S252      1.0  0.68235  0.68264  0.07267  1.0000
  S   S253      1.0  0.62196  0.64784  0.10020  1.0000
  Fe  Fe127     1.0  0.70264  0.69568  0.10343  1.0000
  H   H985      1.0  0.66160  0.61316  0.12898  1.0000
  Fe  Fe128     1.0  0.66864  0.72565  0.06356  1.0000
  H   H986      1.0  0.73899  0.71893  0.21336  1.0000
  S   S254      1.0  0.66846  0.69129  0.13552  1.0000
  S   S255      1.0  0.63144  0.72413  0.09203  1.0000
  H   H987      1.0  0.72104  0.77550  0.18595  1.0000
  C   C612      1.0  0.73505  0.65931  0.15459  1.0000
  H   H988      1.0  0.71513  0.65861  0.15046  1.0000
  C   C613      1.0  0.61418  0.59618  0.09632  1.0000
  H   H989      1.0  0.56166  0.85419  0.15889  1.0000
  S   S256      1.0  0.66445  0.02106  0.15563  1.0000
  H   H990      1.0  0.73660  0.74117  0.03021  1.0000
  H   H991      1.0  0.61181  0.83744  0.12350  1.0000
  H   H992      1.0  0.66913  0.56394  0.13872  1.0000
  H   H993      1.0  0.73501  0.75352  0.14513  1.0000
  H   H994      1.0  0.72713  0.64344  0.19574  1.0000
  C   C614      1.0  0.70666  0.76065  0.19259  1.0000
  C   C615      1.0  0.65664  0.85379  0.14101  1.0000
  C   C616      1.0  0.66646  0.83789  0.12068  1.0000
  C   C617      1.0  0.66324  0.81053  0.12372  1.0000
  C   C618      1.0  0.65010  0.79864  0.14722  1.0000
  C   C619      1.0  0.64082  0.81436  0.16781  1.0000
  C   C620      1.0  0.64399  0.84175  0.16474  1.0000
  H   H995      1.0  0.67630  0.84694  0.10225  1.0000
  H   H996      1.0  0.67055  0.79882  0.10767  1.0000
  H   H997      1.0  0.63071  0.80542  0.18613  1.0000
  H   H998      1.0  0.63632  0.85363  0.18058  1.0000
  N   N65       1.0  0.71581  0.73522  0.18182  1.0000
  H   H999      1.0  0.72570  0.72111  0.14366  1.0000
  H   H1000     1.0  0.58380  0.82489  0.16600  1.0000
  C   C621      1.0  0.75410  0.66863  0.13451  1.0000
  H   H1001     1.0  0.59776  0.84344  0.09297  1.0000
  H   H1002     1.0  0.55004  0.83694  0.09306  1.0000
  H   H1003     1.0  0.57509  0.93115  0.16223  1.0000
  H   H1004     1.0  0.70064  0.60867  0.05006  1.0000
  H   H1005     1.0  0.55062  0.54286  0.11109  1.0000
  H   H1006     1.0  0.56179  0.78957  0.13292  1.0000
  C   C622      1.0  0.74187  0.65057  0.18011  1.0000
  C   C623      1.0  0.63848  0.55636  0.11683  1.0000
  H   H1007     1.0  0.54270  0.86207  0.11498  1.0000
  H   H1008     1.0  0.55111  0.97553  0.12948  1.0000
  H   H1009     1.0  0.55109  0.98373  0.16231  1.0000
  C   C624      1.0  0.67869  0.61239  0.05190  1.0000
  C   C625      1.0  0.74410  0.72119  0.03959  1.0000
  H   H1010     1.0  0.63090  0.60786  0.03839  1.0000
  H   H1011     1.0  0.65881  0.98118  0.25188  1.0000
  C   C626      1.0  0.54399  0.90765  0.15940  1.0000
  C   C627      1.0  0.69576  0.71645  0.19062  1.0000
  C   C628      1.0  0.56629  0.83297  0.15566  1.0000
  C   C629      1.0  0.74117  0.72381  0.19141  1.0000
  C   C630      1.0  0.65398  0.57284  0.12653  1.0000
  H   H1012     1.0  0.58274  0.79831  0.10266  1.0000
  H   H1013     1.0  0.67059  0.59371  0.06145  1.0000
  C   C631      1.0  0.61888  0.56822  0.10121  1.0000
  N   N66       1.0  0.57133  0.82992  0.12710  1.0000
  C   C632      1.0  0.57821  0.80146  0.12391  1.0000
  C   C633      1.0  0.54744  0.84029  0.11427  1.0000
  C   C634      1.0  0.59347  0.84499  0.11458  1.0000
  C   C635      1.0  0.54559  0.93201  0.19638  1.0000
  C   C636      1.0  0.64001  0.62614  0.02941  1.0000
  H   H1014     1.0  0.55790  0.00807  0.13448  1.0000
  H   H1015     1.0  0.70383  0.75788  0.21464  1.0000
  C   C637      1.0  0.58707  0.94476  0.27015  1.0000
  H   H1016     1.0  0.58931  0.86645  0.11724  1.0000
  C   C638      1.0  0.54551  0.99170  0.14236  1.0000
  H   H1017     1.0  0.75660  0.73770  0.18573  1.0000
  H   H1018     1.0  0.70095  0.74928  0.14476  1.0000
  S   S257      1.0  0.74563  0.68132  0.10308  1.0000
  C   C639      1.0  0.55682  0.92413  0.17188  1.0000
  C   C640      1.0  0.76781  0.65092  0.18540  1.0000
  H   H1019     1.0  0.74897  0.70509  0.18287  1.0000
  H   H1020     1.0  0.53512  0.94436  0.26864  1.0000
  C   C641      1.0  0.64974  0.60080  0.12106  1.0000
  H   H1021     1.0  0.54915  0.82258  0.16565  1.0000
  H   H1022     1.0  0.60667  0.55588  0.09375  1.0000
  H   H1023     1.0  0.59834  0.60512  0.08503  1.0000
  H   H1024     1.0  0.72968  0.90183  0.27165  1.0000
  C   C642      1.0  0.62944  0.61268  0.10633  1.0000
  H   H1025     1.0  0.59597  0.79297  0.13370  1.0000
  C   C643      1.0  0.71955  0.73998  0.15256  1.0000
  H   H1026     1.0  0.67238  0.62754  0.06584  1.0000
  H   H1027     1.0  0.67638  0.72442  0.18363  1.0000
  H   H1028     1.0  0.55229  0.90231  0.14006  1.0000
  H   H1029     1.0  0.68738  0.76955  0.18586  1.0000
  H   H1030     1.0  0.52979  0.83077  0.12437  1.0000
  H   H1031     1.0  0.62841  0.71259  0.03687  1.0000
  H   H1032     1.0  0.70738  0.52908  0.08497  1.0000
  H   H1033     1.0  0.72659  0.71089  0.04829  1.0000
  H   H1034     1.0  0.63288  0.64171  0.04277  1.0000
  H   H1035     1.0  0.75483  0.72395  0.05629  1.0000
  H   H1036     1.0  0.57801  0.96366  0.25998  1.0000
  H   H1037     1.0  0.59448  0.93135  0.25474  1.0000
  C   C644      1.0  0.65319  0.97189  0.27172  1.0000
  H   H1038     1.0  0.69244  0.71233  0.21261  1.0000
  H   H1039     1.0  0.55193  0.91228  0.26372  1.0000
  H   H1040     1.0  0.75348  0.66823  0.04282  1.0000
  C   C645      1.0  0.52038  0.89834  0.17183  1.0000
  C   C646      1.0  0.52208  0.92261  0.20889  1.0000
  Fe  Fe129     1.0  0.57298  0.95935  0.43123  1.0000
  S   S258      1.0  0.56622  0.91655  0.43243  1.0000
  S   S259      1.0  0.56870  0.97922  0.46816  1.0000
  Fe  Fe130     1.0  0.59238  0.96501  0.37281  1.0000
  S   S260      1.0  0.58714  0.92286  0.36933  1.0000
  S   S261      1.0  0.60852  0.99261  0.33821  1.0000
  Fe  Fe131     1.0  0.54796  0.93050  0.39453  1.0000
  H   H1041     1.0  0.59878  0.91177  0.31280  1.0000
  Fe  Fe132     1.0  0.60589  0.91350  0.40702  1.0000
  S   S262      1.0  0.63990  0.88134  0.41412  1.0000
  S   S263      1.0  0.55243  0.97366  0.39536  1.0000
  S   S264      1.0  0.61342  0.95529  0.40873  1.0000
  C   C647      1.0  0.67337  0.88791  0.40612  1.0000
  C   C648      1.0  0.68018  0.91226  0.39259  1.0000
  H   H1042     1.0  0.66489  0.92727  0.38606  1.0000
  H   H1043     1.0  0.63254  0.88598  0.50818  1.0000
  C   C649      1.0  0.72884  0.91744  0.31938  1.0000
  H   H1044     1.0  0.53060  0.91678  0.29411  1.0000
  H   H1045     1.0  0.57239  0.01897  0.42192  1.0000
  C   C650      1.0  0.66580  0.92419  0.45835  1.0000
  H   H1046     1.0  0.70339  0.88787  0.29346  1.0000
  C   C651      1.0  0.70687  0.91724  0.38750  1.0000
  H   H1047     1.0  0.62861  0.89064  0.47348  1.0000
  C   C652      1.0  0.69359  0.86859  0.41426  1.0000
  C   C653      1.0  0.58076  0.01039  0.46241  1.0000
  C   C654      1.0  0.67071  0.91809  0.50488  1.0000
  H   H1048     1.0  0.68855  0.84971  0.42478  1.0000
  H   H1049     1.0  0.59150  0.00760  0.50190  1.0000
  C   C655      1.0  0.66107  0.00978  0.36691  1.0000
  H   H1050     1.0  0.63534  0.95853  0.48784  1.0000
  H   H1051     1.0  0.63529  0.93921  0.34358  1.0000
  C   C656      1.0  0.62923  0.93816  0.48997  1.0000
  H   H1052     1.0  0.67329  0.94399  0.45566  1.0000
  H   H1053     1.0  0.68118  0.00254  0.37235  1.0000
  H   H1054     1.0  0.61855  0.93432  0.51024  1.0000
  C   C657      1.0  0.72033  0.87351  0.40899  1.0000
  H   H1055     1.0  0.73883  0.92151  0.33610  1.0000
  H   H1056     1.0  0.66048  0.91229  0.31006  1.0000
  H   H1057     1.0  0.68299  0.90916  0.45398  1.0000
  H   H1058     1.0  0.64721  0.99579  0.37774  1.0000
  H   H1059     1.0  0.55389  0.98295  0.52447  1.0000
  H   H1060     1.0  0.63154  0.00764  0.28491  1.0000
  N   N67       1.0  0.56799  0.93246  0.29098  1.0000
  C   C658      1.0  0.72712  0.89787  0.39552  1.0000
  H   H1061     1.0  0.71187  0.93618  0.37714  1.0000
  H   H1062     1.0  0.61464  0.93819  0.47580  1.0000
  N   N68       1.0  0.65212  0.91797  0.48532  1.0000
  C   C659      1.0  0.54538  0.92615  0.27891  1.0000
  H   H1063     1.0  0.73212  0.86668  0.28216  1.0000
  S   S265      1.0  0.76055  0.90432  0.38647  1.0000
  H   H1064     1.0  0.54794  0.96982  0.30148  1.0000
  H   H1065     1.0  0.58386  0.90034  0.52306  1.0000
  H   H1066     1.0  0.74121  0.87172  0.35165  1.0000
  H   H1067     1.0  0.65945  0.87571  0.48414  1.0000
  C   C660      1.0  0.55843  0.95119  0.31066  1.0000
  C   C661      1.0  0.63815  0.98694  0.29052  1.0000
  H   H1068     1.0  0.70899  0.87303  0.34150  1.0000
  C   C662      1.0  0.76697  0.88780  0.30527  1.0000
  N   N69       1.0  0.73791  0.89053  0.31198  1.0000
  C   C663      1.0  0.65469  0.93320  0.30463  1.0000
  H   H1069     1.0  0.67771  0.93796  0.50396  1.0000
  C   C664      1.0  0.63994  0.94832  0.32350  1.0000
  C   C665      1.0  0.63075  0.97490  0.31616  1.0000
  H   H1070     1.0  0.73567  0.84986  0.32910  1.0000
  H   H1071     1.0  0.68838  0.90333  0.50162  1.0000
  H   H1072     1.0  0.70714  0.91991  0.32564  1.0000
  H   H1073     1.0  0.73567  0.85836  0.41520  1.0000
  H   H1074     1.0  0.66134  0.00837  0.34539  1.0000
  H   H1075     1.0  0.53629  0.89906  0.52334  1.0000
  H   H1076     1.0  0.65226  0.92433  0.44320  1.0000
  C   C666      1.0  0.73056  0.87041  0.33449  1.0000
  C   C667      1.0  0.58116  0.90777  0.30416  1.0000
  C   C668      1.0  0.64277  0.89141  0.48791  1.0000
  C   C669      1.0  0.59081  0.01972  0.48295  1.0000
  H   H1077     1.0  0.58812  0.89303  0.28992  1.0000
  H   H1078     1.0  0.57508  0.95694  0.31962  1.0000
  H   H1079     1.0  0.73317  0.93305  0.30250  1.0000
  H   H1080     1.0  0.54447  0.94233  0.32712  1.0000
  H   H1081     1.0  0.66128  0.91287  0.52545  1.0000
  H   H1082     1.0  0.56755  0.89830  0.32055  1.0000
  C   C670      1.0  0.72529  0.88650  0.28882  1.0000
  H   H1083     1.0  0.60450  0.94941  0.27852  1.0000
  H   H1084     1.0  0.51997  0.01989  0.51189  1.0000
  C   C671      1.0  0.66056  0.94476  0.27848  1.0000
  H   H1085     1.0  0.63924  0.02466  0.41388  1.0000
  Fe  Fe133     1.0  0.64757  0.90906  0.58832  1.0000
  S   S266      1.0  0.63890  0.92310  0.62833  1.0000
  S   S267      1.0  0.61629  0.90654  0.56133  1.0000
  Fe  Fe134     1.0  0.70825  0.89985  0.59147  1.0000
  S   S268      1.0  0.70319  0.91319  0.63176  1.0000
  S   S269      1.0  0.74802  0.88001  0.57397  1.0000
  Fe  Fe135     1.0  0.66878  0.88929  0.64059  1.0000
  S   S270      1.0  0.66556  0.86347  0.67975  1.0000
  Fe  Fe136     1.0  0.67405  0.94571  0.61579  1.0000
  S   S271      1.0  0.67225  0.98498  0.63145  1.0000
  S   S272      1.0  0.67534  0.87340  0.60146  1.0000
  S   S273      1.0  0.68122  0.93436  0.57427  1.0000
  C   C672      1.0  0.60612  0.91329  0.73175  1.0000
  C   C673      1.0  0.60127  0.91055  0.70621  1.0000
  C   C674      1.0  0.61876  0.89380  0.69085  1.0000
  C   C675      1.0  0.64128  0.88010  0.70082  1.0000
  C   C676      1.0  0.64526  0.88154  0.72700  1.0000
  C   C677      1.0  0.62758  0.89810  0.74252  1.0000
  H   H1086     1.0  0.58438  0.92184  0.69802  1.0000
  H   H1087     1.0  0.61490  0.89161  0.67115  1.0000
  H   H1088     1.0  0.66253  0.87071  0.73489  1.0000
  H   H1089     1.0  0.54659  0.98964  0.55839  1.0000
  C   C678      1.0  0.56410  0.90725  0.58799  1.0000
  C   C679      1.0  0.58147  0.90503  0.56442  1.0000
  H   H1090     1.0  0.60941  0.98949  0.72026  1.0000
  H   H1091     1.0  0.57193  0.90957  0.60595  1.0000
  H   H1092     1.0  0.61121  0.84515  0.76988  1.0000
  C   C680      1.0  0.56495  0.82420  0.77611  1.0000
  H   H1093     1.0  0.54531  0.95692  0.54998  1.0000
  H   H1094     1.0  0.74451  0.85743  0.69698  1.0000
  H   H1095     1.0  0.75910  0.88679  0.63986  1.0000
  C   C681      1.0  0.54376  0.90132  0.54154  1.0000
  C   C682      1.0  0.53644  0.90652  0.58814  1.0000
  S   S274      1.0  0.58543  0.93609  0.74972  1.0000
  C   C683      1.0  0.52621  0.90356  0.56473  1.0000
  C   C684      1.0  0.68595  0.01022  0.58128  1.0000
  N   N70       1.0  0.65174  0.98801  0.71747  1.0000
  C   C685      1.0  0.56250  0.87189  0.77402  1.0000
  H   H1096     1.0  0.62106  0.01182  0.73940  1.0000
  H   H1097     1.0  0.76220  0.80553  0.67408  1.0000
  H   H1098     1.0  0.67597  0.95774  0.69706  1.0000
  H   H1099     1.0  0.72252  0.83732  0.68639  1.0000
  C   C686      1.0  0.68200  0.01182  0.60858  1.0000
  H   H1100     1.0  0.63093  0.89948  0.76258  1.0000
  C   C687      1.0  0.54084  0.97848  0.54332  1.0000
  H   H1101     1.0  0.65552  0.94541  0.72645  1.0000
  H   H1102     1.0  0.72891  0.85768  0.62833  1.0000
  H   H1103     1.0  0.52313  0.90841  0.60620  1.0000
  H   H1104     1.0  0.75733  0.83577  0.61816  1.0000
  N   N71       1.0  0.75578  0.84648  0.65757  1.0000
  C   C688      1.0  0.73548  0.85347  0.67962  1.0000
  H   H1105     1.0  0.67094  0.97653  0.75268  1.0000
  H   H1106     1.0  0.54081  0.87429  0.77313  1.0000
  H   H1107     1.0  0.57262  0.87370  0.75335  1.0000
  C   C689      1.0  0.57093  0.90208  0.54138  1.0000
  H   H1108     1.0  0.68319  0.99210  0.57387  1.0000
  H   H1109     1.0  0.69219  0.98855  0.72390  1.0000
  C   C690      1.0  0.74271  0.84047  0.63549  1.0000
  H   H1110     1.0  0.66873  0.01125  0.74144  1.0000
  H   H1111     1.0  0.75452  0.65900  0.77694  1.0000
  C   C691      1.0  0.67182  0.99120  0.73453  1.0000
  C   C692      1.0  0.65635  0.96106  0.70909  1.0000
  H   H1112     1.0  0.64119  0.95783  0.69660  1.0000
  H   H1113     1.0  0.57511  0.82472  0.75546  1.0000
  C   C693      1.0  0.62511  0.99183  0.73244  1.0000
  H   H1114     1.0  0.73086  0.82339  0.64156  1.0000
  H   H1115     1.0  0.62298  0.97698  0.75034  1.0000
  H   H1116     1.0  0.72225  0.87160  0.67351  1.0000
  H   H1117     1.0  0.67367  0.00579  0.68219  1.0000
  H   H1118     1.0  0.54330  0.82513  0.77527  1.0000
  H   H1119     1.0  0.74299  0.69388  0.77495  1.0000
  C   C694      1.0  0.65369  0.00800  0.69378  1.0000
  H   H1120     1.0  0.63923  0.00581  0.68012  1.0000
  Fe  Fe137     1.0  0.63382  0.91128  0.83044  1.0000
  S   S275      1.0  0.59235  0.91053  0.82299  1.0000
  S   S276      1.0  0.65684  0.87050  0.83949  1.0000
  Fe  Fe138     1.0  0.63024  0.97290  0.81604  1.0000
  S   S277      1.0  0.58815  0.97560  0.80807  1.0000
  S   S278      1.0  0.65094  0.01026  0.80197  1.0000
  Fe  Fe139     1.0  0.58319  0.94637  0.84453  1.0000
  S   S279      1.0  0.54469  0.94505  0.87052  1.0000
  H   H1121     1.0  0.67049  0.60667  0.98840  1.0000
  H   H1122     1.0  0.52840  0.64328  0.89890  1.0000
  S   S280      1.0  0.62444  0.94579  0.85487  1.0000
  S   S281      1.0  0.64380  0.93819  0.79266  1.0000
  Fe  Fe140     1.0  0.61654  0.72085  0.86970  1.0000
  S   S282      1.0  0.64866  0.70776  0.89535  1.0000
  S   S283      1.0  0.59915  0.76451  0.86406  1.0000
  Fe  Fe141     1.0  0.60799  0.66245  0.86572  1.0000
  S   S284      1.0  0.63931  0.64525  0.89119  1.0000
  S   S285      1.0  0.58128  0.63705  0.85069  1.0000
  Fe  Fe142     1.0  0.62304  0.67734  0.91657  1.0000
  S   S286      1.0  0.61649  0.66912  0.96106  1.0000
  Fe  Fe143     1.0  0.66284  0.67693  0.86808  1.0000
  S   S287      1.0  0.70724  0.67001  0.85971  1.0000
  S   S288      1.0  0.58939  0.69230  0.89314  1.0000
  S   S289      1.0  0.63268  0.69220  0.83998  1.0000
  C   C695      1.0  0.63253  0.68939  0.97716  1.0000
  H   H1123     1.0  0.63002  0.80222  0.97557  1.0000
  C   C696      1.0  0.62306  0.69363  0.00331  1.0000
  H   H1124     1.0  0.66369  0.69597  0.94517  1.0000
  H   H1125     1.0  0.56692  0.88900  0.78333  1.0000
  C   C697      1.0  0.71142  0.64746  0.93779  1.0000
  C   C698      1.0  0.70204  0.65516  0.91331  1.0000
  C   C699      1.0  0.71936  0.66197  0.89059  1.0000
  H   H1126     1.0  0.57137  0.80458  0.78704  1.0000
  H   H1127     1.0  0.68131  0.65560  0.91219  1.0000
  H   H1128     1.0  0.72861  0.69144  0.00634  1.0000
  H   H1129     1.0  0.74857  0.59576  0.89054  1.0000
  C   C700      1.0  0.52644  0.92870  0.85256  1.0000
  N   N72       1.0  0.57117  0.84631  0.78917  1.0000
  H   H1130     1.0  0.67402  0.65297  0.99418  1.0000
  H   H1131     1.0  0.60572  0.68477  0.01324  1.0000
  C   C701      1.0  0.64078  0.84104  0.84659  1.0000
  C   C702      1.0  0.65546  0.81621  0.84358  1.0000
  C   C703      1.0  0.64320  0.79249  0.84905  1.0000
  C   C704      1.0  0.61610  0.79339  0.85777  1.0000
  C   C705      1.0  0.60164  0.81812  0.86150  1.0000
  C   C706      1.0  0.61382  0.84179  0.85587  1.0000
  H   H1132     1.0  0.67639  0.81538  0.83666  1.0000
  H   H1133     1.0  0.65464  0.77360  0.84619  1.0000
  H   H1134     1.0  0.58085  0.81899  0.86898  1.0000
  H   H1135     1.0  0.60240  0.86059  0.85909  1.0000
  H   H1136     1.0  0.53921  0.67082  0.87638  1.0000
  H   H1137     1.0  0.55873  0.60530  0.82086  1.0000
  H   H1138     1.0  0.66417  0.52932  0.98090  1.0000
  H   H1139     1.0  0.73859  0.72185  0.98830  1.0000
  C   C707      1.0  0.63590  0.70938  0.01668  1.0000
  H   H1140     1.0  0.62857  0.74622  0.93657  1.0000
  C   C708      1.0  0.60227  0.79465  0.93680  1.0000
  H   H1141     1.0  0.59502  0.81370  0.94497  1.0000
  H   H1142     1.0  0.59753  0.79689  0.91602  1.0000
  H   H1143     1.0  0.59070  0.77890  0.94819  1.0000
  H   H1144     1.0  0.64176  0.81269  0.90183  1.0000
  H   H1145     1.0  0.66725  0.80453  0.92309  1.0000
  H   H1146     1.0  0.76354  0.54417  0.92649  1.0000
  C   C709      1.0  0.57430  0.56461  0.83067  1.0000
  H   H1147     1.0  0.74769  0.69994  0.83250  1.0000
  C   C710      1.0  0.60002  0.84415  0.79011  1.0000
  H   H1148     1.0  0.75882  0.72210  0.80410  1.0000
  H   H1149     1.0  0.53530  0.84724  0.81633  1.0000
  C   C711      1.0  0.65523  0.70054  0.96463  1.0000
  C   C712      1.0  0.60290  0.58426  0.86493  1.0000
  C   C713      1.0  0.73819  0.64718  0.93997  1.0000
  C   C714      1.0  0.66777  0.71674  0.97780  1.0000
  H   H1150     1.0  0.65781  0.77843  0.96749  1.0000
  H   H1151     1.0  0.56183  0.86093  0.82714  1.0000
  C   C715      1.0  0.55712  0.84493  0.81638  1.0000
  H   H1152     1.0  0.60555  0.86052  0.79976  1.0000
  C   C716      1.0  0.67784  0.60066  0.00803  1.0000
  C   C717      1.0  0.57168  0.59188  0.83281  1.0000
  C   C718      1.0  0.65805  0.72121  0.00381  1.0000
  H   H1153     1.0  0.66106  0.75653  0.92691  1.0000
  H   H1154     1.0  0.67034  0.58143  0.01659  1.0000
  H   H1155     1.0  0.69786  0.64155  0.95494  1.0000
  H   H1156     1.0  0.63616  0.76507  0.90493  1.0000
  C   C719      1.0  0.64551  0.80927  0.92295  1.0000
  H   H1157     1.0  0.74694  0.54663  0.89733  1.0000
  H   H1158     1.0  0.60724  0.82512  0.80155  1.0000
  C   C720      1.0  0.58614  0.60207  0.84957  1.0000
  H   H1159     1.0  0.61406  0.59185  0.87808  1.0000
  N   N73       1.0  0.63094  0.78769  0.93796  1.0000
  H   H1160     1.0  0.70232  0.64358  0.01164  1.0000
  N   N74       1.0  0.76122  0.70574  0.02026  1.0000
  C   C721      1.0  0.63961  0.76280  0.92610  1.0000
  H   H1161     1.0  0.63952  0.82843  0.93129  1.0000
  H   H1162     1.0  0.54125  0.94868  0.81467  1.0000
  H   H1163     1.0  0.76298  0.65093  0.83414  1.0000
  S   S290      1.0  0.67393  0.74109  0.02039  1.0000
  H   H1164     1.0  0.56242  0.82547  0.82805  1.0000
  C   C722      1.0  0.63634  0.78387  0.96588  1.0000
  H   H1165     1.0  0.56349  0.55743  0.81692  1.0000
  H   H1166     1.0  0.62580  0.76755  0.97770  1.0000
  C   C723      1.0  0.74622  0.66209  0.89279  1.0000
  H   H1167     1.0  0.68538  0.72522  0.96805  1.0000
  C   C724      1.0  0.59088  0.54666  0.84578  1.0000
  H   H1168     1.0  0.61808  0.54287  0.87489  1.0000
  C   C725      1.0  0.60505  0.55649  0.86325  1.0000
  C   C726      1.0  0.74607  0.70234  0.99865  1.0000
  S   S291      1.0  0.74960  0.63646  0.97070  1.0000
  Fe  Fe144     1.0  0.60116  0.93958  0.78748  1.0000
  H   H1169     1.0  0.75975  0.66811  0.87563  1.0000
  C   C727      1.0  0.52936  0.93354  0.82483  1.0000
  C   C728      1.0  0.76824  0.59204  0.89799  1.0000
  C   C729      1.0  0.75560  0.65490  0.91753  1.0000
  H   H1170     1.0  0.73215  0.67178  0.80355  1.0000
  H   H1171     1.0  0.63212  0.63303  0.01017  1.0000
  N   N75       1.0  0.66921  0.62132  0.02588  1.0000
  C   C730      1.0  0.68031  0.64616  0.01406  1.0000
  H   H1172     1.0  0.76492  0.59314  0.91976  1.0000
  H   H1173     1.0  0.52560  0.67565  0.90973  1.0000
  H   H1174     1.0  0.69983  0.59720  0.00437  1.0000
  C   C731      1.0  0.76469  0.70358  0.81701  1.0000
  C   C732      1.0  0.52366  0.66493  0.89274  1.0000
  C   C733      1.0  0.76666  0.54450  0.90456  1.0000
  H   H1175     1.0  0.75841  0.69083  0.98360  1.0000
  H   H1176     1.0  0.67338  0.66252  0.02634  1.0000
  H   H1177     1.0  0.76694  0.56691  0.85470  1.0000
  C   C734      1.0  0.74948  0.67617  0.78863  1.0000
  H   H1178     1.0  0.51985  0.92232  0.78864  1.0000
  H   H1179     1.0  0.54385  0.52719  0.88588  1.0000
  Fe  Fe145     1.0  0.85773  0.49863  0.09857  1.0000
  S   S292      1.0  0.86775  0.45461  0.10477  1.0000
  C   C735      1.0  0.88349  0.50899  0.14866  1.0000
  Fe  Fe146     1.0  0.79986  0.49475  0.10025  1.0000
  S   S293      1.0  0.80492  0.45017  0.10751  1.0000
  S   S294      1.0  0.84920  0.42745  0.04214  1.0000
  Fe  Fe147     1.0  0.83275  0.45563  0.13652  1.0000
  S   S295      1.0  0.83658  0.43112  0.17696  1.0000
  Fe  Fe148     1.0  0.83924  0.45410  0.07511  1.0000
  H   H1180     1.0  0.89940  0.46855  0.25602  1.0000
  S   S296      1.0  0.82435  0.49998  0.13163  1.0000
  S   S297      1.0  0.83227  0.49833  0.06661  1.0000
  N   N76       1.0  0.92526  0.45375  0.22323  1.0000
  H   H1181     1.0  0.90721  0.49330  0.22845  1.0000
  H   H1182     1.0  0.89394  0.48310  0.05453  1.0000
  H   H1183     1.0  0.82454  0.49792  0.24046  1.0000
  H   H1184     1.0  0.91044  0.45630  0.18562  1.0000
  H   H1185     1.0  0.96688  0.44404  0.22580  1.0000
  H   H1186     1.0  0.88469  0.47005  0.22629  1.0000
  H   H1187     1.0  0.93553  0.41151  0.22405  1.0000
  H   H1188     1.0  0.87279  0.49773  0.19019  1.0000
  H   H1189     1.0  0.87950  0.49031  0.14326  1.0000
  H   H1190     1.0  0.90106  0.42240  0.22313  1.0000
  C   C736      1.0  0.91908  0.42609  0.23128  1.0000
  H   H1191     1.0  0.94773  0.45370  0.25564  1.0000
  H   H1192     1.0  0.95488  0.47837  0.22795  1.0000
  H   H1193     1.0  0.93279  0.48011  0.18720  1.0000
  C   C737      1.0  0.88009  0.51299  0.17538  1.0000
  H   H1194     1.0  0.91532  0.42159  0.25325  1.0000
  C   C738      1.0  0.83049  0.47735  0.23749  1.0000
  C   C739      1.0  0.82973  0.46920  0.21239  1.0000
  C   C740      1.0  0.83749  0.44272  0.20808  1.0000
  C   C741      1.0  0.84604  0.42459  0.22924  1.0000
  H   H1195     1.0  0.89554  0.51848  0.26795  1.0000
  H   H1196     1.0  0.85420  0.41864  0.27009  1.0000
  H   H1197     1.0  0.82306  0.48344  0.19642  1.0000
  H   H1198     1.0  0.85175  0.40398  0.22630  1.0000
  C   C742      1.0  0.84742  0.43285  0.25415  1.0000
  C   C743      1.0  0.83953  0.45930  0.25849  1.0000
  H   H1199     1.0  0.94523  0.44581  0.18495  1.0000
  C   C744      1.0  0.90328  0.47224  0.23406  1.0000
  C   C745      1.0  0.92868  0.45919  0.19397  1.0000
  C   C746      1.0  0.94978  0.45763  0.23359  1.0000
  H   H1200     1.0  0.77745  0.47848  0.06086  1.0000
  H   H1201     1.0  0.91205  0.46444  0.02938  1.0000
  H   H1202     1.0  0.92632  0.51601  0.04643  1.0000
  C   C747      1.0  0.89665  0.48137  0.03292  1.0000
  Fe  Fe149     1.0  0.91223  0.46253  0.34614  1.0000
  S   S298      1.0  0.86854  0.47181  0.35660  1.0000
  S   S299      1.0  0.93384  0.49814  0.34566  1.0000
  Fe  Fe150     1.0  0.90682  0.40569  0.33909  1.0000
  S   S300      1.0  0.86271  0.41127  0.34882  1.0000
  S   S301      1.0  0.92700  0.36524  0.33139  1.0000
  Fe  Fe151     1.0  0.86536  0.44988  0.32198  1.0000
  C   C748      1.0  0.00701  0.47295  0.31094  1.0000
  Fe  Fe152     1.0  0.87106  0.43238  0.38218  1.0000
  S   S302      1.0  0.85340  0.41963  0.42467  1.0000
  S   S303      1.0  0.90911  0.44291  0.31039  1.0000
  S   S304      1.0  0.91508  0.42457  0.37372  1.0000
  Fe  Fe153     1.0  0.87416  0.21005  0.38519  1.0000
  S   S305      1.0  0.86874  0.25335  0.38961  1.0000
  S   S306      1.0  0.91521  0.18712  0.38094  1.0000
  Fe  Fe154     1.0  0.81372  0.20746  0.38690  1.0000
  S   S307      1.0  0.80428  0.25087  0.39088  1.0000
  S   S308      1.0  0.78275  0.17832  0.39005  1.0000
  Fe  Fe155     1.0  0.83958  0.25658  0.36038  1.0000
  S   S309      1.0  0.83721  0.29209  0.32938  1.0000
  Fe  Fe156     1.0  0.83429  0.24379  0.41942  1.0000
  S   S310      1.0  0.82511  0.25974  0.45846  1.0000
  S   S311      1.0  0.84692  0.21360  0.35357  1.0000
  S   S312      1.0  0.84178  0.19991  0.41795  1.0000
  H   H1203     1.0  0.00208  0.22587  0.50534  1.0000
  C   C749      1.0  0.91832  0.20452  0.47393  1.0000
  H   H1204     1.0  0.92452  0.16504  0.44350  1.0000
  H   H1205     1.0  0.77679  0.15727  0.47664  1.0000
  H   H1206     1.0  0.89598  0.18721  0.43632  1.0000
  C   C750      1.0  0.85415  0.26528  0.47011  1.0000
  H   H1207     1.0  0.88047  0.48978  0.46946  1.0000
  C   C751      1.0  0.87546  0.27440  0.45268  1.0000
  C   C752      1.0  0.89931  0.27670  0.46216  1.0000
  H   H1208     1.0  0.87367  0.27978  0.43194  1.0000
  C   C753      1.0  0.86057  0.43386  0.45236  1.0000
  C   C754      1.0  0.87001  0.45876  0.44940  1.0000
  C   C755      1.0  0.87389  0.47024  0.47191  1.0000
  H   H1209     1.0  0.97016  0.16985  0.36696  1.0000
  H   H1210     1.0  0.01794  0.45460  0.30547  1.0000
  C   C756      1.0  0.85569  0.42033  0.47804  1.0000
  H   H1211     1.0  0.87350  0.46948  0.42982  1.0000
  H   H1212     1.0  0.84101  0.32891  0.44507  1.0000
  H   H1213     1.0  0.84814  0.40120  0.48062  1.0000
  C   C757      1.0  0.90349  0.34431  0.32755  1.0000
  C   C758      1.0  0.87987  0.35489  0.31758  1.0000
  C   C759      1.0  0.85991  0.33856  0.31737  1.0000
  C   C760      1.0  0.86354  0.31154  0.32701  1.0000
  C   C761      1.0  0.88771  0.30069  0.33570  1.0000
  C   C762      1.0  0.90764  0.31703  0.33600  1.0000
  H   H1214     1.0  0.87694  0.37568  0.30993  1.0000
  H   H1215     1.0  0.84147  0.34696  0.31010  1.0000
  H   H1216     1.0  0.89117  0.27963  0.34190  1.0000
  H   H1217     1.0  0.92596  0.30857  0.34334  1.0000
  C   C763      1.0  0.96647  0.49691  0.32993  1.0000
  H   H1218     1.0  0.00486  0.23390  0.46997  1.0000
  S   S313      1.0  0.93278  0.26924  0.50023  1.0000
  H   H1219     1.0  0.79271  0.17681  0.44854  1.0000
  C   C764      1.0  0.99162  0.21273  0.40262  1.0000
  C   C765      1.0  0.98058  0.47314  0.32278  1.0000
  H   H1220     1.0  0.90943  0.49863  0.41157  1.0000
  C   C766      1.0  0.86009  0.43156  0.50051  1.0000
  S   S314      1.0  0.87296  0.47253  0.52549  1.0000
  H   H1221     1.0  0.97132  0.45489  0.32671  1.0000
  C   C767      1.0  0.94437  0.19861  0.38813  1.0000
  C   C768      1.0  0.94335  0.21908  0.40392  1.0000
  C   C769      1.0  0.96917  0.18576  0.37911  1.0000
  H   H1222     1.0  0.92446  0.22929  0.41083  1.0000
  N   N77       1.0  0.83477  0.34557  0.40531  1.0000
  C   C770      1.0  0.88041  0.26103  0.50641  1.0000
  C   C771      1.0  0.99267  0.31980  0.31883  1.0000
  H   H1223     1.0  0.85585  0.42111  0.52015  1.0000
  H   H1224     1.0  0.79782  0.36849  0.39802  1.0000
  H   H1225     1.0  0.83747  0.30293  0.40876  1.0000
  H   H1226     1.0  0.82499  0.38775  0.39652  1.0000
  H   H1227     1.0  0.91103  0.22070  0.45903  1.0000
  H   H1228     1.0  0.80515  0.31941  0.40481  1.0000
  C   C772      1.0  0.99271  0.19301  0.38599  1.0000
  H   H1229     1.0  0.87003  0.36523  0.40107  1.0000
  C   C773      1.0  0.90201  0.26938  0.48899  1.0000
  C   C774      1.0  0.00469  0.52029  0.31274  1.0000
  H   H1230     1.0  0.91591  0.28325  0.44854  1.0000
  N   N78       1.0  0.90246  0.18183  0.47727  1.0000
  H   H1231     1.0  0.99738  0.34060  0.31237  1.0000
  H   H1232     1.0  0.82291  0.36887  0.36989  1.0000
  C   C775      1.0  0.90379  0.17161  0.45147  1.0000
  C   C776      1.0  0.87469  0.19075  0.48680  1.0000
  H   H1233     1.0  0.83045  0.31953  0.37695  1.0000
  H   H1234     1.0  0.89212  0.15444  0.45294  1.0000
  C   C777      1.0  0.91305  0.16057  0.49681  1.0000
  H   H1235     1.0  0.78455  0.22586  0.44430  1.0000
  H   H1236     1.0  0.01158  0.18260  0.37925  1.0000
  C   C778      1.0  0.92233  0.33682  0.50786  1.0000
  H   H1237     1.0  0.91733  0.21321  0.49277  1.0000
  H   H1238     1.0  0.94193  0.32470  0.50580  1.0000
  H   H1239     1.0  0.86215  0.17412  0.48960  1.0000
  C   C779      1.0  0.98116  0.32825  0.36434  1.0000
  N   N79       1.0  0.99800  0.31093  0.34644  1.0000
  H   H1240     1.0  0.98512  0.32269  0.38526  1.0000
  C   C780      1.0  0.97854  0.52043  0.32482  1.0000
  C   C781      1.0  0.82661  0.32079  0.39867  1.0000
  H   H1241     1.0  0.95980  0.32696  0.36369  1.0000
  H   H1242     1.0  0.00378  0.25971  0.49074  1.0000
  H   H1243     1.0  0.92476  0.35707  0.49733  1.0000
  H   H1244     1.0  0.86763  0.34650  0.37456  1.0000
  C   C782      1.0  0.85646  0.25925  0.49708  1.0000
  C   C783      1.0  0.81942  0.36867  0.39184  1.0000
  H   H1245     1.0  0.80848  0.34546  0.44175  1.0000
  H   H1246     1.0  0.88199  0.25578  0.52708  1.0000
  H   H1247     1.0  0.90895  0.32758  0.49735  1.0000
  H   H1248     1.0  0.87549  0.32946  0.40588  1.0000
  C   C784      1.0  0.99213  0.28309  0.35403  1.0000
  C   C785      1.0  0.86325  0.34671  0.39637  1.0000
  H   H1249     1.0  0.88749  0.50344  0.30127  1.0000
  C   C786      1.0  0.82980  0.34617  0.43431  1.0000
  C   C787      1.0  0.86893  0.45676  0.49760  1.0000
  H   H1250     1.0  0.84000  0.25236  0.51071  1.0000
  H   H1251     1.0  0.83581  0.36467  0.43993  1.0000
  H   H1252     1.0  0.86608  0.20688  0.47258  1.0000
  H   H1253     1.0  0.93951  0.19856  0.46714  1.0000
  H   H1254     1.0  0.88187  0.52333  0.41797  1.0000
  H   H1255     1.0  0.93428  0.15404  0.49084  1.0000
  H   H1256     1.0  0.98445  0.34952  0.35853  1.0000
  H   H1257     1.0  0.91138  0.16733  0.51677  1.0000
  H   H1258     1.0  0.00481  0.30703  0.30475  1.0000
  C   C788      1.0  0.96682  0.22577  0.41148  1.0000
  H   H1259     1.0  0.96571  0.24098  0.42448  1.0000
  H   H1260     1.0  0.87311  0.19862  0.50626  1.0000
  S   S315      1.0  0.84135  0.47086  0.28938  1.0000
  H   H1261     1.0  0.90201  0.14283  0.49921  1.0000
  H   H1262     1.0  0.97107  0.28096  0.35265  1.0000
  H   H1263     1.0  0.95481  0.50974  0.40765  1.0000
  H   H1264     1.0  0.92658  0.51071  0.45136  1.0000
  H   H1265     1.0  0.90086  0.52438  0.38585  1.0000
  H   H1266     1.0  0.00456  0.26947  0.34094  1.0000
  H   H1267     1.0  0.99602  0.27571  0.37475  1.0000
  C   C789      1.0  0.79215  0.20061  0.49243  1.0000
  H   H1268     1.0  0.81082  0.20239  0.47881  1.0000
  H   H1269     1.0  0.79510  0.18256  0.50699  1.0000
  C   C790      1.0  0.01159  0.23876  0.48831  1.0000
  H   H1270     1.0  0.97146  0.31942  0.31659  1.0000
  C   C791      1.0  0.89607  0.52077  0.28912  1.0000
  H   H1271     1.0  0.78894  0.21808  0.50381  1.0000
  C   C792      1.0  0.90226  0.52011  0.40748  1.0000
  H   H1272     1.0  0.91714  0.51961  0.29254  1.0000
  C   C793      1.0  0.77448  0.17609  0.46301  1.0000
  H   H1273     1.0  0.88728  0.37468  0.52798  1.0000
  N   N80       1.0  0.76958  0.19957  0.47769  1.0000
  C   C794      1.0  0.01910  0.49656  0.30602  1.0000
  Fe  Fe157     1.0  0.97425  0.20142  0.56679  1.0000
  S   S316      1.0  0.96619  0.24571  0.56490  1.0000
  H   H1274     1.0  0.90078  0.31071  0.57036  1.0000
  Fe  Fe158     1.0  0.91361  0.19521  0.57229  1.0000
  S   S317      1.0  0.90236  0.23899  0.57190  1.0000
  N   N81       1.0  0.94035  0.43055  0.68173  1.0000
  H   H1275     1.0  0.84677  0.50181  0.60593  1.0000
  H   H1276     1.0  0.92287  0.35090  0.57065  1.0000
  Fe  Fe159     1.0  0.93395  0.23735  0.59812  1.0000
  S   S318      1.0  0.92878  0.26323  0.63079  1.0000
  H   H1277     1.0  0.78480  0.49574  0.76054  1.0000
  S   S319      1.0  0.94330  0.19279  0.60179  1.0000
  Fe  Fe160     1.0  0.91534  0.42113  0.60221  1.0000
  S   S320      1.0  0.89841  0.46365  0.59531  1.0000
  S   S321      1.0  0.95727  0.40481  0.60675  1.0000
  Fe  Fe161     1.0  0.86251  0.40071  0.60444  1.0000
  S   S322      1.0  0.84072  0.44174  0.59809  1.0000
  S   S323      1.0  0.84452  0.36237  0.60789  1.0000
  Fe  Fe162     1.0  0.87503  0.44964  0.56665  1.0000
  H   H1278     1.0  0.93989  0.38939  0.69774  1.0000
  Fe  Fe163     1.0  0.86598  0.45172  0.62738  1.0000
  S   S324      1.0  0.85387  0.47828  0.66031  1.0000
  S   S325      1.0  0.89486  0.40806  0.57131  1.0000
  S   S326      1.0  0.88469  0.41010  0.63598  1.0000
  C   C795      1.0  0.85382  0.46545  0.69435  1.0000
  C   C796      1.0  0.85573  0.43811  0.70267  1.0000
  C   C797      1.0  0.85554  0.42855  0.72979  1.0000
  H   H1279     1.0  0.80107  0.22910  0.55877  1.0000
  C   C798      1.0  0.92790  0.44954  0.66147  1.0000
  C   C799      1.0  0.85181  0.48307  0.71353  1.0000
  H   H1280     1.0  0.85687  0.42428  0.68828  1.0000
  H   H1281     1.0  0.85676  0.40735  0.73596  1.0000
  H   H1282     1.0  0.97951  0.41395  0.68959  1.0000
  H   H1283     1.0  0.85043  0.50426  0.70735  1.0000
  H   H1284     1.0  0.93341  0.37023  0.53997  1.0000
  C   C800      1.0  0.84774  0.17613  0.56873  1.0000
  C   C801      1.0  0.90489  0.29050  0.62537  1.0000
  C   C802      1.0  0.87983  0.28691  0.61954  1.0000
  C   C803      1.0  0.86110  0.30901  0.61474  1.0000
  C   C804      1.0  0.86754  0.33474  0.61535  1.0000
  C   C805      1.0  0.89267  0.33827  0.62097  1.0000
  C   C806      1.0  0.91117  0.31620  0.62631  1.0000
  H   H1285     1.0  0.87480  0.26708  0.61905  1.0000
  H   H1286     1.0  0.84172  0.30617  0.61034  1.0000
  H   H1287     1.0  0.89799  0.35798  0.62116  1.0000
  H   H1288     1.0  0.93054  0.31906  0.63073  1.0000
  H   H1289     1.0  0.85044  0.48731  0.75513  1.0000
  H   H1290     1.0  0.77350  0.45934  0.73905  1.0000
  H   H1291     1.0  0.90894  0.40537  0.68805  1.0000
  N   N82       1.0  0.91178  0.33781  0.53603  1.0000
  C   C807      1.0  0.85348  0.44613  0.74899  1.0000
  H   H1292     1.0  0.81155  0.17889  0.61967  1.0000
  H   H1293     1.0  0.92785  0.29777  0.54825  1.0000
  H   H1294     1.0  0.01260  0.39322  0.59231  1.0000
  S   S327      1.0  0.01705  0.18442  0.55508  1.0000
  C   C808      1.0  0.98178  0.42587  0.59438  1.0000
  C   C809      1.0  0.97586  0.45352  0.59039  1.0000
  C   C810      1.0  0.99621  0.46981  0.58151  1.0000
  H   H1295     1.0  0.91145  0.44261  0.71358  1.0000
  C   C811      1.0  0.90865  0.31061  0.54913  1.0000
  H   H1296     1.0  0.95575  0.46240  0.59433  1.0000
  H   H1297     1.0  0.99167  0.49118  0.57855  1.0000
  S   S328      1.0  0.94560  0.19926  0.53775  1.0000
  C   C812      1.0  0.93329  0.44033  0.70790  1.0000
  H   H1298     1.0  0.90600  0.45156  0.66584  1.0000
  H   H1299     1.0  0.93565  0.39635  0.66328  1.0000
  H   H1300     1.0  0.85766  0.51362  0.57204  1.0000
  C   C813      1.0  0.79255  0.18828  0.56538  1.0000
  C   C814      1.0  0.93034  0.34972  0.54937  1.0000
  H   H1301     1.0  0.97521  0.42050  0.65509  1.0000
  N   N83       1.0  0.77873  0.17707  0.65054  1.0000
  C   C815      1.0  0.00793  0.41459  0.58930  1.0000
  C   C816      1.0  0.80365  0.16183  0.56964  1.0000
  C   C817      1.0  0.83667  0.20257  0.56413  1.0000
  S   S329      1.0  0.88207  0.16732  0.57144  1.0000
  H   H1302     1.0  0.93437  0.46968  0.66035  1.0000
  C   C818      1.0  0.77496  0.44617  0.75807  1.0000
  H   H1303     1.0  0.93306  0.44295  0.64145  1.0000
  C   C819      1.0  0.80931  0.20855  0.56232  1.0000
  H   H1304     1.0  0.94209  0.42637  0.72379  1.0000
  H   H1305     1.0  0.97729  0.44755  0.67334  1.0000
  Fe  Fe164     1.0  0.93551  0.24288  0.53882  1.0000
  H   H1306     1.0  0.79121  0.14592  0.57162  1.0000
  H   H1307     1.0  0.87732  0.35532  0.55881  1.0000
  H   H1308     1.0  0.84917  0.21845  0.56199  1.0000
  C   C820      1.0  0.83105  0.15584  0.57121  1.0000
  C   C821      1.0  0.96938  0.42805  0.67470  1.0000
  H   H1309     1.0  0.89476  0.30091  0.53971  1.0000
  H   H1310     1.0  0.83936  0.13529  0.57458  1.0000
  H   H1311     1.0  0.78190  0.19002  0.68806  1.0000
  C   C822      1.0  0.93078  0.40427  0.68277  1.0000
  C   C823      1.0  0.80745  0.17601  0.64166  1.0000
  H   H1312     1.0  0.94028  0.46008  0.70791  1.0000
  C   C824      1.0  0.85175  0.47349  0.74068  1.0000
  H   H1313     1.0  0.95002  0.33773  0.54872  1.0000
  C   C825      1.0  0.88579  0.35402  0.53781  1.0000
  C   C826      1.0  0.84474  0.51902  0.59026  1.0000
  C   C827      1.0  0.77417  0.17388  0.67983  1.0000
  H   H1314     1.0  0.82394  0.52143  0.58578  1.0000
  H   H1315     1.0  0.81646  0.19182  0.64910  1.0000
  H   H1316     1.0  0.77767  0.13556  0.64773  1.0000
  H   H1317     1.0  0.81812  0.15652  0.64864  1.0000
  H   H1318     1.0  0.77332  0.21982  0.64685  1.0000
  H   H1319     1.0  0.79577  0.43661  0.75747  1.0000
  H   H1320     1.0  0.78404  0.15457  0.68839  1.0000
  H   H1321     1.0  0.88274  0.52244  0.62033  1.0000
  H   H1322     1.0  0.77050  0.15755  0.61859  1.0000
  H   H1323     1.0  0.87122  0.34532  0.52832  1.0000
  Fe  Fe165     1.0  0.80275  0.48857  0.84982  1.0000
  S   S330      1.0  0.81436  0.44479  0.85180  1.0000
  C   C828      1.0  0.84948  0.42970  0.00715  1.0000
  Fe  Fe166     1.0  0.85909  0.50025  0.84703  1.0000
  S   S331      1.0  0.87545  0.45732  0.84812  1.0000
  H   H1324     1.0  0.83517  0.47124  0.99926  1.0000
  Fe  Fe167     1.0  0.84651  0.45575  0.81899  1.0000
  H   H1325     1.0  0.80627  0.47322  0.78007  1.0000
  Fe  Fe168     1.0  0.84167  0.45104  0.88071  1.0000
  S   S332      1.0  0.84454  0.42328  0.91913  1.0000
  S   S333      1.0  0.83307  0.49937  0.81566  1.0000
  S   S334      1.0  0.82710  0.49392  0.88103  1.0000
  C   C829      1.0  0.84812  0.42796  0.95219  1.0000
  C   C830      1.0  0.85648  0.40528  0.96874  1.0000
  C   C831      1.0  0.85738  0.40619  0.99573  1.0000
  N   N84       1.0  0.90400  0.50640  0.01722  1.0000
  H   H1326     1.0  0.87003  0.50811  0.94126  1.0000
  C   C832      1.0  0.84077  0.45203  0.96319  1.0000
  H   H1327     1.0  0.86216  0.38661  0.96065  1.0000
  H   H1328     1.0  0.86388  0.52413  0.01594  1.0000
  H   H1329     1.0  0.83409  0.46971  0.95068  1.0000
  H   H1330     1.0  0.79074  0.43292  0.80603  1.0000
  H   H1331     1.0  0.80334  0.39918  0.00502  1.0000
  H   H1332     1.0  0.92382  0.48716  0.98400  1.0000
  C   C833      1.0  0.78544  0.48208  0.77934  1.0000
  H   H1333     1.0  0.91262  0.52188  0.97620  1.0000
  H   H1334     1.0  0.78096  0.36572  0.98867  1.0000
  C   C834      1.0  0.92877  0.51309  0.02503  1.0000
  H   H1335     1.0  0.87951  0.49917  0.89458  1.0000
  H   H1336     1.0  0.86378  0.38821  0.00803  1.0000
  H   H1337     1.0  0.77372  0.40923  0.02574  1.0000
  H   H1338     1.0  0.94523  0.49706  0.02181  1.0000
  H   H1339     1.0  0.88934  0.49783  0.98246  1.0000
  C   C835      1.0  0.84137  0.45290  0.99073  1.0000
  C   C836      1.0  0.90773  0.50313  0.98872  1.0000
  C   C837      1.0  0.78447  0.41256  0.00541  1.0000
  H   H1340     1.0  0.80235  0.39928  0.95655  1.0000
  H   H1341     1.0  0.78885  0.43346  0.95431  1.0000
  C   C838      1.0  0.78351  0.41271  0.95846  1.0000
  H   H1342     1.0  0.78974  0.43334  0.00229  1.0000
  C   C839      1.0  0.87823  0.51935  0.89926  1.0000
  H   H1343     1.0  0.77669  0.52474  0.90003  1.0000
  C   C840      1.0  0.87321  0.52436  0.92573  1.0000
  H   H1344     1.0  0.77210  0.40944  0.94250  1.0000
  H   H1345     1.0  0.78009  0.49434  0.79602  1.0000
  S   S335      1.0  0.85254  0.43281  0.78295  1.0000
  H   H1346     1.0  0.87786  0.47588  0.02775  1.0000
  C   C841      1.0  0.77018  0.44296  0.80581  1.0000
  Fe  Fe169     1.0  0.86998  0.63717  0.23704  1.0000
  S   S336      1.0  0.84043  0.60754  0.24706  1.0000
  H   H1347     1.0  0.81456  0.57141  0.07573  1.0000
  Fe  Fe170     1.0  0.86966  0.63726  0.17593  1.0000
  S   S337      1.0  0.84026  0.60765  0.18297  1.0000
  S   S338      1.0  0.88791  0.64549  0.13284  1.0000
  Fe  Fe171     1.0  0.82004  0.63192  0.21452  1.0000
  S   S339      1.0  0.77607  0.64121  0.21745  1.0000
  Fe  Fe172     1.0  0.86427  0.58701  0.21432  1.0000
  H   H1348     1.0  0.88913  0.74091  0.26967  1.0000
  S   S340      1.0  0.84793  0.66341  0.20604  1.0000
  S   S341      1.0  0.89523  0.61489  0.20597  1.0000
  S   S342      1.0  0.88930  0.64929  0.27049  1.0000
  H   H1349     1.0  0.84628  0.59989  0.12455  1.0000
  C   C842      1.0  0.78696  0.65977  0.16513  1.0000
  S   S343      1.0  0.87648  0.54335  0.21578  1.0000
  N   N85       1.0  0.81088  0.59264  0.10973  1.0000
  H   H1350     1.0  0.80698  0.66033  0.16913  1.0000
  H   H1351     1.0  0.85201  0.58391  0.09499  1.0000
  H   H1352     1.0  0.89265  0.56722  0.25767  1.0000
  H   H1353     1.0  0.87888  0.53083  0.04357  1.0000
  H   H1354     1.0  0.80012  0.60853  0.14685  1.0000
  C   C843      1.0  0.80228  0.57280  0.09524  1.0000
  H   H1355     1.0  0.82723  0.69561  0.07285  1.0000
  H   H1356     1.0  0.79479  0.67607  0.12423  1.0000
  C   C844      1.0  0.83886  0.58516  0.11404  1.0000
  H   H1357     1.0  0.84480  0.68408  0.11617  1.0000
  C   C845      1.0  0.88410  0.53738  0.18262  1.0000
  H   H1358     1.0  0.78712  0.62582  0.09106  1.0000
  C   C846      1.0  0.85108  0.66371  0.05442  1.0000
  H   H1359     1.0  0.81995  0.61913  0.07420  1.0000
  C   C847      1.0  0.85146  0.67185  0.10040  1.0000
  H   H1360     1.0  0.80392  0.55266  0.10664  1.0000
  H   H1361     1.0  0.79630  0.57396  0.14821  1.0000
  H   H1362     1.0  0.81501  0.63432  0.10423  1.0000
  C   C848      1.0  0.84168  0.67848  0.07568  1.0000
  H   H1363     1.0  0.90158  0.56945  0.12114  1.0000
  C   C849      1.0  0.88021  0.63549  0.08300  1.0000
  C   C850      1.0  0.78008  0.66864  0.13970  1.0000
  C   C851      1.0  0.80808  0.61911  0.09406  1.0000
  C   C852      1.0  0.79433  0.59349  0.13562  1.0000
  C   C853      1.0  0.87113  0.65057  0.10412  1.0000
  C   C854      1.0  0.89258  0.55748  0.16306  1.0000
  C   C855      1.0  0.89610  0.55346  0.13624  1.0000
  H   H1364     1.0  0.89588  0.57640  0.16843  1.0000
  H   H1365     1.0  0.84162  0.56546  0.12620  1.0000
  C   C856      1.0  0.86996  0.64173  0.05842  1.0000
  H   H1366     1.0  0.78128  0.57776  0.09154  1.0000
  H   H1367     1.0  0.87765  0.63035  0.04221  1.0000
  H   H1368     1.0  0.89586  0.61939  0.08540  1.0000
  H   H1369     1.0  0.77305  0.59889  0.13320  1.0000
  C   C857      1.0  0.89069  0.52948  0.12903  1.0000
  H   H1370     1.0  0.85177  0.54468  0.27012  1.0000
  H   H1371     1.0  0.78233  0.68119  0.04973  1.0000
  S   S344      1.0  0.88853  0.52636  0.09589  1.0000
  H   H1372     1.0  0.87337  0.71086  0.27620  1.0000
  C   C858      1.0  0.77037  0.67936  0.03364  1.0000
  Fe  Fe173     1.0  0.79631  0.87662  0.39943  1.0000
  S   S345      1.0  0.79513  0.83350  0.41488  1.0000
  H   H1373     1.0  0.91096  0.57005  0.38641  1.0000
  Fe  Fe174     1.0  0.85636  0.87410  0.40468  1.0000
  S   S346      1.0  0.85911  0.83100  0.42009  1.0000
  S   S347      1.0  0.88983  0.89939  0.40507  1.0000
  Fe  Fe175     1.0  0.83368  0.82724  0.38885  1.0000
  S   S348      1.0  0.83986  0.79124  0.36692  1.0000
  Fe  Fe176     1.0  0.82062  0.84106  0.44455  1.0000
  S   S349      1.0  0.81385  0.82591  0.48783  1.0000
  S   S350      1.0  0.83360  0.86996  0.37098  1.0000
  S   S351      1.0  0.81895  0.88478  0.43147  1.0000
  Fe  Fe177     1.0  0.91127  0.67193  0.43745  1.0000
  S   S352      1.0  0.86880  0.66476  0.44729  1.0000
  S   S353      1.0  0.92469  0.71208  0.42339  1.0000
  Fe  Fe178     1.0  0.93030  0.61441  0.45186  1.0000
  S   S354      1.0  0.88919  0.60252  0.46333  1.0000
  S   S355      1.0  0.96728  0.58583  0.45047  1.0000
  Fe  Fe179     1.0  0.88044  0.62884  0.42564  1.0000
  S   S356      1.0  0.85729  0.61786  0.39456  1.0000
  Fe  Fe180     1.0  0.88182  0.63967  0.48396  1.0000
  H   H1374     1.0  0.97026  0.83362  0.45458  1.0000
  S   S357      1.0  0.92190  0.63811  0.41331  1.0000
  S   S358      1.0  0.92370  0.64933  0.47508  1.0000
  C   C859      1.0  0.85330  0.54640  0.29126  1.0000
  H   H1375     1.0  0.86268  0.75577  0.44749  1.0000
  N   N86       1.0  0.88113  0.54608  0.29589  1.0000
  C   C860      1.0  0.89221  0.63218  0.34991  1.0000
  H   H1376     1.0  0.83171  0.71248  0.43803  1.0000
  C   C861      1.0  0.99300  0.60414  0.43466  1.0000
  H   H1377     1.0  0.91278  0.68809  0.29387  1.0000
  H   H1378     1.0  0.84124  0.56508  0.29634  1.0000
  H   H1379     1.0  0.90292  0.54853  0.32816  1.0000
  H   H1380     1.0  0.90268  0.74073  0.33913  1.0000
  C   C862      1.0  0.85587  0.62991  0.31441  1.0000
  C   C863      1.0  0.93647  0.91445  0.41381  1.0000
  C   C864      1.0  0.92442  0.89336  0.40768  1.0000
  H   H1381     1.0  0.92468  0.93308  0.41706  1.0000
  H   H1382     1.0  0.93131  0.85300  0.39823  1.0000
  C   C865      1.0  0.84344  0.81453  0.50120  1.0000
  H   H1383     1.0  0.97991  0.80151  0.50748  1.0000
  H   H1384     1.0  0.95494  0.82900  0.50303  1.0000
  C   C866      1.0  0.00754  0.64626  0.41390  1.0000
  C   C867      1.0  0.88874  0.79365  0.49683  1.0000
  C   C868      1.0  0.86500  0.80205  0.48608  1.0000
  H   H1385     1.0  0.88218  0.58792  0.28351  1.0000
  H   H1386     1.0  0.01384  0.53860  0.30879  1.0000
  H   H1387     1.0  0.90541  0.78416  0.48496  1.0000
  H   H1388     1.0  0.86333  0.79837  0.46627  1.0000
  C   C869      1.0  0.86448  0.76878  0.38049  1.0000
  C   C870      1.0  0.88679  0.77800  0.38733  1.0000
  C   C871      1.0  0.90565  0.76029  0.39980  1.0000
  C   C872      1.0  0.90233  0.73328  0.40531  1.0000
  C   C873      1.0  0.88060  0.72380  0.39741  1.0000
  C   C874      1.0  0.86165  0.74158  0.38500  1.0000
  H   H1389     1.0  0.88959  0.79883  0.38293  1.0000
  H   H1390     1.0  0.92258  0.76763  0.40563  1.0000
  H   H1391     1.0  0.87829  0.70286  0.40107  1.0000
  H   H1392     1.0  0.84445  0.73440  0.37959  1.0000
  H   H1393     1.0  0.96766  0.53888  0.33011  1.0000
  C   C875      1.0  0.92003  0.53194  0.44490  1.0000
  S   S359      1.0  0.01427  0.88834  0.41276  1.0000
  H   H1394     1.0  0.01152  0.72832  0.41585  1.0000
  C   C876      1.0  0.87399  0.87961  0.51159  1.0000
  H   H1395     1.0  0.87093  0.56747  0.32983  1.0000
  C   C877      1.0  0.86699  0.62511  0.35993  1.0000
  C   C878      1.0  0.94027  0.86940  0.40326  1.0000
  C   C879      1.0  0.98790  0.63161  0.42817  1.0000
  H   H1396     1.0  0.82951  0.61797  0.34943  1.0000
  H   H1397     1.0  0.81857  0.77827  0.46256  1.0000
  C   C880      1.0  0.98745  0.86601  0.48396  1.0000
  C   C881      1.0  0.89915  0.63819  0.32241  1.0000
  H   H1398     1.0  0.99570  0.80650  0.45961  1.0000
  N   N87       1.0  0.83036  0.73631  0.46974  1.0000
  C   C882      1.0  0.85885  0.73959  0.46396  1.0000
  C   C883      1.0  0.91092  0.56531  0.40824  1.0000
  C   C884      1.0  0.81565  0.76109  0.47816  1.0000
  C   C885      1.0  0.82631  0.71423  0.49121  1.0000
  H   H1399     1.0  0.00128  0.87671  0.46879  1.0000
  C   C886      1.0  0.89299  0.56847  0.27910  1.0000
  H   H1400     1.0  0.82799  0.87580  0.49383  1.0000
  N   N88       1.0  0.92011  0.53706  0.41582  1.0000
  C   C887      1.0  0.88218  0.54861  0.32407  1.0000
  C   C888      1.0  0.87180  0.70541  0.32915  1.0000
  H   H1401     1.0  0.79401  0.75964  0.48232  1.0000
  C   C889      1.0  0.91496  0.70574  0.30357  1.0000
  H   H1402     1.0  0.79928  0.72727  0.44940  1.0000
  H   H1403     1.0  0.96712  0.87239  0.47867  1.0000
  H   H1404     1.0  0.89035  0.57060  0.41748  1.0000
  C   C890      1.0  0.96371  0.91207  0.41535  1.0000
  H   H1405     1.0  0.90647  0.63297  0.36327  1.0000
  H   H1406     1.0  0.86728  0.68763  0.32102  1.0000
  H   H1407     1.0  0.88115  0.69824  0.34753  1.0000
  H   H1408     1.0  0.96877  0.64176  0.43400  1.0000
  H   H1409     1.0  0.92440  0.69849  0.32189  1.0000
  H   H1410     1.0  0.89994  0.53677  0.45549  1.0000
  H   H1411     1.0  0.91878  0.64350  0.31504  1.0000
  H   H1412     1.0  0.80503  0.71131  0.49631  1.0000
  C   C891      1.0  0.82054  0.73055  0.44559  1.0000
  H   H1413     1.0  0.91397  0.56881  0.28216  1.0000
  H   H1414     1.0  0.83691  0.69510  0.48555  1.0000
  H   H1415     1.0  0.96122  0.54341  0.40873  1.0000
  C   C892      1.0  0.97985  0.88867  0.41042  1.0000
  H   H1416     1.0  0.90606  0.75840  0.30634  1.0000
  C   C893      1.0  0.86558  0.90629  0.47053  1.0000
  C   C894      1.0  0.97601  0.82353  0.50634  1.0000
  C   C895      1.0  0.84905  0.62352  0.34196  1.0000
  H   H1417     1.0  0.83387  0.71783  0.50957  1.0000
  C   C896      1.0  0.96804  0.86715  0.40437  1.0000
  H   H1418     1.0  0.89465  0.88469  0.50922  1.0000
  N   N89       1.0  0.99397  0.83688  0.48514  1.0000
  H   H1419     1.0  0.00415  0.83812  0.44304  1.0000
  H   H1420     1.0  0.82222  0.76606  0.49650  1.0000
  H   H1421     1.0  0.81518  0.91004  0.49387  1.0000
  H   H1422     1.0  0.98024  0.84902  0.40016  1.0000
  H   H1423     1.0  0.88597  0.91233  0.46676  1.0000
  H   H1424     1.0  0.87070  0.72113  0.45798  1.0000
  C   C897      1.0  0.84546  0.81792  0.52737  1.0000
  N   N90       1.0  0.85636  0.90147  0.49919  1.0000
  C   C898      1.0  0.82908  0.89405  0.50299  1.0000
  C   C899      1.0  0.88088  0.63767  0.30451  1.0000
  C   C900      1.0  0.89110  0.79821  0.52260  1.0000
  H   H1425     1.0  0.97242  0.92885  0.41993  1.0000
  H   H1426     1.0  0.82261  0.74732  0.42937  1.0000
  H   H1427     1.0  0.84147  0.62962  0.30097  1.0000
  H   H1428     1.0  0.00299  0.66735  0.40834  1.0000
  H   H1429     1.0  0.87426  0.86101  0.50247  1.0000
  H   H1430     1.0  0.93353  0.54420  0.45188  1.0000
  C   C901      1.0  0.99088  0.82834  0.45947  1.0000
  H   H1431     1.0  0.85700  0.74066  0.28876  1.0000
  C   C902      1.0  0.87658  0.72886  0.28496  1.0000
  C   C903      1.0  0.89317  0.74571  0.32056  1.0000
  H   H1432     1.0  0.84398  0.52938  0.30326  1.0000
  H   H1433     1.0  0.85257  0.71705  0.33494  1.0000
  H   H1434     1.0  0.86684  0.74454  0.48155  1.0000
  H   H1435     1.0  0.82153  0.89003  0.52438  1.0000
  H   H1436     1.0  0.85249  0.92220  0.46016  1.0000
  H   H1437     1.0  0.92385  0.57861  0.41452  1.0000
  H   H1438     1.0  0.84392  0.94277  0.50263  1.0000
  H   H1439     1.0  0.87721  0.93177  0.50955  1.0000
  S   S360      1.0  0.85752  0.64855  0.52328  1.0000
  N   N91       1.0  0.88913  0.72144  0.30957  1.0000
  C   C904      1.0  0.85686  0.92580  0.51165  1.0000
  H   H1440     1.0  0.98873  0.87304  0.50331  1.0000
  H   H1441     1.0  0.86600  0.88807  0.46072  1.0000
  H   H1442     1.0  0.87408  0.75806  0.32541  1.0000
  H   H1443     1.0  0.97838  0.82901  0.52607  1.0000
  H   H1444     1.0  0.77461  0.86762  0.29990  1.0000
  H   H1445     1.0  0.87372  0.53184  0.33730  1.0000
  H   H1446     1.0  0.92893  0.71763  0.28978  1.0000
  C   C905      1.0  0.01834  0.59147  0.42772  1.0000
  C   C906      1.0  0.94726  0.53098  0.40268  1.0000
  H   H1447     1.0  0.94805  0.53476  0.38071  1.0000
  H   H1448     1.0  0.77699  0.89098  0.32238  1.0000
  H   H1449     1.0  0.77326  0.90257  0.28827  1.0000
  Fe  Fe181     1.0  0.92541  0.81742  0.56419  1.0000
  S   S361      1.0  0.92972  0.86015  0.54985  1.0000
  Fe  Fe182     1.0  0.93179  0.82418  0.62039  1.0000
  S   S362      1.0  0.93640  0.86762  0.61067  1.0000
  S   S363      1.0  0.93807  0.80009  0.65924  1.0000
  Fe  Fe183     1.0  0.90217  0.86798  0.58674  1.0000
  S   S364      1.0  0.86626  0.89931  0.58573  1.0000
  Fe  Fe184     1.0  0.96332  0.85509  0.57491  1.0000
  S   S365      1.0  0.00518  0.86235  0.55640  1.0000
  S   S366      1.0  0.89610  0.82525  0.59938  1.0000
  S   S367      1.0  0.96043  0.81168  0.58635  1.0000
  Fe  Fe185     1.0  0.87868  0.62851  0.67676  1.0000
  S   S368      1.0  0.90193  0.66358  0.67092  1.0000
  S   S369      1.0  0.88208  0.60562  0.64087  1.0000
  Fe  Fe186     1.0  0.86098  0.63549  0.73658  1.0000
  S   S370      1.0  0.88227  0.67140  0.73332  1.0000
  H   H1450     1.0  0.78926  0.70403  0.76661  1.0000
  Fe  Fe187     1.0  0.86640  0.68277  0.69449  1.0000
  S   S371      1.0  0.84844  0.72378  0.68129  1.0000
  Fe  Fe188     1.0  0.91514  0.64778  0.71046  1.0000
  S   S372      1.0  0.95492  0.64653  0.72415  1.0000
  S   S373      1.0  0.84214  0.64857  0.69880  1.0000
  S   S374      1.0  0.89475  0.61102  0.71509  1.0000
  C   C907      1.0  0.86708  0.63901  0.55558  1.0000
  H   H1451     1.0  0.77048  0.92578  0.58779  1.0000
  H   H1452     1.0  0.78391  0.82681  0.68322  1.0000
  H   H1453     1.0  0.90199  0.61336  0.54370  1.0000
  C   C908      1.0  0.85656  0.64025  0.60356  1.0000
  H   H1454     1.0  0.90187  0.74677  0.62091  1.0000
  H   H1455     1.0  0.89338  0.53466  0.58647  1.0000
  H   H1456     1.0  0.88251  0.80948  0.65389  1.0000
  C   C909      1.0  0.00033  0.60209  0.67143  1.0000
  C   C910      1.0  0.00372  0.77302  0.64445  1.0000
  C   C911      1.0  0.98182  0.63046  0.70529  1.0000
  H   H1457     1.0  0.95847  0.61288  0.68193  1.0000
  C   C912      1.0  0.83314  0.89286  0.58472  1.0000
  C   C913      1.0  0.82716  0.86829  0.57941  1.0000
  H   H1458     1.0  0.83365  0.66264  0.57406  1.0000
  H   H1459     1.0  0.84279  0.85225  0.57692  1.0000
  H   H1460     1.0  0.87906  0.72768  0.56120  1.0000
  H   H1461     1.0  0.91136  0.59742  0.58987  1.0000
  C   C914      1.0  0.97822  0.61497  0.68584  1.0000
  H   H1462     1.0  0.96298  0.59498  0.76956  1.0000
  N   N92       1.0  0.89407  0.71634  0.59876  1.0000
  H   H1463     1.0  0.92659  0.69097  0.58129  1.0000
  C   C915      1.0  0.91253  0.77970  0.66797  1.0000
  C   C916      1.0  0.91794  0.75354  0.67962  1.0000
  C   C917      1.0  0.89807  0.73643  0.68431  1.0000
  C   C918      1.0  0.87275  0.74555  0.67749  1.0000
  C   C919      1.0  0.86714  0.77191  0.66656  1.0000
  C   C920      1.0  0.88702  0.78899  0.66188  1.0000
  H   H1464     1.0  0.93761  0.74631  0.68451  1.0000
  H   H1465     1.0  0.90248  0.71615  0.69301  1.0000
  H   H1466     1.0  0.84752  0.77908  0.66153  1.0000
  H   H1467     1.0  0.01091  0.87833  0.60778  1.0000
  C   C921      1.0  0.00740  0.63297  0.71031  1.0000
  C   C922      1.0  0.86751  0.71379  0.61350  1.0000
  H   H1468     1.0  0.82793  0.56865  0.57210  1.0000
  H   H1469     1.0  0.89451  0.68158  0.57916  1.0000
  H   H1470     1.0  0.95028  0.56372  0.76926  1.0000
  H   H1471     1.0  0.90793  0.67535  0.61013  1.0000
  H   H1472     1.0  0.85432  0.70610  0.60153  1.0000
  H   H1473     1.0  0.88305  0.75505  0.57841  1.0000
  H   H1474     1.0  0.78060  0.87504  0.66482  1.0000
  C   C923      1.0  0.87808  0.62131  0.60831  1.0000
  C   C924      1.0  0.89467  0.61209  0.58648  1.0000
  H   H1475     1.0  0.87084  0.81324  0.55800  1.0000
  H   H1476     1.0  0.85198  0.58479  0.58412  1.0000
  C   C925      1.0  0.87961  0.53925  0.60439  1.0000
  H   H1477     1.0  0.81333  0.55309  0.61991  1.0000
  C   C926      1.0  0.80097  0.86471  0.57645  1.0000
  H   H1478     1.0  0.79664  0.84584  0.57173  1.0000
  S   S375      1.0  0.92138  0.78955  0.53527  1.0000
  H   H1479     1.0  0.86225  0.56261  0.55943  1.0000
  H   H1480     1.0  0.01026  0.64478  0.72545  1.0000
  C   C927      1.0  0.00400  0.81959  0.64813  1.0000
  H   H1481     1.0  0.89199  0.58616  0.77126  1.0000
  H   H1482     1.0  0.98976  0.82573  0.63333  1.0000
  H   H1483     1.0  0.81676  0.93253  0.59204  1.0000
  H   H1484     1.0  0.82870  0.82719  0.53922  1.0000
  C   C928      1.0  0.91067  0.72693  0.61535  1.0000
  H   H1485     1.0  0.91142  0.73684  0.56234  1.0000
  H   H1486     1.0  0.84336  0.64720  0.62012  1.0000
  C   C929      1.0  0.90633  0.68994  0.59204  1.0000
  H   H1487     1.0  0.83966  0.56769  0.63045  1.0000
  H   H1488     1.0  0.93083  0.72929  0.60483  1.0000
  H   H1489     1.0  0.88550  0.55723  0.61116  1.0000
  H   H1490     1.0  0.84984  0.92277  0.53327  1.0000
  H   H1491     1.0  0.91289  0.71358  0.63414  1.0000
  C   C930      1.0  0.83448  0.54958  0.62326  1.0000
  H   H1492     1.0  0.85784  0.73322  0.61943  1.0000
  C   C931      1.0  0.86937  0.81013  0.53794  1.0000
  C   C932      1.0  0.85100  0.64885  0.57738  1.0000
  H   H1493     1.0  0.99202  0.81726  0.66797  1.0000
  H   H1494     1.0  0.99207  0.76997  0.66441  1.0000
  H   H1495     1.0  0.99755  0.59015  0.65638  1.0000
  C   C933      1.0  0.81241  0.91342  0.58795  1.0000
  C   C934      1.0  0.84836  0.56580  0.57768  1.0000
  C   C935      1.0  0.88936  0.62105  0.56025  1.0000
  H   H1496     1.0  0.86757  0.87520  0.53321  1.0000
  H   H1497     1.0  0.86855  0.69981  0.63207  1.0000
  H   H1498     1.0  0.98914  0.77760  0.62986  1.0000
  H   H1499     1.0  0.78783  0.86401  0.63266  1.0000
  C   C936      1.0  0.89174  0.73475  0.57412  1.0000
  H   H1500     1.0  0.01557  0.75381  0.64073  1.0000
  H   H1501     1.0  0.93743  0.59327  0.74982  1.0000
  N   N93       1.0  0.85179  0.54341  0.59887  1.0000
  C   C937      1.0  0.77344  0.82289  0.66677  1.0000
  H   H1502     1.0  0.80174  0.66940  0.76986  1.0000
  H   H1503     1.0  0.90865  0.62892  0.77239  1.0000
  C   C938      1.0  0.94471  0.58548  0.76915  1.0000
  C   C939      1.0  0.77149  0.86906  0.64839  1.0000
  H   H1504     1.0  0.78881  0.81695  0.65047  1.0000
  C   C940      1.0  0.78611  0.90963  0.58559  1.0000
  H   H1505     1.0  0.83645  0.53299  0.63962  1.0000
  C   C941      1.0  0.78031  0.88535  0.57936  1.0000
  H   H1506     1.0  0.01615  0.83626  0.64759  1.0000
  S   S376      1.0  0.84158  0.62069  0.77796  1.0000
  Fe  Fe189     1.0  0.84153  0.65009  0.92684  1.0000
  S   S377      1.0  0.81901  0.61475  0.93309  1.0000
  S   S378      1.0  0.85231  0.66903  0.88430  1.0000
  Fe  Fe190     1.0  0.83944  0.65112  0.98818  1.0000
  S   S379      1.0  0.81749  0.61509  0.99743  1.0000
  H   H1507     1.0  0.90368  0.62585  0.80798  1.0000
  Fe  Fe191     1.0  0.84548  0.59949  0.96418  1.0000
  S   S380      1.0  0.86200  0.55686  0.96470  1.0000
  Fe  Fe192     1.0  0.79371  0.63439  0.96533  1.0000
  H   H1508     1.0  0.79628  0.72263  0.02511  1.0000
  S   S381      1.0  0.86982  0.63391  0.95683  1.0000
  S   S382      1.0  0.81383  0.67133  0.95716  1.0000
  N   N94       1.0  0.77221  0.68080  0.80156  1.0000
  C   C942      1.0  0.84117  0.61862  0.83207  1.0000
  S   S383      1.0  0.88270  0.53445  0.84593  1.0000
  N   N95       1.0  0.78236  0.56615  0.89178  1.0000
  H   H1509     1.0  0.79781  0.70900  0.99473  1.0000
  H   H1510     1.0  0.95310  0.58991  0.81891  1.0000
  H   H1511     1.0  0.83576  0.59874  0.83292  1.0000
  C   C943      1.0  0.87515  0.57133  0.91161  1.0000
  C   C944      1.0  0.84297  0.62907  0.85579  1.0000
  H   H1512     1.0  0.79793  0.54692  0.85726  1.0000
  H   H1513     1.0  0.85946  0.67060  0.78763  1.0000
  H   H1514     1.0  0.86287  0.68886  0.82921  1.0000
  H   H1515     1.0  0.93983  0.55892  0.81852  1.0000
  H   H1516     1.0  0.77626  0.65542  0.91915  1.0000
  H   H1517     1.0  0.80640  0.56254  0.92366  1.0000
  C   C945      1.0  0.85497  0.65877  0.80644  1.0000
  C   C946      1.0  0.85056  0.65455  0.85499  1.0000
  H   H1518     1.0  0.82082  0.57828  0.89240  1.0000
  H   H1519     1.0  0.77973  0.60877  0.88885  1.0000
  C   C947      1.0  0.87120  0.55041  0.93189  1.0000
  H   H1520     1.0  0.93573  0.63088  0.79028  1.0000
  C   C948      1.0  0.88108  0.54036  0.87891  1.0000
  H   H1521     1.0  0.81986  0.54343  0.89743  1.0000
  C   C949      1.0  0.85676  0.66920  0.83013  1.0000
  C   C950      1.0  0.84677  0.63354  0.80723  1.0000
  N   N96       1.0  0.92453  0.59145  0.79164  1.0000
  H   H1522     1.0  0.88223  0.58262  0.86944  1.0000
  H   H1523     1.0  0.92011  0.58508  0.83420  1.0000
  H   H1524     1.0  0.78731  0.63954  0.80832  1.0000
  H   H1525     1.0  0.79680  0.58243  0.85235  1.0000
  C   C951      1.0  0.88014  0.56630  0.88509  1.0000
  C   C952      1.0  0.78430  0.72010  0.00927  1.0000
  H   H1526     1.0  0.88486  0.58314  0.80660  1.0000
  H   H1527     1.0  0.87406  0.59148  0.91627  1.0000
  C   C953      1.0  0.80838  0.56248  0.90179  1.0000
  C   C954      1.0  0.93497  0.58091  0.81690  1.0000
  H   H1528     1.0  0.78132  0.70738  0.82731  1.0000
  C   C955      1.0  0.91785  0.62054  0.79058  1.0000
  H   H1529     1.0  0.83876  0.61741  0.87472  1.0000
  S   S384      1.0  0.83970  0.67459  0.02304  1.0000
  C   C956      1.0  0.78617  0.56563  0.86276  1.0000
  H   H1530     1.0  0.77822  0.74013  0.99909  1.0000
  C   C957      1.0  0.77998  0.65677  0.81951  1.0000
  H   H1531     1.0  0.81176  0.69124  0.79021  1.0000
  H   H1532     1.0  0.90471  0.55685  0.79111  1.0000
  C   C958      1.0  0.90054  0.57885  0.79001  1.0000
  H   H1533     1.0  0.79606  0.66008  0.83080  1.0000
  H   H1534     1.0  0.88798  0.54742  0.01126  1.0000
  H   H1535     1.0  0.78307  0.66702  0.01951  1.0000
  H   H1536     1.0  0.93491  0.53184  0.01346  1.0000
  C   C959      1.0  0.79468  0.68663  0.78115  1.0000
  C   C960      1.0  0.88275  0.52809  0.02225  1.0000
