data_image0
_chemical_formula_structural       FeS2FeS2FeSFeS3FeS2FeS2FeSFeS3FeS2FeS2FeSFeS3FeS2FeS2FeSFeS3FeS2FeS2FeSFeS3FeS2FeS2FeSFeS3FeS2FeS2FeSFeS3FeS2FeS2FeSFeS3FeS2FeS2FeSFeS3FeS2FeS2FeSFeS3FeS2FeS2FeSFeS3FeS2FeS2FeSFeS3C6H4C6H4C6H4C6H4C6H4C6H4C6H4C6H4C6H4C6H4C6H4C6H4C6H4C6H4C6H4C6H4C6H4C6H4C6H4C6H4C6H4C6H4C6H4C6H4NC4H12NC4H12NC4H12NC4H12NC4H12NC4H12NC4H12NC4H12NC4H12NC4H12NC4H12NC4H12NC4H12NC4H12NC4H12NC4H12NC4H12NC4H12NC4H12NC4H12NC4H12NC4H12NC4H12NC4H12
_chemical_formula_sum              "Fe48 S96 C240 H384 N24"
_cell_length_a       28.744887481859905
_cell_length_b       53.02214859964445
_cell_length_c       33.13456729706783
_cell_angle_alpha    90.1778133922803
_cell_angle_beta     108.44033526385465
_cell_angle_gamma    89.94143834562364

_space_group_name_H-M_alt    "P 1"
_space_group_IT_number       1

loop_
  _space_group_symop_operation_xyz
  'x, y, z'

loop_
  _atom_site_type_symbol
  _atom_site_label
  _atom_site_symmetry_multiplicity
  _atom_site_fract_x
  _atom_site_fract_y
  _atom_site_fract_z
  _atom_site_occupancy
  Fe  Fe1       1.0  0.5152999357415993  0.7742534075321343  0.7299211461437155  1.0000
  S   S1        1.0  0.4783556877410858  0.7643049408277143  0.7789674953640353  1.0000
  S   S2        1.0  0.47714738696697057  0.805401982529255  0.6837062409942691  1.0000
  Fe  Fe2       1.0  0.5960398820866508  0.7346571458928397  0.7642515371099144  1.0000
  S   S3        1.0  0.5639762149758004  0.7221415924880277  0.8140591741162098  1.0000
  S   S4        1.0  0.6655314166222414  0.7167894386757806  0.7571955150308696  1.0000
  Fe  Fe3       1.0  0.4904486945674713  0.7240318194052825  0.7630233664967365  1.0000
  S   S5        1.0  0.43968813111827953  0.6904794783889837  0.7613170744345785  1.0000
  Fe  Fe4       1.0  0.5547923710615171  0.7634013336100728  0.8255608181090649  1.0000
  S   S6        1.0  0.5864774329345853  0.7749197546435289  0.895275306206378  1.0000
  S   S7        1.0  0.523086192501445  0.7338598298228524  0.7116309412595772  1.0000
  S   S8        1.0  0.5910252870035452  0.7760387486689114  0.7779660763475189  1.0000
  Fe  Fe5       1.0  0.9518605074732941  0.4322709530349373  0.43907248816216865  1.0000
  S   S9        1.0  0.014585270951056994  0.4058631394149455  0.442989525478225  1.0000
  S   S10       1.0  0.9537230602704907  0.47424675457708837  0.45694088543399575  1.0000
  Fe  Fe6       1.0  0.8751625001273668  0.3889802117614676  0.41197972403126265  1.0000
  S   S11       1.0  0.9330672192644848  0.3598074220759962  0.41630658992322983  1.0000
  S   S12       1.0  0.793060060285622  0.3814394568381875  0.39586098646248685  1.0000
  Fe  Fe7       1.0  0.9771557979840803  0.37947651660043674  0.47647746985944617  1.0000
  S   S13       1.0  0.02474726764199575  0.36354200320229924  0.5400344746043555  1.0000
  Fe  Fe8       1.0  0.964990930503331  0.38858488436130995  0.3822288848481584  1.0000
  S   S14       1.0  0.9807735987108362  0.3714252070379298  0.32463210625813566  1.0000
  S   S15       1.0  0.9167244941119164  0.4066044258645927  0.47502832912698423  1.0000
  S   S16       1.0  0.9046913909237315  0.417029750044334  0.3755121908021245  1.0000
  Fe  Fe9       1.0  0.17674473241617814  0.6395202011316444  0.600542384912096  1.0000
  S   S17       1.0  0.10781057015976613  0.6619261366476656  0.5906074702421101  1.0000
  S   S18       1.0  0.24325489737888642  0.6652098916249395  0.6103504235464453  1.0000
  Fe  Fe10      1.0  0.11722504985668522  0.5899444242671469  0.5787780264283576  1.0000
  S   S19       1.0  0.04520602235036089  0.6095882799743936  0.5691511412917838  1.0000
  S   S20       1.0  0.12415744240263235  0.5480264697665221  0.5646610419699627  1.0000
  Fe  Fe11      1.0  0.07422796445207765  0.6382134626406626  0.533132002221588  1.0000
  S   S21       1.0  0.0242260175464265  0.6522527380575656  0.46950913584153026  1.0000
  Fe  Fe12      1.0  0.0856526487918026  0.6316645205411319  0.6282534552877028  1.0000
  S   S22       1.0  0.05484625503841059  0.6499796838876005  0.6767871407577123  1.0000
  S   S23       1.0  0.14429024504185803  0.6176137187845594  0.5397173116984144  1.0000
  S   S24       1.0  0.15649495945287023  0.6100425398384272  0.6410246089749239  1.0000
  Fe  Fe13      1.0  0.978832654359109  0.6179003002291001  0.8839986092130607  1.0000
  S   S25       1.0  0.9202422886645687  0.5926466347803059  0.8942343993410157  1.0000
  S   S26       1.0  0.022306519450813855  0.6023748161735765  0.842352105294347  1.0000
  Fe  Fe14      1.0  0.9770372931834413  0.6532291548234279  0.9576276438762986  1.0000
  S   S27       1.0  0.9205963749474696  0.6297902300151907  0.973289860384563  1.0000
  S   S28       1.0  0.010069849178152568  0.6891680506735313  0.9927773144932259  1.0000
  Fe  Fe15      1.0  0.9630568319874792  0.595737792809726  0.9636774556336254  1.0000
  S   S29       1.0  0.9855363449360923  0.5645736696375869  0.013753505279614942  1.0000
  Fe  Fe16      1.0  0.8828669224206979  0.6290687671325355  0.902406131805682  1.0000
  S   S30       1.0  0.8007277556646901  0.6369932642634164  0.8856427751804429  1.0000
  S   S31       1.0  0.022656267444924216  0.619595558948787  0.9534975116308484  1.0000
  S   S32       1.0  0.9381537962502556  0.6540658849731461  0.8867907459943289  1.0000
  Fe  Fe17      1.0  0.10084400692540883  0.4033379596360061  0.14302559534850945  1.0000
  S   S33       1.0  0.15230092727106573  0.4276602019369405  0.12060068162569358  1.0000
  S   S34       1.0  0.09436126929009248  0.41836483920423617  0.20557642529997877  1.0000
  Fe  Fe18      1.0  0.08239990117687356  0.3681246377885637  0.06611737853317015  1.0000
  S   S35       1.0  0.13233484105906113  0.39024073420754174  0.03973520962103871  1.0000
  S   S36       1.0  0.04064896339315278  0.33409839460982405  0.03024581367215995  1.0000
  Fe  Fe19      1.0  0.18341471362291958  0.39080701654034367  0.10706570891881902  1.0000
  S   S37       1.0  0.2653667725060523  0.38456568887495385  0.12013954225500577  1.0000
  Fe  Fe20      1.0  0.09606587794067932  0.4248612730328431  0.05582084168619935  1.0000
  S   S38       1.0  0.06996704563387948  0.4541084259938246  0.0025072776427141896  1.0000
  S   S39       1.0  0.1355237238296372  0.36664307569841953  0.1329629558372742  1.0000
  S   S40       1.0  0.04272693888627486  0.4026186097755674  0.0786615435328408  1.0000
  Fe  Fe21      1.0  0.5831109914128662  0.28913099679133947  0.26095906484216314  1.0000
  S   S41       1.0  0.5507922701387686  0.29598111828157725  0.3134949568785832  1.0000
  S   S42       1.0  0.6560954839277585  0.30564692780846253  0.2593370693067346  1.0000
  Fe  Fe22      1.0  0.5075016832694694  0.24786331425791072  0.21970770999980935  1.0000
  S   S43       1.0  0.47260824851438077  0.25126515645170727  0.271588264823643  1.0000
  S   S44       1.0  0.4637661269279903  0.22116937250397692  0.16715432458381593  1.0000
  Fe  Fe23      1.0  0.47704320566692787  0.29311613139299275  0.2624218761621964  1.0000
  S   S45       1.0  0.406465624881397  0.3133482116079903  0.26163893580673886  1.0000
  Fe  Fe24      1.0  0.5485519387410952  0.2536196764794427  0.31766294341649143  1.0000
  S   S46       1.0  0.5848052108341179  0.2375174509469577  0.3838436568137666  1.0000
  S   S47       1.0  0.5092747214850131  0.28972770409361115  0.2089673861765949  1.0000
  S   S48       1.0  0.5836347429506612  0.24673190394812897  0.2668796101037331  1.0000
  Fe  Fe25      1.0  0.4785171712821172  0.1387991249510195  0.9740159765701569  1.0000
  S   S49       1.0  0.41144043034341987  0.12124416719406782  0.9819004098521855  1.0000
  S   S50       1.0  0.5293629594237189  0.16413098226022507  0.024430497272626576  1.0000
  Fe  Fe26      1.0  0.46279352099389376  0.11243034795851775  0.8880609851691249  1.0000
  S   S51       1.0  0.3931136994480337  0.09361547959111158  0.8904198465652436  1.0000
  S   S52       1.0  0.4985537033900186  0.09875058720715996  0.8395240661388225  1.0000
  Fe  Fe27      1.0  0.37484235370966995  0.13146465515463526  0.9131194470830639  1.0000
  S   S53       1.0  0.3016189973026209  0.1509726359672271  0.9064566854392311  1.0000
  Fe  Fe28      1.0  0.4360827031937231  0.08532269830070448  0.9586839449777108  1.0000
  S   S54       1.0  0.4316781781458596  0.048006015346541114  0.9914332417616316  1.0000
  S   S55       1.0  0.4418141595914713  0.1509329308556092  0.9062535949454213  1.0000
  S   S56       1.0  0.506008699923728  0.10224647793224156  0.9555225058744994  1.0000
  Fe  Fe29      1.0  0.6073893424004269  0.9318015993115029  0.09703403547665193  1.0000
  S   S57       1.0  0.5398066619311993  0.9085743269254279  0.08792060492252263  1.0000
  S   S58       1.0  0.6092170947480087  0.9728371226789019  0.07637767505873899  1.0000
  Fe  Fe30      1.0  0.6756898286656496  0.8853277995993099  0.12162248507304335  1.0000
  S   S59       1.0  0.6124685807360707  0.8586798533250452  0.11268822022763823  1.0000
  S   S60       1.0  0.7540834810834146  0.8733104327799831  0.1284238921327621  1.0000
  Fe  Fe31      1.0  0.57383201134803  0.8808103870124214  0.054237755263841864  1.0000
  S   S61       1.0  0.5228548043326413  0.8662246820924564  0.9914748206235676  1.0000
  Fe  Fe32      1.0  0.5827747576346659  0.8881121945632626  0.14751120704422474  1.0000
  S   S62       1.0  0.5408145141101836  0.8704204589489408  0.1882453474497556  1.0000
  S   S63       1.0  0.6388447465546577  0.9051456449284093  0.05970014871968147  1.0000
  S   S64       1.0  0.6489557178641906  0.9137473441778519  0.1602421323904952  1.0000
  Fe  Fe33      1.0  0.9948014581104992  0.2642155014542601  0.710653226080693  1.0000
  S   S65       1.0  0.960649123847235  0.26766629095279276  0.7630140857276112  1.0000
  S   S66       1.0  0.9569941085449677  0.27776025397922993  0.6430961644588011  1.0000
  Fe  Fe34      1.0  0.07745747119119711  0.2293788382706797  0.763707298067769  1.0000
  S   S67       1.0  0.049640161738117326  0.23009274006151184  0.8198015355003156  1.0000
  S   S68       1.0  0.14120110271195863  0.20703263991722504  0.75464191609629  1.0000
  Fe  Fe35      1.0  0.9741969826590265  0.22582963699359554  0.7713785867897076  1.0000
  S   S69       1.0  0.920871052255195  0.19647313536642946  0.7811735089599883  1.0000
  Fe  Fe36      1.0  0.038365078089343474  0.27173019242284674  0.8069759311294825  1.0000
  S   S70       1.0  0.07150699816244366  0.30286927607089215  0.8547884547860741  1.0000
  S   S71       1.0  0.0031632554307130523  0.22213648798050553  0.7164804382350487  1.0000
  S   S72       1.0  0.071367487914361  0.2712582557639189  0.7535137583065799  1.0000
  Fe  Fe37      1.0  0.5679632550053003  0.1375100577393329  0.5479448195745765  1.0000
  S   S73       1.0  0.6356059157881889  0.11391544887799403  0.5595696540939695  1.0000
  S   S74       1.0  0.5212535254634895  0.14680997773090512  0.4805113294856913  1.0000
  Fe  Fe38      1.0  0.5772765087059458  0.138195270991474  0.6429470396859446  1.0000
  S   S75       1.0  0.6455169866481596  0.11438780097900975  0.6612202012071894  1.0000
  S   S76       1.0  0.5461507236982832  0.15752096126782905  0.6899915202226348  1.0000
  Fe  Fe39      1.0  0.6692886151349058  0.13917945113097036  0.6162364902528732  1.0000
  S   S77       1.0  0.7409188314702084  0.15981704165362942  0.6232028291745999  1.0000
  Fe  Fe40      1.0  0.6052108502277868  0.09143252990150788  0.6028703341706386  1.0000
  S   S78       1.0  0.6076332624431644  0.04854605485635449  0.6015509880401366  1.0000
  S   S79       1.0  0.6030943524712551  0.16433257886478164  0.6010455171329263  1.0000
  S   S80       1.0  0.535308085791567  0.11353006523777359  0.5881541976015306  1.0000
  Fe  Fe41      1.0  0.4825756239260104  0.8819087189482112  0.48398958900350364  1.0000
  S   S81       1.0  0.4160525574878157  0.9006465307704564  0.4916744680444885  1.0000
  S   S82       1.0  0.5308076586371668  0.852239786076929  0.5268012788556488  1.0000
  Fe  Fe42      1.0  0.4699870287479188  0.9081282223547866  0.39862705011632393  1.0000
  S   S83       1.0  0.40077918429368686  0.9278081916180538  0.399827047137213  1.0000
  S   S84       1.0  0.5140208005508908  0.9198087513816547  0.35521681139770417  1.0000
  Fe  Fe43      1.0  0.4424766899438904  0.9361447328253235  0.4685873032836086  1.0000
  S   S85       1.0  0.4363575799388062  0.9759456015976897  0.4934944237581396  1.0000
  Fe  Fe44      1.0  0.38013413463760587  0.8905288802120079  0.4225043122329717  1.0000
  S   S86       1.0  0.3078330698292074  0.8698277682023419  0.41372426355827646  1.0000
  S   S87       1.0  0.5121336464645538  0.9181023259834528  0.466494068092096  1.0000
  S   S88       1.0  0.446248506564073  0.8702435553689043  0.41601286897865825  1.0000
  Fe  Fe45      1.0  0.06123661174823896  0.7573827548063014  0.31248036081990876  1.0000
  S   S89       1.0  0.09274750466702125  0.7554634557547144  0.2584883762700118  1.0000
  S   S90       1.0  0.10068552842041849  0.740242278123381  0.3770707004149327  1.0000
  Fe  Fe46      1.0  0.9801797388907519  0.7947531856101764  0.26502788537946337  1.0000
  S   S91       1.0  0.0068094864483003725  0.7963262401821587  0.20823528141683909  1.0000
  S   S92       1.0  0.9113404405993437  0.8117159017927931  0.27434334882087735  1.0000
  Fe  Fe47      1.0  0.014438673483369913  0.7541039180302532  0.21500552467508519  1.0000
  S   S93       1.0  0.973400034301923  0.7259943611942334  0.1637310164543715  1.0000
  Fe  Fe48      1.0  0.08323552971289075  0.7977223119393972  0.25650846053034226  1.0000
  S   S94       1.0  0.1448709033681912  0.8233059614830349  0.25135680610466477  1.0000
  S   S95       1.0  0.983993977183584  0.7525466260653941  0.2698864462402625  1.0000
  S   S96       1.0  0.05540547900906316  0.7996507034783638  0.31237549870379216  1.0000
  C   C1        1.0  0.19073582611011242  0.8356806418403782  0.29675038175539  1.0000
  C   C2        1.0  0.23062289040998837  0.8491502247799543  0.29147785075764515  1.0000
  C   C3        1.0  0.2671454467687882  0.8595840111422084  0.326806394070577  1.0000
  C   C4        1.0  0.26377556275221714  0.8568807259137542  0.36779055885637507  1.0000
  C   C5        1.0  0.22395709663782876  0.8433907448840493  0.3730233070669772  1.0000
  C   C6        1.0  0.18788716607101855  0.8327119807709666  0.33784694100727364  1.0000
  H   H1        1.0  0.23316304271412677  0.8515984144381529  0.25984280706501556  1.0000
  H   H2        1.0  0.2974410517004265  0.8699568890683952  0.32220800997733245  1.0000
  H   H3        1.0  0.2206845195578569  0.8413303226694347  0.40445944555793517  1.0000
  H   H4        1.0  0.15753352539576612  0.822451268932071  0.3424718198456396  1.0000
  C   C7        1.0  0.48520922563746066  0.9959833990480177  0.5218394282231696  1.0000
  C   C8        1.0  0.4749526128220571  0.02137318125669352  0.5281663857068674  1.0000
  C   C9        1.0  0.5122921125893423  0.0378752324801792  0.5514046859322469  1.0000
  C   C10       1.0  0.5602790987147059  0.029017816822550425  0.5692417195462858  1.0000
  C   C11       1.0  0.5705586053324095  0.0036411979559698437  0.5630251926964178  1.0000
  C   C12       1.0  0.5333488692855471  0.9872439943684452  0.5391015911035991  1.0000
  H   H5        1.0  0.4377334438994677  0.028231680261735503  0.5150631909567858  1.0000
  H   H6        1.0  0.5036779793224494  0.057296648227294675  0.5559864135044941  1.0000
  H   H7        1.0  0.607486563067701  0.9965425637100163  0.5769273047341217  1.0000
  H   H8        1.0  0.5416807581902136  0.9677149733549235  0.534716480470103  1.0000
  C   C13       1.0  0.8704882775583453  0.18646256036757178  0.7373639914303295  1.0000
  C   C14       1.0  0.8372584468544555  0.16853151383826084  0.7434870304891816  1.0000
  C   C15       1.0  0.7973256449490795  0.16002421151173118  0.7089825828960276  1.0000
  C   C16       1.0  0.790359567560796  0.1694269995590074  0.668048648891165  1.0000
  C   C17       1.0  0.8236152554342365  0.18731624706691313  0.6620847486119507  1.0000
  C   C18       1.0  0.863315078556905  0.19586223617838125  0.6964837291994188  1.0000
  H   H9        1.0  0.8426673752623226  0.16103921539705446  0.7749712265885662  1.0000
  H   H10       1.0  0.7725246487557683  0.14590776740404904  0.7138570829907032  1.0000
  H   H11       1.0  0.8185853692343562  0.19468827591237886  0.6305607766991028  1.0000
  H   H12       1.0  0.8884010224269111  0.2097119801397476  0.6912432939347706  1.0000
  C   C19       1.0  0.5330990861888607  0.8845526003445104  0.2342917325503583  1.0000
  C   C20       1.0  0.5033826901711768  0.872536720012876  0.2550153097612958  1.0000
  C   C21       1.0  0.49649002832246963  0.8831651834366885  0.2917865716014316  1.0000
  C   C22       1.0  0.5196101271328185  0.9058584254743127  0.3082819749662617  1.0000
  C   C23       1.0  0.5495657779704877  0.9177436771444565  0.28772360755550674  1.0000
  C   C24       1.0  0.5561795934219375  0.907221320027714  0.25083776701209587  1.0000
  H   H13       1.0  0.48529359611119277  0.8550122141007137  0.2423914270648179  1.0000
  H   H14       1.0  0.47319312553959886  0.8738781837373075  0.3071985563609463  1.0000
  H   H15       1.0  0.567574351112889  0.9353106234919716  0.30024396098365913  1.0000
  H   H16       1.0  0.5791485982993988  0.9166414397248298  0.23524019465470009  1.0000
  C   C25       1.0  0.7973765189196188  0.8569731799603788  0.17043913470399658  1.0000
  C   C26       1.0  0.8450930596718664  0.8534344883377503  0.16839178090841972  1.0000
  C   C27       1.0  0.8803751857590643  0.8397936266605327  0.20011177620239448  1.0000
  C   C28       1.0  0.8683010530120461  0.8295333351631307  0.23431129655002533  1.0000
  C   C29       1.0  0.8207344582268171  0.8332311062383031  0.23662467179104377  1.0000
  C   C30       1.0  0.7853370882767308  0.8468258941671106  0.20478670012811145  1.0000
  H   H17       1.0  0.8548637260018253  0.8614012761559451  0.1421369092993019  1.0000
  H   H18       1.0  0.9171272086587815  0.8375671135386246  0.1984192163779696  1.0000
  H   H19       1.0  0.8111110027723837  0.8254702611484792  0.2630739680633424  1.0000
  H   H20       1.0  0.7487991163341833  0.8494521012148422  0.20677911271509106  1.0000
  C   C31       1.0  0.5123912410830036  0.11601427733419147  0.7991280680776177  1.0000
  C   C32       1.0  0.49528507168898095  0.14055500366230425  0.7881833944861963  1.0000
  C   C33       1.0  0.5059809396613247  0.15310158610777264  0.7547086511486419  1.0000
  C   C34       1.0  0.5335763558840473  0.1411875401494981  0.7318605011029052  1.0000
  C   C35       1.0  0.5512489822564938  0.11680228098378623  0.7432056001822112  1.0000
  C   C36       1.0  0.5406996650198026  0.10430877341631596  0.7767150847626701  1.0000
  H   H21       1.0  0.47345944736071016  0.14974005881469296  0.8051989722547246  1.0000
  H   H22       1.0  0.492354535498471  0.17202168364145515  0.7462125610077249  1.0000
  H   H23       1.0  0.5736185407991458  0.10779283857093176  0.7265634679619711  1.0000
  H   H24       1.0  0.5548614326261938  0.0855449801590769  0.7857295812634401  1.0000
  C   C37       1.0  0.18625900976091303  0.19196577721937955  0.7972426041687892  1.0000
  C   C38       1.0  0.225768505966495  0.17946835712689752  0.7893947416552728  1.0000
  C   C39       1.0  0.26172080221108107  0.16692956640065298  0.8223856552363907  1.0000
  C   C40       1.0  0.25810110818698107  0.16654155977326582  0.8634854857432853  1.0000
  C   C41       1.0  0.21860876621850514  0.17906927002767056  0.8713023598762365  1.0000
  C   C42       1.0  0.18303254642431813  0.19182517303774116  0.8384810818611784  1.0000
  H   H25       1.0  0.2286122925420456  0.17944168276463102  0.7576058531118465  1.0000
  H   H26       1.0  0.29185171176631763  0.15734732778472207  0.8158832555262245  1.0000
  H   H27       1.0  0.2155881408717841  0.1789558480447795  0.9030315874696968  1.0000
  H   H28       1.0  0.15318098759503515  0.20155995000967608  0.8451168646432419  1.0000
  C   C43       1.0  0.48103406835950313  0.02677250756680622  0.01324111532952088  1.0000
  C   C44       1.0  0.5282744707320651  0.03160129906097571  0.01170877541201628  1.0000
  C   C45       1.0  0.5670300998940193  0.014927254377004592  0.031323895065860634  1.0000
  C   C46       1.0  0.5588427881024766  0.9929406324272729  0.05179663142443856  1.0000
  C   C47       1.0  0.5113912472638612  0.9877989540310018  0.05247000016231329  1.0000
  C   C48       1.0  0.47279775834278703  0.0047142473813091  0.033480990668550925  1.0000
  H   H29       1.0  0.5349316962188331  0.048193703014919306  0.9954908405455701  1.0000
  H   H30       1.0  0.6035808802147835  0.019000745883200446  0.030443672448028473  1.0000
  H   H31       1.0  0.5045614348877375  0.9710527151317492  0.06831866128044828  1.0000
  H   H32       1.0  0.4363660421365168  0.0007916887575187825  0.0348179097458281  1.0000
  C   C49       1.0  0.4839623073467733  0.20500411077114136  0.12887131286087694  1.0000
  C   C50       1.0  0.5298964606440536  0.20938855547146595  0.12409060581423148  1.0000
  C   C51       1.0  0.5435059579159284  0.1965834104770297  0.09216966359927967  1.0000
  C   C52       1.0  0.5114256166009201  0.17930934143529792  0.0648689147020717  1.0000
  C   C53       1.0  0.46580863458236543  0.17467947615945473  0.07006671251221341  1.0000
  C   C54       1.0  0.45209833866754584  0.18756006958289625  0.10176091735770783  1.0000
  H   H33       1.0  0.5547595145784225  0.2227801738690142  0.14473929782266615  1.0000
  H   H34       1.0  0.5789580847456101  0.2002606778312383  0.08845262311072757  1.0000
  H   H35       1.0  0.4410170279922545  0.1612173270867295  0.04969676005206429  1.0000
  H   H36       1.0  0.4166592265083721  0.18389317882367479  0.10547252448373463  1.0000
  C   C55       1.0  0.5659344941497406  0.21207562986150422  0.4094536278297081  1.0000
  C   C56       1.0  0.5232473568431881  0.1982457192096608  0.39001369551215476  1.0000
  C   C57       1.0  0.509869771577801  0.17824207903182182  0.41206336067863114  1.0000
  C   C58       1.0  0.5389996797944825  0.1719797580215087  0.4535970793859353  1.0000
  C   C59       1.0  0.5817788125195666  0.18572516572051584  0.47284507027644623  1.0000
  C   C60       1.0  0.5951067212027734  0.20567626104213532  0.4508629407123034  1.0000
  H   H37       1.0  0.5005276230183644  0.20301656182100067  0.35816032218757515  1.0000
  H   H38       1.0  0.476680907219982  0.16770725573340567  0.3969796965103796  1.0000
  H   H39       1.0  0.6046017698839907  0.18102286434172218  0.504711665609914  1.0000
  H   H40       1.0  0.6282082041691283  0.2162295721476155  0.4661334886666816  1.0000
  C   C61       1.0  0.051356712655519714  0.3235188302305639  0.9831027179141241  1.0000
  C   C62       1.0  0.09163314017715077  0.3321681047731948  0.9721241087909483  1.0000
  C   C63       1.0  0.09755482523869981  0.32518526139567344  0.9330901517066827  1.0000
  C   C64       1.0  0.06394025655931379  0.30898443757921873  0.9048843156891458  1.0000
  C   C65       1.0  0.024388416813527162  0.29956613799544485  0.916321758932358  1.0000
  C   C66       1.0  0.01808620129553736  0.3068944396152603  0.9552908315745829  1.0000
  H   H41       1.0  0.11838058908868836  0.3442506146216027  0.9936877316173497  1.0000
  H   H42       1.0  0.12845802890527377  0.3323968913019941  0.9246718820134073  1.0000
  H   H43       1.0  0.9981333764434277  0.2871372791268143  0.8947915287886147  1.0000
  H   H44       1.0  0.9869344524867669  0.299958395884828  0.9636165797359822  1.0000
  C   C67       1.0  0.3030428399754516  0.3634022902734303  0.15798530186675175  1.0000
  C   C68       1.0  0.2868000747269053  0.35191042481938495  0.18902786935045013  1.0000
  C   C69       1.0  0.31915637418451226  0.33693733033275164  0.22077534079770533  1.0000
  C   C70       1.0  0.3674785551866801  0.3324501797146551  0.22089905948772734  1.0000
  C   C71       1.0  0.38323999085269145  0.34325878889400063  0.1890379603164654  1.0000
  C   C72       1.0  0.3513274077533118  0.3589077649115015  0.15808502615695103  1.0000
  H   H45       1.0  0.24959435618243003  0.3549455466202421  0.1889557965823173  1.0000
  H   H46       1.0  0.30661887478063155  0.3286758930619875  0.24531487270090588  1.0000
  H   H47       1.0  0.42036932917395237  0.3401003688109171  0.18884101666801378  1.0000
  H   H48       1.0  0.36427099406250113  0.36776087461153173  0.13424330482051716  1.0000
  C   C73       1.0  0.0009895645461730496  0.6987162817239272  0.04114214351070515  1.0000
  C   C74       1.0  0.9671139173548767  0.6865656259371107  0.05678740986554198  1.0000
  C   C75       1.0  0.9594184606565711  0.6951770698709516  0.0944146702676721  1.0000
  C   C76       1.0  0.9859542093662803  0.7157701280938013  0.11721678799532453  1.0000
  C   C77       1.0  0.019843145585222426  0.7279800799099496  0.10162857110134559  1.0000
  C   C78       1.0  0.027043940834883037  0.7195650416011212  0.06358370823326008  1.0000
  H   H49       1.0  0.9469840441886248  0.6704481237010474  0.04008473114607888  1.0000
  H   H50       1.0  0.9332550490699945  0.6855459252699935  0.10629072721607585  1.0000
  H   H51       1.0  0.040405756829362705  0.7439073911944455  0.11877702165625346  1.0000
  H   H52       1.0  0.05328108344966526  0.7291324719682426  0.051709722770019104  1.0000
  C   C79       1.0  0.04400016723312278  0.4841418024930648  0.006343133505926524  1.0000
  C   C80       1.0  0.04748327333468897  0.4952148979394232  0.045546676326095215  1.0000
  C   C81       1.0  0.028716212717510237  0.5196740975355945  0.04715190853913254  1.0000
  C   C82       1.0  0.006033924991627693  0.5333059679510254  0.00969932784970573  1.0000
  C   C83       1.0  0.0012661651995511392  0.5219382578467945  0.9704512459129044  1.0000
  C   C84       1.0  0.02062131651143867  0.4976055338599718  0.9688185508696856  1.0000
  H   H53       1.0  0.06522215218599883  0.4851150913080876  0.07469633020332545  1.0000
  H   H54       1.0  0.03218218397942896  0.5281963705936538  0.07769142507828897  1.0000
  H   H55       1.0  0.9825975496934555  0.5319435205490203  0.9414394649767492  1.0000
  H   H56       1.0  0.017230642744143983  0.48913166480314096  0.9383019517627317  1.0000
  C   C85       1.0  0.04519994882226664  0.6360775910670211  0.7220890634715075  1.0000
  C   C86       1.0  0.061956089013813206  0.6118397457540995  0.7358345647295075  1.0000
  C   C87       1.0  0.05448645242515582  0.601830043776761  0.7726723207785505  1.0000
  C   C88       1.0  0.0299295077645525  0.6158332155430831  0.795906343559947  1.0000
  C   C89       1.0  0.01317399703212696  0.6400618281700192  0.7821394591471222  1.0000
  C   C90       1.0  0.02101651665683346  0.6501518017882633  0.745513356998418  1.0000
  H   H57       1.0  0.08068419666388565  0.6008399560181947  0.7181549447499894  1.0000
  H   H58       1.0  0.06755550216182452  0.5830675338786238  0.7830698347160031  1.0000
  H   H59       1.0  0.9943063355482151  0.6510398621102415  0.7997364028666841  1.0000
  H   H60       1.0  0.007923250693235628  0.668921924051772  0.7351032568502581  1.0000
  C   C91       1.0  0.04628752639450244  0.6760973713914413  0.4432178825921888  1.0000
  C   C92       1.0  0.09242167178827017  0.6869375006457389  0.4618715801227372  1.0000
  C   C93       1.0  0.10888965932514208  0.7061666550493476  0.44062095562232395  1.0000
  C   C94       1.0  0.07962138588288366  0.7146092947297548  0.400495382551721  1.0000
  C   C95       1.0  0.03357180118559744  0.7036359034927735  0.3816003207775134  1.0000
  C   C96       1.0  0.016925187201072278  0.6844734243956104  0.4030065654499669  1.0000
  H   H61       1.0  0.1154012035254836  0.6805901329837437  0.4927710996831749  1.0000
  H   H62       1.0  0.14451634565103394  0.7146014942368811  0.4554743761080662  1.0000
  H   H63       1.0  0.010806778005706397  0.7099147940665611  0.35061430585322495  1.0000
  H   H64       1.0  0.9812165173604103  0.676120273040434  0.38837805742646253  1.0000
  C   C97       1.0  0.012086357495683542  0.38504326518833587  0.2917830904978915  1.0000
  C   C98       1.0  0.03355843084995036  0.40893838277930633  0.2999346604032846  1.0000
  C   C99       1.0  0.0583315772606261  0.4188822710675041  0.27300797756430806  1.0000
  C   C100      1.0  0.06147711232921748  0.4051829081520108  0.23752796476739815  1.0000
  C   C101      1.0  0.03962894763150812  0.3813735015566274  0.22916124973422597  1.0000
  C   C102      1.0  0.015193871042310594  0.371343673614234  0.25627895514285304  1.0000
  H   H65       1.0  0.03137422047308602  0.4196808900318725  0.3270871697233602  1.0000
  H   H66       1.0  0.07505134478957642  0.43734227049818275  0.2796653308359034  1.0000
  H   H67       1.0  0.041974925376040986  0.37060051328500304  0.20208741422090917  1.0000
  H   H68       1.0  0.9988933868855887  0.3527833214478676  0.24984184655782493  1.0000
  C   C103      1.0  0.004037530198360395  0.3406468880482281  0.5691189474502816  1.0000
  C   C104      1.0  0.9599801760106507  0.32767111711191416  0.551283486004978  1.0000
  C   C105      1.0  0.9456883269155038  0.30883970878810896  0.5748141209945992  1.0000
  C   C106      1.0  0.9748754660582669  0.3030543497708983  0.6165126426820206  1.0000
  C   C107      1.0  0.018508223160372123  0.3163907437568602  0.6346893918183486  1.0000
  C   C108      1.0  0.03318396182787309  0.3349599475277614  0.6109022857252245  1.0000
  H   H69       1.0  0.937286113484327  0.33188255998044935  0.5191444135641492  1.0000
  H   H70       1.0  0.911928019949755  0.2985821284438451  0.5605046749740467  1.0000
  H   H71       1.0  0.041078107470094875  0.31232937005638134  0.6669011740274298  1.0000
  H   H72       1.0  0.06728873592428085  0.3449746754657082  0.6249327327204742  1.0000
  C   C109      1.0  0.7559128390088117  0.3602032616539567  0.357697456465292  1.0000
  C   C110      1.0  0.7759979169574154  0.3416675584328359  0.33803642841567383  1.0000
  C   C111      1.0  0.7449947432443578  0.32518525391757463  0.30783361611610954  1.0000
  C   C112      1.0  0.6937114794844713  0.3265932858269138  0.29788393279861636  1.0000
  C   C113      1.0  0.6737129803126759  0.3446688779124973  0.3184565132191191  1.0000
  C   C114      1.0  0.7046605418753303  0.36149648306093213  0.3479084493719266  1.0000
  H   H73       1.0  0.8154083791857192  0.3399651322147021  0.3464723744619124  1.0000
  H   H74       1.0  0.760740740205757  0.3110001614480938  0.2925179801001865  1.0000
  H   H75       1.0  0.6343220956953394  0.34603267420438993  0.311027720163291  1.0000
  H   H76       1.0  0.6887696483998377  0.37565767425905766  0.36319021903898663  1.0000
  C   C115      1.0  0.002002182339995384  0.4944730501613623  0.4863822211019292  1.0000
  C   C116      1.0  0.9901103532799184  0.5164247779797108  0.5050073965879102  1.0000
  C   C117      1.0  0.026991821038430786  0.53303759145493  0.5288409809981528  1.0000
  C   C118      1.0  0.07632425400718043  0.5279811163720944  0.5341448140860298  1.0000
  C   C119      1.0  0.08825805116742962  0.5060532193450092  0.5154931197244329  1.0000
  C   C120      1.0  0.051368327815379256  0.48950164138998764  0.4914414312952658  1.0000
  H   H77       1.0  0.9520760846304225  0.5205050373800476  0.5013094419249097  1.0000
  H   H78       1.0  0.017308220729939316  0.5495738051885116  0.5436770895910483  1.0000
  H   H79       1.0  0.12633064256416868  0.5019646266584433  0.5193673216277627  1.0000
  H   H80       1.0  0.061179507556910186  0.4729891625366431  0.476631716182535  1.0000
  C   C121      1.0  0.5687760130673871  0.8010903139397564  0.9203667721704791  1.0000
  C   C122      1.0  0.5978129510682689  0.8076364787165579  0.9618378449726406  1.0000
  C   C123      1.0  0.5846610240934613  0.8278712999241007  0.9835958193175446  1.0000
  C   C124      1.0  0.5418211696257227  0.8415106379593965  0.9642515978010069  1.0000
  C   C125      1.0  0.5126404878295459  0.8350007098322176  0.9228330023096823  1.0000
  C   C126      1.0  0.5262205197426115  0.8149699294359741  0.900798986263992  1.0000
  H   H81       1.0  0.6307644487387692  0.7969856577245503  0.9771518324573917  1.0000
  H   H82       1.0  0.6075102038292894  0.8327329030018041  0.01542403619175614  1.0000
  H   H83       1.0  0.47932617949615114  0.8454021728267691  0.9076720454005022  1.0000
  H   H84       1.0  0.5035123624926916  0.8100272305881094  0.8689499587047596  1.0000
  C   C127      1.0  0.49431313294055823  0.8184768454835981  0.641277869710356  1.0000
  C   C128      1.0  0.4680284203265807  0.839355500243529  0.6194299340933894  1.0000
  C   C129      1.0  0.47894269642326165  0.849899647328998  0.584502212599483  1.0000
  C   C130      1.0  0.5165254593540402  0.8397262822665137  0.5711174182217662  1.0000
  C   C131      1.0  0.5430599956650405  0.8189317336429905  0.5930783336950322  1.0000
  C   C132      1.0  0.531999979736663  0.808309918416172  0.6279787798881573  1.0000
  H   H85       1.0  0.4389801301515761  0.8474194315054385  0.6296270061106716  1.0000
  H   H86       1.0  0.45850901162970764  0.866024531890341  0.5682367904947262  1.0000
  H   H87       1.0  0.5722883901874987  0.8109436079640486  0.5830734955122501  1.0000
  H   H88       1.0  0.5525115071995806  0.7922471838473052  0.6445286142832468  1.0000
  C   C133      1.0  0.38494368247726707  0.6837741199940457  0.7192892576075494  1.0000
  C   C134      1.0  0.35635591791141796  0.6628143252172605  0.7226478623026965  1.0000
  C   C135      1.0  0.31298251574003294  0.6566634423657262  0.6896457545834024  1.0000
  C   C136      1.0  0.2977932617803312  0.6714866160902511  0.6528962303982809  1.0000
  C   C137      1.0  0.32641426103611954  0.6924195427115396  0.6496529326920099  1.0000
  C   C138      1.0  0.3696582487429111  0.6985867550292985  0.6826357639470853  1.0000
  H   H89       1.0  0.3680288203271592  0.6511729958699133  0.7508173190376908  1.0000
  H   H90       1.0  0.2918035310614166  0.640289473237863  0.6923731071819387  1.0000
  H   H91       1.0  0.31504869780170647  0.7039839707772554  0.6213494809398995  1.0000
  H   H92       1.0  0.39126036981741813  0.7147500880169003  0.6795813191080893  1.0000
  C   C139      1.0  0.7041209217738664  0.6955505346267778  0.7942820547334276  1.0000
  C   C140      1.0  0.693593920426223  0.6879182096136903  0.8308182251210688  1.0000
  C   C141      1.0  0.7235707407935271  0.6699884891905409  0.8583810241638806  1.0000
  C   C142      1.0  0.7653025241364149  0.6600710112940193  0.8505264936246624  1.0000
  C   C143      1.0  0.7765927144883638  0.6681519287392849  0.8145653475687876  1.0000
  C   C144      1.0  0.7459145267904942  0.685669685514116  0.7864559642127262  1.0000
  H   H93       1.0  0.662280994017839  0.695778812091185  0.8377674969672931  1.0000
  H   H94       1.0  0.7145818527449104  0.6638881996138594  0.8861629212614667  1.0000
  H   H95       1.0  0.8082928674446659  0.6604843242991149  0.8078688863804939  1.0000
  H   H96       1.0  0.7543837634669242  0.6914394816586635  0.7582559910040237  1.0000
  N   N1        1.0  0.4728354384283063  0.8226073492070878  0.08086517700145168  1.0000
  C   C145      1.0  0.4978221911494552  0.8142092579152227  0.05038885242638025  1.0000
  C   C146      1.0  0.42358661245796936  0.8110676720813199  0.06949901153864757  1.0000
  C   C147      1.0  0.46795111245825505  0.8503446798117642  0.07919432334114673  1.0000
  C   C148      1.0  0.5019853713109385  0.8149646159969197  0.12443002933411829  1.0000
  H   H97       1.0  0.5348814355674144  0.8228453753706264  0.05771282212296103  1.0000
  H   H98       1.0  0.47695158744052735  0.819815158061314  0.0171888778378273  1.0000
  H   H99       1.0  0.5025227958711778  0.7933798702925802  0.050797163440030824  1.0000
  H   H100      1.0  0.40065531044039715  0.816643488692197  0.0368817805663022  1.0000
  H   H101      1.0  0.42582744690219737  0.790108041917481  0.0703294872297704  1.0000
  H   H102      1.0  0.4038347169270422  0.8170692620376143  0.09193855306273102  1.0000
  H   H103      1.0  0.4491445630309083  0.8574847380326903  0.10165682847006141  1.0000
  H   H104      1.0  0.44741242925851377  0.8570470046054941  0.04659288715632104  1.0000
  H   H105      1.0  0.5045039630002539  0.859439889037139  0.08852012529755071  1.0000
  H   H106      1.0  0.4847613310835139  0.821601014694974  0.14834884984921715  1.0000
  H   H107      1.0  0.5394292980881485  0.8233608544895128  0.13395824919130161  1.0000
  H   H108      1.0  0.506171114352067  0.7941359586681339  0.12726636805347957  1.0000
  N   N2        1.0  0.012704075311109397  0.5796816741553127  0.42389521438471717  1.0000
  C   C149      1.0  0.009056356845314806  0.5530635575747777  0.4098000820811424  1.0000
  C   C150      1.0  0.0027831982395232213  0.5965187851866902  0.38662286525995304  1.0000
  C   C151      1.0  0.06261863895853548  0.584618620476683  0.45304404403993687  1.0000
  C   C152      1.0  0.9764873667910778  0.5846279360394975  0.4462413254260756  1.0000
  H   H109      1.0  0.017673070929406398  0.5399621001401544  0.4373782049091907  1.0000
  H   H110      1.0  0.03524138212513006  0.5487933874417301  0.3921244977498572  1.0000
  H   H111      1.0  0.9714954698599093  0.5483970201230988  0.38864498320795315  1.0000
  H   H112      1.0  0.029868039786455913  0.5936183243537113  0.3693408273737335  1.0000
  H   H113      1.0  0.9655018938211328  0.5933014986145528  0.3637543717866106  1.0000
  H   H114      1.0  0.0050505262177236165  0.6167610692576294  0.3964146055054215  1.0000
  H   H115      1.0  0.06705506474708645  0.6047622759831247  0.4628715713259159  1.0000
  H   H116      1.0  0.09116241009496595  0.5802991344154829  0.43789025161081846  1.0000
  H   H117      1.0  0.07084453416101044  0.573113534906034  0.48251553226875876  1.0000
  H   H118      1.0  0.9383559495499317  0.5811928909478034  0.4251985898787342  1.0000
  H   H119      1.0  0.978488401191879  0.6045066949034533  0.45758433421520184  1.0000
  H   H120      1.0  0.9829775089000105  0.5724090834068132  0.47465942005761763  1.0000
  N   N3        1.0  0.3810132398572428  0.21488513355661162  0.9598977490742975  1.0000
  C   C153      1.0  0.36487493534046317  0.23985747722920223  0.9703089691034692  1.0000
  C   C154      1.0  0.43520474326316416  0.21404084418547706  0.9735277501244548  1.0000
  C   C155      1.0  0.3611278306159073  0.21055169271612406  0.9134745924299559  1.0000
  C   C156      1.0  0.36276457582975263  0.19507815804019224  0.9823530163340594  1.0000
  H   H121      1.0  0.37788450970339876  0.255248951475757  0.9537575357173222  1.0000
  H   H122      1.0  0.3794062524695711  0.24376175907849576  0.005113867741562972  1.0000
  H   H123      1.0  0.32412220061735036  0.24105194016142023  0.9605859734063787  1.0000
  H   H124      1.0  0.45045900584601456  0.2284543107024532  0.9568736525893682  1.0000
  H   H125      1.0  0.45145067988142107  0.21743084127525425  0.008368828782865823  1.0000
  H   H126      1.0  0.448710434210706  0.19530258588726226  0.9667970861669679  1.0000
  H   H127      1.0  0.32027471453280315  0.21104228696838606  0.9021226492031569  1.0000
  H   H128      1.0  0.3718855385370428  0.1916974348482022  0.9045648483089759  1.0000
  H   H129      1.0  0.3744237303132164  0.2249385131759058  0.895354991366645  1.0000
  H   H130      1.0  0.3754562643870108  0.19822156528782617  0.017347014841662567  1.0000
  H   H131      1.0  0.37582211824899253  0.1760782785969608  0.9764000347240148  1.0000
  H   H132      1.0  0.32194109529117265  0.19427058364589384  0.9713577989356073  1.0000
  N   N4        1.0  0.850787769533802  0.7710160431970837  0.1341849487030078  1.0000
  C   C157      1.0  0.8906674866455149  0.7851631326983134  0.12516771127696347  1.0000
  C   C158      1.0  0.8666028735226712  0.7635950799605383  0.1794637480225046  1.0000
  C   C159      1.0  0.8394017621176209  0.7481525922083924  0.10719845725610873  1.0000
  C   C160      1.0  0.8066422344778391  0.7871237231609465  0.12503777929827756  1.0000
  H   H133      1.0  0.8801060942915985  0.7911908200493523  0.09135819087839173  1.0000
  H   H134      1.0  0.9245564567551583  0.7735203108022257  0.1317717002029044  1.0000
  H   H135      1.0  0.9004838572266479  0.8024396613198691  0.14519650388149588  1.0000
  H   H136      1.0  0.8770781787851123  0.7803087860185955  0.20072997370606638  1.0000
  H   H137      1.0  0.8371101376804079  0.7534738725282651  0.18787155711868825  1.0000
  H   H138      1.0  0.8991067711513185  0.750945898628149  0.18728365023179117  1.0000
  H   H139      1.0  0.8100117246874983  0.7367897432758382  0.11363430984537495  1.0000
  H   H140      1.0  0.8722512787870886  0.7357362734553304  0.11325605268752713  1.0000
  H   H141      1.0  0.8270816269792419  0.7530489241559798  0.07282406015695127  1.0000
  H   H142      1.0  0.7754346537593834  0.7768873041053507  0.13053225283143083  1.0000
  H   H143      1.0  0.794530717014963  0.7939106932721952  0.09156117528952284  1.0000
  H   H144      1.0  0.8136696417666365  0.8041024376456696  0.14590483214807626  1.0000
  N   N5        1.0  0.8375975813277086  0.36661023511801744  0.24511113793929815  1.0000
  C   C161      1.0  0.7852573145199511  0.36420508921710937  0.21973985668354787  1.0000
  C   C162      1.0  0.8657762295180784  0.3764861640406419  0.21817437027145578  1.0000
  C   C163      1.0  0.8571330846610877  0.34160118862891203  0.26181626994022794  1.0000
  C   C164      1.0  0.8424870881829172  0.3841955371313689  0.2808928397752721  1.0000
  H   H145      1.0  0.7631094403089506  0.35691751295305113  0.23942356045458585  1.0000
  H   H146      1.0  0.7800699796767778  0.35096876709343217  0.19253137112829624  1.0000
  H   H147      1.0  0.7693629904805682  0.3827416621167143  0.20664644106320385  1.0000
  H   H148      1.0  0.905426103473305  0.3785360750796996  0.23672956402153675  1.0000
  H   H149      1.0  0.8633332844959055  0.36370105157629606  0.19088917903202993  1.0000
  H   H150      1.0  0.8523886544600864  0.3954206746739111  0.20516833370559937  1.0000
  H   H151      1.0  0.8367569320344724  0.3334948608586686  0.2821437483423039  1.0000
  H   H152      1.0  0.8964173510894645  0.34279082964199387  0.2816251328453116  1.0000
  H   H153      1.0  0.8546512274362963  0.3279505134281773  0.2356569155170072  1.0000
  H   H154      1.0  0.8287574087856305  0.40337124724932716  0.269578700698672  1.0000
  H   H155      1.0  0.8814812438789326  0.3861865986219938  0.3007450480601428  1.0000
  H   H156      1.0  0.8217551698059977  0.37761217428052346  0.30209113304470453  1.0000
  N   N6        1.0  0.2460157973132364  0.4177217232394212  0.2515275817628681  1.0000
  C   C165      1.0  0.27554893974060723  0.4177253926628124  0.2221879631607543  1.0000
  C   C166      1.0  0.2151750444526381  0.44065134966494224  0.24451797407074247  1.0000
  C   C167      1.0  0.2789817878539195  0.41732778295528455  0.29596568988633365  1.0000
  C   C168      1.0  0.21426552991636072  0.39513822274127613  0.2434689322520401  1.0000
  H   H157      1.0  0.29977277964538174  0.40086061588237387  0.22691648667491826  1.0000
  H   H158      1.0  0.29930289367762547  0.434723939939944  0.22667461700681252  1.0000
  H   H159      1.0  0.25181918276856485  0.41745938417100936  0.1883138230643323  1.0000
  H   H160      1.0  0.19138424962329464  0.4409441978451849  0.26534281421341305  1.0000
  H   H161      1.0  0.23770355837428864  0.4581315802104888  0.2507191622860825  1.0000
  H   H162      1.0  0.19004425137507353  0.4416119783956567  0.2112094295270234  1.0000
  H   H163      1.0  0.3034614921809682  0.43412667184631953  0.30319806133254196  1.0000
  H   H164      1.0  0.30277305609863875  0.4002396472281345  0.30227401683630695  1.0000
  H   H165      1.0  0.2577246584295824  0.41723207233035225  0.31884348243967964  1.0000
  H   H166      1.0  0.18969001934774435  0.39462654913957296  0.20996826566988236  1.0000
  H   H167      1.0  0.19003685944002954  0.394950590287783  0.2639128140092163  1.0000
  H   H168      1.0  0.23615439937827742  0.3774391844406679  0.249429647844816  1.0000
  N   N7        1.0  0.5624017383373033  0.6472025712978331  0.7642024366713033  1.0000
  C   C169      1.0  0.6081822226474254  0.6336999881903591  0.7664087837039768  1.0000
  C   C170      1.0  0.5589023081258363  0.670372683546364  0.7388134325304616  1.0000
  C   C171      1.0  0.562864516442025  0.6539314578044422  0.807666496060197  1.0000
  C   C172      1.0  0.5195229905546822  0.6309884242086529  0.7438688251007041  1.0000
  H   H169      1.0  0.6126401778567391  0.6162923358727659  0.7859354021729371  1.0000
  H   H170      1.0  0.6410249306065251  0.6457603565441824  0.780967713803436  1.0000
  H   H171      1.0  0.608974839802155  0.6282076825952227  0.7341870289086091  1.0000
  H   H172      1.0  0.589585696850318  0.6834963917504011  0.7539789884396194  1.0000
  H   H173      1.0  0.5601220441341405  0.6662354160186919  0.7062313733094595  1.0000
  H   H174      1.0  0.5241120387850936  0.6806283144182931  0.7354040048978215  1.0000
  H   H175      1.0  0.5647394592685478  0.6368937409895105  0.8275981757992499  1.0000
  H   H176      1.0  0.5292678094809515  0.6646259624783619  0.8071122766568006  1.0000
  H   H177      1.0  0.5949001689002514  0.6660224303171928  0.8240767184268502  1.0000
  H   H178      1.0  0.484568784167146  0.6408350100808955  0.74211857823577  1.0000
  H   H179      1.0  0.5208558930544139  0.613222198000808  0.7619583350545408  1.0000
  H   H180      1.0  0.5175176084413451  0.6258910708489052  0.7107506614501433  1.0000
  N   N8        1.0  0.02601353260514754  0.44160746889606234  0.5853249409491855  1.0000
  C   C173      1.0  0.03733075831200834  0.4315731586688609  0.5478948674579799  1.0000
  C   C174      1.0  0.035512673827599706  0.42176611523913715  0.6182053203577159  1.0000
  C   C175      1.0  0.9738276262494917  0.44913291085858387  0.5727201838444548  1.0000
  C   C176      1.0  0.05729055274257876  0.4638102598424075  0.6021763115660405  1.0000
  H   H181      1.0  0.029779738975417122  0.4456246839507662  0.5219765039003343  1.0000
  H   H182      1.0  0.014347775047820125  0.4149207087895654  0.5345402401519329  1.0000
  H   H183      1.0  0.07631148710594363  0.4256015528170459  0.5558769641639628  1.0000
  H   H184      1.0  0.026850172340170647  0.4284006803547539  0.6468937749399677  1.0000
  H   H185      1.0  0.012936876315047401  0.40460392978208226  0.6059030750788825  1.0000
  H   H186      1.0  0.07456742198821291  0.4156492881547339  0.6283288879571377  1.0000
  H   H187      1.0  0.9640604946738522  0.457229677776529  0.5999799961331617  1.0000
  H   H188      1.0  0.9491798049742153  0.4327627624117661  0.5602775526784574  1.0000
  H   H189      1.0  0.9651157623454582  0.46360658516621106  0.5470724497912061  1.0000
  H   H190      1.0  0.050148030159965266  0.47922370072514986  0.5782043833439576  1.0000
  H   H191      1.0  0.09694743079664297  0.45902032008140753  0.6108679107432182  1.0000
  H   H192      1.0  0.05040709699025814  0.4716631280548591  0.6309416146171152  1.0000
  N   N9        1.0  0.8580200825753481  0.7177688194734875  0.9258212512469364  1.0000
  C   C177      1.0  0.8332751977503862  0.7173402781304072  0.8793496243246726  1.0000
  C   C178      1.0  0.9100847196557522  0.7247158128112641  0.9346456875423736  1.0000
  C   C179      1.0  0.8549241017638491  0.6925298131966979  0.9436271157533092  1.0000
  C   C180      1.0  0.8338225582382173  0.7364527927858846  0.9456986755340536  1.0000
  H   H193      1.0  0.7936398704359225  0.7127133912490393  0.8715747887803323  1.0000
  H   H194      1.0  0.8498473026411254  0.7029335298438355  0.8634955781071458  1.0000
  H   H195      1.0  0.835680455604118  0.7359048713358622  0.8645777669366502  1.0000
  H   H196      1.0  0.9298425147322921  0.7254699155930535  0.969473510826183  1.0000
  H   H197      1.0  0.9297190928930079  0.7106682874339425  0.9208533534839513  1.0000
  H   H198      1.0  0.9141075917306499  0.7434674407448529  0.9211894648518895  1.0000
  H   H199      1.0  0.8742647508235087  0.6919138020771841  0.978508412011763  1.0000
  H   H200      1.0  0.872038025072485  0.6779185649526324  0.9287714221322506  1.0000
  H   H201      1.0  0.8161859521831522  0.6866064968912555  0.9378473327597727  1.0000
  H   H202      1.0  0.8517258579256851  0.7371991310434125  0.9807931528238649  1.0000
  H   H203      1.0  0.7944129833066912  0.731697156932366  0.9395394827986756  1.0000
  H   H204      1.0  0.8353887932300624  0.7557152265720076  0.9329029781156166  1.0000
  N   N10       1.0  0.5459097357964089  0.938465384733262  0.9467200657019745  1.0000
  C   C181      1.0  0.5189065974405392  0.9350291895551693  0.9775515974426665  1.0000
  C   C182      1.0  0.5127790314185446  0.9496680919941223  0.9072848322193321  1.0000
  C   C183      1.0  0.5637267526837293  0.9137327964698867  0.9369182265223013  1.0000
  C   C184      1.0  0.5880786153711727  0.9554744373386718  0.9652158937031989  1.0000
  H   H205      1.0  0.48821030190826065  0.921332928541009  0.9657101675842444  1.0000
  H   H206      1.0  0.5034706245245396  0.9531534588943855  0.9846168165600174  1.0000
  H   H207      1.0  0.5434158939807532  0.9276574450080755  0.008214683536929002  1.0000
  H   H208      1.0  0.5318256621618367  0.9524235168714003  0.8831534526053454  1.0000
  H   H209      1.0  0.48037149030840925  0.9373476589921069  0.892831431416196  1.0000
  H   H210      1.0  0.49884497909445313  0.9684018123198461  0.9136519616687501  1.0000
  H   H211      1.0  0.532854075134574  0.9003800331275431  0.922969943701406  1.0000
  H   H212      1.0  0.5882605634813715  0.9045636885057499  0.9661003228703229  1.0000
  H   H213      1.0  0.5846670648005455  0.9155291677301992  0.9140158005837339  1.0000
  H   H214      1.0  0.5759271406428461  0.9742429906468373  0.9732498964350065  1.0000
  H   H215      1.0  0.6095703677963236  0.9585051992460069  0.9430315636883613  1.0000
  H   H216      1.0  0.6135989949816693  0.947707930799505  0.995324307288944  1.0000
  N   N11       1.0  0.00963453054403307  0.3960245129364284  0.9190745571733827  1.0000
  C   C185      1.0  0.9845271680715146  0.4192176137708473  0.8986852719568488  1.0000
  C   C186      1.0  0.06279851601339503  0.39828073696855953  0.9256844419570942  1.0000
  C   C187      1.0  0.989925895618088  0.3739611087625049  0.8915886659648526  1.0000
  C   C188      1.0  0.0013833742482627365  0.39265416845230755  0.960533256599891  1.0000
  H   H217      1.0  0.9444126551724988  0.41829114623455094  0.8936757489660195  1.0000
  H   H218      1.0  0.9898176355482282  0.42239021292844003  0.867256123218401  1.0000
  H   H219      1.0  0.9989495879127169  0.4361395721473055  0.9188745677566239  1.0000
  H   H220      1.0  0.08291577594278055  0.3811585287973007  0.9411481128894345  1.0000
  H   H221      1.0  0.07044902157974597  0.4008371218280765  0.8950912747299568  1.0000
  H   H222      1.0  0.07902161500449933  0.4146084773512187  0.9465930500225377  1.0000
  H   H223      1.0  0.9965220939207527  0.37545191490089097  0.8603460165015  1.0000
  H   H224      1.0  0.9497950499381288  0.37177803189387254  0.885488201682837  1.0000
  H   H225      1.0  0.0075958779383453745  0.35616722144516566  0.9066749750618658  1.0000
  H   H226      1.0  0.02151895290393857  0.37599841083290214  0.9776330503998187  1.0000
  H   H227      1.0  0.9619151457389804  0.3898569664977776  0.9568490168188653  1.0000
  H   H228      1.0  0.014279817405669082  0.4092737480537455  0.9816396496097978  1.0000
  N   N12       1.0  0.36654690617464836  0.8084368523850094  0.49250300253717244  1.0000
  C   C189      1.0  0.38050682924212975  0.8076950834624674  0.5394304473768274  1.0000
  C   C190      1.0  0.3140255962250937  0.814961900756841  0.47438939240316097  1.0000
  C   C191      1.0  0.37543593348432186  0.7834873642894155  0.4763312268094115  1.0000
  C   C192      1.0  0.396281917195386  0.8276698340787625  0.4797295955942333  1.0000
  H   H229      1.0  0.41998644921005035  0.802796610911026  0.5540809024951774  1.0000
  H   H230      1.0  0.3587762873396139  0.793470681694717  0.5504133847317126  1.0000
  H   H231      1.0  0.37465673099915847  0.8263253886121842  0.5526846844143601  1.0000
  H   H232      1.0  0.30628117584055814  0.8340415389017133  0.4849718815881299  1.0000
  H   H233      1.0  0.30233214116510143  0.8154493801405397  0.4389529957774237  1.0000
  H   H234      1.0  0.2902500127089779  0.8011326974723353  0.4837316755220423  1.0000
  H   H235      1.0  0.36541223254234084  0.783497355753625  0.4409793882489281  1.0000
  H   H236      1.0  0.3533732739635018  0.7685265316223832  0.485252211697726  1.0000
  H   H237      1.0  0.4147792310214673  0.7780282878847871  0.4894428726676978  1.0000
  H   H238      1.0  0.3905746893281619  0.8466895543419535  0.49163519160083796  1.0000
  H   H239      1.0  0.3860683851758406  0.8290874731877994  0.44446335255735925  1.0000
  H   H240      1.0  0.4361929092513662  0.8233986437492644  0.4924865183189556  1.0000
  N   N13       1.0  0.5133319309886774  0.04280927614285347  0.681431435396035  1.0000
  C   C193      1.0  0.5654494262546728  0.04313650827830951  0.7080640443370471  1.0000
  C   C194      1.0  0.4816248524915722  0.04425601343233049  0.7088750554007942  1.0000
  C   C195      1.0  0.5029954434082792  0.019192927198820497  0.6562609471252064  1.0000
  C   C196      1.0  0.5033985144327633  0.06468621834343392  0.6524172391417516  1.0000
  H   H241      1.0  0.5902681038092796  0.0422167170517835  0.6881145028634985  1.0000
  H   H242      1.0  0.5744680616836874  0.0268276869232775  0.7302447155085668  1.0000
  H   H243      1.0  0.574672041723213  0.060665575868195855  0.7274841738634338  1.0000
  H   H244      1.0  0.488588958626929  0.028266146242012506  0.7317023686847601  1.0000
  H   H245      1.0  0.487975883348071  0.06202029963343751  0.7279147505156712  1.0000
  H   H246      1.0  0.44207945852269465  0.04380981160214377  0.6896764429341846  1.0000
  H   H247      1.0  0.46465633071380275  0.018675880057377987  0.634165858490476  1.0000
  H   H248      1.0  0.508466837189444  0.0022928866170353057  0.6770758248997241  1.0000
  H   H249      1.0  0.5277196653484438  0.017030737552821286  0.6365399175297469  1.0000
  H   H250      1.0  0.4650199383186703  0.06455546545395668  0.630454563190082  1.0000
  H   H251      1.0  0.5282047236329527  0.06469344541915131  0.632620333559285  1.0000
  H   H252      1.0  0.5091298377715767  0.08286494168306383  0.6702449479965599  1.0000
  N   N14       1.0  0.0448545975752984  0.14914271367689463  0.8151575612116527  1.0000
  C   C197      1.0  0.04582274799242704  0.16567830970429115  0.851430075910817  1.0000
  C   C198      1.0  0.04280201303817249  0.1647743697248438  0.7778139189445401  1.0000
  C   C199      1.0  0.0009616125423298734  0.13279820993915292  0.8047220579680908  1.0000
  C   C200      1.0  0.08970450055319368  0.133464216223485  0.8265426910746032  1.0000
  H   H253      1.0  0.07859303940060298  0.17820499336136628  0.860345098800766  1.0000
  H   H254      1.0  0.0467292220723221  0.15453412789579965  0.8800613649436715  1.0000
  H   H255      1.0  0.012720428820115579  0.17801503691378578  0.8436541973121032  1.0000
  H   H256      1.0  0.07462728586103798  0.17784496678690923  0.7848114107601297  1.0000
  H   H257      1.0  0.04312619311508866  0.1530237473044737  0.7500314635998644  1.0000
  H   H258      1.0  0.008823916451863164  0.17638140804822072  0.7678146343917563  1.0000
  H   H259      1.0  0.9986186820959273  0.12027477405541648  0.7771251304005189  1.0000
  H   H260      1.0  0.966610830019521  0.14425631440433487  0.7961771159763318  1.0000
  H   H261      1.0  0.0011581567127953987  0.12064638328707963  0.8320952328213376  1.0000
  H   H262      1.0  0.09285452439774168  0.12157001908922475  0.8549081052633998  1.0000
  H   H263      1.0  0.12337806601450824  0.14535357757056588  0.8340525979243555  1.0000
  H   H264      1.0  0.0901104271030187  0.12067540464256445  0.7999435363340176  1.0000
  N   N15       1.0  0.672935630928022  0.20422052425841217  0.7168494151577206  1.0000
  C   C201      1.0  0.7005541494005622  0.21039680423217852  0.6873289113252232  1.0000
  C   C202      1.0  0.6944756774085216  0.21792140567264479  0.7573942094128976  1.0000
  C   C203      1.0  0.675701019407014  0.1767956043830381  0.7250848484366453  1.0000
  C   C204      1.0  0.6210413072762556  0.21170614877544616  0.697689061604548  1.0000
  H   H265      1.0  0.686639746177892  0.19959438865414408  0.6569585110718995  1.0000
  H   H266      1.0  0.7401711401280332  0.20574375404255196  0.7013790264073168  1.0000
  H   H267      1.0  0.6979697932583924  0.2307887882148374  0.6791678454596037  1.0000
  H   H268      1.0  0.6745663888257002  0.2135737530400034  0.7804272701499373  1.0000
  H   H269      1.0  0.7336837506088056  0.21267084052560603  0.772633613651489  1.0000
  H   H270      1.0  0.6930212655881438  0.23869429171334283  0.7523945913103387  1.0000
  H   H271      1.0  0.6536736151021815  0.17125359142212054  0.7459254149075466  1.0000
  H   H272      1.0  0.714156368128192  0.17052767011210307  0.7405664075051662  1.0000
  H   H273      1.0  0.6610276245739641  0.1659405969249915  0.6950053861719028  1.0000
  H   H274      1.0  0.59896497985934  0.20697007141187956  0.7188861191742574  1.0000
  H   H275      1.0  0.603615678037794  0.20162577287953057  0.6671202644757666  1.0000
  H   H276      1.0  0.617292289403717  0.23228177278847167  0.6910508622150208  1.0000
  N   N16       1.0  0.11226351396829609  0.5588328650768938  0.9406767841873497  1.0000
  C   C205      1.0  0.1272222542824074  0.5838741925137256  0.9295932450407801  1.0000
  C   C206      1.0  0.14969889633975314  0.5399264586425454  0.9396733257988469  1.0000
  C   C207      1.0  0.06468105119636425  0.5517483966240463  0.9094655421541027  1.0000
  C   C208      1.0  0.107491240876652  0.5596995476465831  0.9838344527199903  1.0000
  H   H277      1.0  0.09945312186781155  0.5984947629936849  0.9293752685177945  1.0000
  H   H278      1.0  0.13077026380785356  0.5839093324216965  0.8970712513099331  1.0000
  H   H279      1.0  0.16272571802669125  0.5900800254632961  0.9525451178175287  1.0000
  H   H280      1.0  0.13957507313043235  0.5208110003385632  0.948078523344182  1.0000
  H   H281      1.0  0.15393546971446784  0.5386596471597679  0.9074711417220609  1.0000
  H   H282      1.0  0.1861095694287996  0.5447540464611405  0.9627643575527971  1.0000
  H   H283      1.0  0.03483301196150188  0.5647273438442934  0.9112413223145488  1.0000
  H   H284      1.0  0.05380226499307963  0.5322935914525234  0.9149105214231155  1.0000
  H   H285      1.0  0.06586435028657896  0.5526684150424602  0.8762306755257103  1.0000
  H   H286      1.0  0.07763842077294478  0.5727108539939331  0.9853747551486989  1.0000
  H   H287      1.0  0.14189392323232822  0.5662124961656106  0.0079993495602535  1.0000
  H   H288      1.0  0.09850406414178357  0.5408148990763026  0.9939533871785935  1.0000
  N   N17       1.0  0.19012102017542332  0.6891169289485127  0.7183417211778618  1.0000
  C   C209      1.0  0.19513785390092359  0.662064035870925  0.7098202910499137  1.0000
  C   C210      1.0  0.1687754235833735  0.6917601642318345  0.7532951218095234  1.0000
  C   C211      1.0  0.1574425724519302  0.701244852269726  0.6796054440775722  1.0000
  C   C212      1.0  0.23891287581274692  0.7012728588385733  0.7303811961025655  1.0000
  H   H289      1.0  0.2087667771959047  0.6593369021835446  0.6822391698697347  1.0000
  H   H290      1.0  0.15929106847324245  0.6521532394789118  0.7022395473595128  1.0000
  H   H291      1.0  0.2211598831857011  0.6524150980133621  0.737630020408997  1.0000
  H   H292      1.0  0.16411119220131204  0.7119262867330997  0.7605453533833352  1.0000
  H   H293      1.0  0.13187468608424938  0.6826665844768022  0.7448467111120378  1.0000
  H   H294      1.0  0.1923415770576596  0.6826663894151371  0.7829529679554026  1.0000
  H   H295      1.0  0.17224879978072322  0.6992911779530852  0.6524193250684718  1.0000
  H   H296      1.0  0.1529389434404101  0.7217187668927287  0.68467857595007  1.0000
  H   H297      1.0  0.12021090502382545  0.6925510682154103  0.6697141741767088  1.0000
  H   H298      1.0  0.23679442987536753  0.72160260247305  0.738001862055298  1.0000
  H   H299      1.0  0.25513053285180265  0.7001131513961749  0.7040106815400775  1.0000
  H   H300      1.0  0.2652473345452122  0.6920622410474417  0.7585854510868412  1.0000
  N   N18       1.0  0.5320678259311461  0.0723125432897784  0.44555755852446366  1.0000
  C   C213      1.0  0.5658968083508189  0.053656638524074325  0.4728010058324476  1.0000
  C   C214      1.0  0.5605454777705491  0.09373203446619521  0.4371075773020111  1.0000
  C   C215      1.0  0.49783098410245646  0.08162664998567384  0.46741597513423305  1.0000
  C   C216      1.0  0.5038666196171443  0.06024274590665362  0.40491087320936026  1.0000
  H   H301      1.0  0.5933354265266386  0.046829435561686034  0.45798720019002576  1.0000
  H   H302      1.0  0.5457294852409172  0.03681917319269794  0.47854250106661916  1.0000
  H   H303      1.0  0.5864998968004509  0.06181937366586168  0.5044649194609211  1.0000
  H   H304      1.0  0.536099300033994  0.10841692900303108  0.41724369652963345  1.0000
  H   H305      1.0  0.5822031600542875  0.10324571402370687  0.4671712677943484  1.0000
  H   H306      1.0  0.5866242680653136  0.08756217821079759  0.4203971672898108  1.0000
  H   H307      1.0  0.47287599507052513  0.09641177366425381  0.4484143147421803  1.0000
  H   H308      1.0  0.5179495276202924  0.09034948848403589  0.4986623564578001  1.0000
  H   H309      1.0  0.4746649383653496  0.06614155467903993  0.47321246536320855  1.0000
  H   H310      1.0  0.4778930349011683  0.07380102693673764  0.38363880248082954  1.0000
  H   H311      1.0  0.4819107243935191  0.043996538751808215  0.41025083752365044  1.0000
  H   H312      1.0  0.5285064393204918  0.05291304509598535  0.3875548106913107  1.0000
  N   N19       1.0  0.9959854248039836  0.7808648546244616  0.41398857232301095  1.0000
  C   C217      1.0  0.016887986760216078  0.7622291777876591  0.4480419805190753  1.0000
  C   C218      1.0  0.9760397953644111  0.7676498612211001  0.3728045779298935  1.0000
  C   C219      1.0  0.03485601514612968  0.7985442655577126  0.411800671534717  1.0000
  C   C220      1.0  0.9561303806390692  0.7950588694955176  0.42305105197573495  1.0000
  H   H313      1.0  0.03067990602381787  0.7714019890649957  0.4798350224440076  1.0000
  H   H314      1.0  0.04844905466951177  0.7520644471368404  0.44287809713519544  1.0000
  H   H315      1.0  0.9894299623014603  0.7476947798209688  0.44924070190571397  1.0000
  H   H316      1.0  0.9599460348519953  0.7811357364567504  0.3463897256148487  1.0000
  H   H317      1.0  0.005150355187478084  0.7570235526355998  0.3646827877323997  1.0000
  H   H318      1.0  0.947017386282507  0.7538916317349135  0.3732132148429947  1.0000
  H   H319      1.0  0.06537412409766619  0.7883911335723802  0.40464785998186453  1.0000
  H   H320      1.0  0.05105208320079746  0.8087889918494989  0.44236769606064374  1.0000
  H   H321      1.0  0.020406652980305084  0.8128617100093428  0.38634118281238033  1.0000
  H   H322      1.0  0.9393916784445926  0.8090324078182489  0.3974421670640184  1.0000
  H   H323      1.0  0.9698438044987246  0.8055849323436423  0.4536375429439863  1.0000
  H   H324      1.0  0.9263544317383245  0.782218091102655  0.4251118135966577  1.0000
  N   N20       1.0  0.6189434501681019  0.8716144666180475  0.43230180812494584  1.0000
  C   C221      1.0  0.6207465035867497  0.8687984966366025  0.4771715936367938  1.0000
  C   C222      1.0  0.6265900280471957  0.8983807202069788  0.42364872254897196  1.0000
  C   C223      1.0  0.5705534492954584  0.8632846592359057  0.4040428005106766  1.0000
  C   C224      1.0  0.657655908521233  0.8560012348563908  0.42416353020475633  1.0000
  H   H325      1.0  0.6141222829556695  0.8489284005723482  0.48475502267536424  1.0000
  H   H326      1.0  0.5920224346854934  0.8803924853309278  0.48436456052438004  1.0000
  H   H327      1.0  0.6567448657381446  0.8747921226500052  0.49958834816692477  1.0000
  H   H328      1.0  0.6231884130565111  0.9013879253756282  0.3895373258301117  1.0000
  H   H329      1.0  0.598579605564175  0.9107463268747558  0.43045214360215367  1.0000
  H   H330      1.0  0.6632622019898121  0.9052463933046995  0.4434407566114989  1.0000
  H   H331      1.0  0.5680854299773046  0.8646846581726277  0.36989665514829884  1.0000
  H   H332      1.0  0.5408943045120294  0.8753364249862061  0.4083418155250029  1.0000
  H   H333      1.0  0.5623990309307759  0.8434789112656453  0.41054404441983866  1.0000
  H   H334      1.0  0.6571612379686046  0.8578090935666497  0.39052279212259555  1.0000
  H   H335      1.0  0.6526549560215971  0.8356842641201583  0.4301489324375367  1.0000
  H   H336      1.0  0.6947334408435673  0.8617210869856001  0.44500810184067985  1.0000
  N   N21       1.0  0.07947114342149346  0.24175895375023643  0.6200452961200507  1.0000
  C   C225      1.0  0.05714488524864634  0.25746320663254774  0.58200172221221  1.0000
  C   C226      1.0  0.1235187745898642  0.22888425830592926  0.6162188299359908  1.0000
  C   C227      1.0  0.04353352268667933  0.22275992815631346  0.6239295120798493  1.0000
  C   C228      1.0  0.0936422752168229  0.25794329207692396  0.6583495783445114  1.0000
  H   H337      1.0  0.046840194308789655  0.2459882906689357  0.5523247869028798  1.0000
  H   H338      1.0  0.08251313823622876  0.27263115286137024  0.5788090746822017  1.0000
  H   H339      1.0  0.02314114262274375  0.2668895900417984  0.5836674517115623  1.0000
  H   H340      1.0  0.1411572027107638  0.21701279684356736  0.6447266675407889  1.0000
  H   H341      1.0  0.1142703961084296  0.21634998255256632  0.5877736981907563  1.0000
  H   H342      1.0  0.15140723256140368  0.24271810115209555  0.6133398732335482  1.0000
  H   H343      1.0  0.009767865815032905  0.23193075085871048  0.6268090937045876  1.0000
  H   H344      1.0  0.059054008103617404  0.2107878428900958  0.6526606810670659  1.0000
  H   H345      1.0  0.03197776692315344  0.210104120548084  0.5956722057551633  1.0000
  H   H346      1.0  0.11982419600593225  0.2729571665868918  0.6563395162456453  1.0000
  H   H347      1.0  0.11129331454217387  0.24677186061596798  0.6876456425691775  1.0000
  H   H348      1.0  0.06104539063202857  0.2674313628043328  0.6626443287359178  1.0000
  N   N22       1.0  0.33269800219732415  0.25574726900429184  0.17528950029323256  1.0000
  C   C229      1.0  0.28599337967188415  0.25822156118169975  0.140191474745852  1.0000
  C   C230      1.0  0.3255743614499731  0.26404821773448356  0.21555610394747657  1.0000
  C   C231      1.0  0.37041727217148723  0.2716373050673598  0.16620742335470867  1.0000
  C   C232      1.0  0.3488328885245761  0.2291306247804218  0.17925422588859372  1.0000
  H   H349      1.0  0.2901727638680335  0.2522363134805562  0.10929975065824077  1.0000
  H   H350      1.0  0.2728908836393501  0.27815085835204645  0.13659547445524947  1.0000
  H   H351      1.0  0.2566035411428386  0.2464920702441906  0.14589610010181644  1.0000
  H   H352      1.0  0.36035127695978797  0.2628623705936954  0.24266264206311874  1.0000
  H   H353      1.0  0.31327994321828667  0.28401840548650625  0.2137102868583443  1.0000
  H   H354      1.0  0.29773887836476404  0.25236358583500584  0.2237214986273906  1.0000
  H   H355      1.0  0.378829002575435  0.26508189643410274  0.13733881832522243  1.0000
  H   H356      1.0  0.4054134187055993  0.27121432241167703  0.19292965527947514  1.0000
  H   H357      1.0  0.3587259491412442  0.29171522278948553  0.1614258915435995  1.0000
  H   H358      1.0  0.3553197448566772  0.2222520659289908  0.14970096535956529  1.0000
  H   H359      1.0  0.32132919741003807  0.21652416632395044  0.18603129217838604  1.0000
  H   H360      1.0  0.3840578543396469  0.2267286307373501  0.20552761487518903  1.0000
  N   N23       1.0  0.6999727742016576  0.28538061245670876  0.413779197746896  1.0000
  C   C233      1.0  0.7180793611135146  0.26194177568700266  0.4376442205918651  1.0000
  C   C234      1.0  0.6595105113180523  0.2959716365453352  0.42715574169831366  1.0000
  C   C235      1.0  0.6819513433432183  0.27967565399468  0.3677282560141471  1.0000
  C   C236      1.0  0.7402292765428106  0.30400372293915207  0.42250534748665763  1.0000
  H   H361      1.0  0.732294243918748  0.26550409951461434  0.4725202625368034  1.0000
  H   H362      1.0  0.74807639912515  0.2532802738119714  0.42777308677334497  1.0000
  H   H363      1.0  0.6882352838144962  0.24764089175017268  0.4320226314025998  1.0000
  H   H364      1.0  0.6282796743377873  0.28254003379933856  0.42078041765496405  1.0000
  H   H365      1.0  0.6716706065958239  0.300391188225951  0.4617624414319984  1.0000
  H   H366      1.0  0.6448949357156409  0.31365030620600615  0.4096094430692058  1.0000
  H   H367      1.0  0.663054571265364  0.29616695622003264  0.3491800425013314  1.0000
  H   H368      1.0  0.6549450199331149  0.26400290173731256  0.3603277120708225  1.0000
  H   H369      1.0  0.7121705661270435  0.27416107328546896  0.35523483881786366  1.0000
  H   H370      1.0  0.7273045640444575  0.32205112897301247  0.4056956518784529  1.0000
  H   H371      1.0  0.7709215689607283  0.2970953504078048  0.41170550323439903  1.0000
  H   H372      1.0  0.755420107855009  0.30846081200175346  0.4570425743823868  1.0000
  N   N24       1.0  0.5612999018590938  0.09548077465938033  0.09518614545606599  1.0000
  C   C237      1.0  0.5756021448852117  0.11598191810821437  0.12708424805221089  1.0000
  C   C238      1.0  0.590345807879765  0.09747250395471796  0.06561827753243446  1.0000
  C   C239      1.0  0.5086317033618493  0.0978337028605123  0.07107782813551562  1.0000
  C   C240      1.0  0.5704140287064735  0.07072760355885803  0.11673556098237212  1.0000
  H   H373      1.0  0.5695438028893515  0.13487588318195284  0.11153898013291755  1.0000
  H   H374      1.0  0.6150706090254053  0.11473455385973183  0.14619632746320474  1.0000
  H   H375      1.0  0.553758490574759  0.11538992628202283  0.1494535568028788  1.0000
  H   H376      1.0  0.5806424994178836  0.08224583596175074  0.041191816349759346  1.0000
  H   H377      1.0  0.5837688920326715  0.11582795510345181  0.04839232609339524  1.0000
  H   H378      1.0  0.6303601220266392  0.09602325236702068  0.08270445046386286  1.0000
  H   H379      1.0  0.49681039149961687  0.08312562065386132  0.04587931408578543  1.0000
  H   H380      1.0  0.500376610988997  0.1165330626431736  0.05532993320456573  1.0000
  H   H381      1.0  0.48529110836525147  0.09575145092243693  0.09200178612282447  1.0000
  H   H382      1.0  0.5591001738835493  0.05490880016650959  0.09345279696331421  1.0000
  H   H383      1.0  0.5493377570341246  0.06865059937699161  0.13951768161931963  1.0000
  H   H384      1.0  0.6099546251369256  0.06801933587326918  0.13468424671663878  1.0000
