data_image0
_chemical_formula_structural       FeS2FeS2FeSFeS3FeS2FeS2FeSFeS3FeS2FeS2FeSFeS3FeS2FeS2FeSFeS3FeS2FeS2FeSFeS3FeS2FeS2FeSFeS3FeS2FeS2FeSFeS3FeS2FeS2FeSFeS3FeS2FeS2FeSFeS3FeS2FeS2FeSFeS3FeS2FeS2FeSFeS3FeS2FeS2FeSFeS3C6H4C6H4C6H4C6H4C6H4C6H4C6H4C6H4C6H4C6H4C6H4C6H4C6H4C6H4C6H4C6H4C6H4C6H4C6H4C6H4C6H4C6H4C6H4C6H4NC4H12NC4H12NC4H12NC4H12NC4H12NC4H12NC4H12NC4H12NC4H12NC4H12NC4H12NC4H12NC4H12NC4H12NC4H12NC4H12NC4H12NC4H12NC4H12NC4H12NC4H12NC4H12NC4H12NC4H12
_chemical_formula_sum              "Fe48 S96 C240 H384 N24"
_cell_length_a       29.187475359242125
_cell_length_b       41.45981858344827
_cell_length_c       25.968513960214146
_cell_angle_alpha    90.14512219919341
_cell_angle_beta     102.65447286504367
_cell_angle_gamma    89.95469070855002

_space_group_name_H-M_alt    "P 1"
_space_group_IT_number       1

loop_
  _space_group_symop_operation_xyz
  'x, y, z'

loop_
  _atom_site_type_symbol
  _atom_site_label
  _atom_site_symmetry_multiplicity
  _atom_site_fract_x
  _atom_site_fract_y
  _atom_site_fract_z
  _atom_site_occupancy
  Fe  Fe1       1.0  0.5376624341319534  0.5148071180015671  0.7468555215929147  1.0000
  S   S1        1.0  0.5945400721085502  0.49447835980577015  0.8110850980210731  1.0000
  S   S2        1.0  0.5385911518264177  0.566635296210099  0.7214243592410868  1.0000
  Fe  Fe2       1.0  0.4789869519558384  0.4539625792897722  0.7360817744579847  1.0000
  S   S3        1.0  0.5308987999999858  0.4291471693218682  0.8003183908047912  1.0000
  S   S4        1.0  0.409498503255326  0.43009472390402487  0.700660560086307  1.0000
  Fe  Fe3       1.0  0.5348525997892654  0.4759660869332333  0.8450077269781725  1.0000
  S   S5        1.0  0.5412675082256249  0.47812769216613193  0.9341248572208491  1.0000
  Fe  Fe4       1.0  0.5855517912202042  0.44984039734388925  0.7605766836486639  1.0000
  S   S6        1.0  0.6431929361580326  0.41619008629963383  0.7466114761271067  1.0000
  S   S7        1.0  0.4786598327252105  0.4992988910453198  0.7838957778897755  1.0000
  S   S8        1.0  0.5329674061395893  0.4716821417629749  0.6932027562259218  1.0000
  Fe  Fe5       1.0  0.9654220109409721  0.41688541685232144  0.6885042978367129  1.0000
  S   S9        1.0  0.8985177236410365  0.39775632604980543  0.6368942356332777  1.0000
  S   S10       1.0  0.991302086436594  0.3892480040860453  0.7649059425602825  1.0000
  Fe  Fe6       1.0  0.9652262880920098  0.47656717713838453  0.6176775392333813  1.0000
  S   S11       1.0  0.8992555297719368  0.4613785256126344  0.5621270367577228  1.0000
  S   S12       1.0  0.9976865846951144  0.5245133530348465  0.6044119598843986  1.0000
  Fe  Fe7       1.0  0.8727096697037147  0.4489575381000088  0.6345883090879306  1.0000
  S   S13       1.0  0.8054391345671537  0.47296654408161315  0.6446683221929393  1.0000
  Fe  Fe8       1.0  0.9320460116199365  0.41226984001049277  0.5704449224318964  1.0000
  S   S14       1.0  0.9344873569375058  0.38379518244353034  0.4975120664319005  1.0000
  S   S15       1.0  0.9371983033442302  0.46733871362464974  0.6902866423321876  1.0000
  S   S16       1.0  0.0006163610084317726  0.4282025366016127  0.6218192796314512  1.0000
  Fe  Fe9       1.0  0.19604912890456053  0.31919271554372736  0.3613881915008459  1.0000
  S   S17       1.0  0.143091856765996  0.3540788799991165  0.38057617281168576  1.0000
  S   S18       1.0  0.17356268826475488  0.2858749933055156  0.2901906285678854  1.0000
  Fe  Fe10      1.0  0.27605057984092535  0.34732727688090426  0.44861651615677045  1.0000
  S   S19       1.0  0.2277545226942567  0.38313169593917384  0.473421690463383  1.0000
  S   S20       1.0  0.3540095215324863  0.35066858250370964  0.4862664336212261  1.0000
  Fe  Fe11      1.0  0.17674302886744916  0.34203912202561915  0.4647480804320773  1.0000
  S   S21       1.0  0.1410648242228571  0.3312951190620012  0.5314358071645636  1.0000
  Fe  Fe12      1.0  0.19996259837248317  0.3914353157457434  0.38703707222682265  1.0000
  S   S22       1.0  0.19168205859626666  0.44375174384434257  0.36097422042372773  1.0000
  S   S23       1.0  0.2268694405774562  0.30510212245978285  0.4456047629692516  1.0000
  S   S24       1.0  0.2510505343795345  0.35764116590460393  0.3620359716806492  1.0000
  Fe  Fe13      1.0  0.40995137643590374  0.5639772142386652  0.14111831775762665  1.0000
  S   S25       1.0  0.4443745172386404  0.5315971370655697  0.20735610283604122  1.0000
  S   S26       1.0  0.4149350904915752  0.5629415603130113  0.0543800338197165  1.0000
  Fe  Fe14      1.0  0.3483349444775152  0.5955616243890359  0.2099346269042719  1.0000
  S   S27       1.0  0.37844603740458865  0.565444325145382  0.2815190778077643  1.0000
  S   S28       1.0  0.28547295229324776  0.6289678453809889  0.197102395529083  1.0000
  Fe  Fe15      1.0  0.44801342787791526  0.5754909193251103  0.25994544120615376  1.0000
  S   S29       1.0  0.5178257617823616  0.5801584347772423  0.31938864508988113  1.0000
  Fe  Fe16      1.0  0.37250948927594935  0.5246248753161111  0.22350807558750915  1.0000
  S   S30       1.0  0.34513292630921877  0.47413377562940273  0.22971408885642355  1.0000
  S   S31       1.0  0.4182867270049263  0.6086827675633167  0.19207013757734162  1.0000
  S   S32       1.0  0.33776242778989213  0.553767683629991  0.1538084504620213  1.0000
  Fe  Fe17      1.0  0.0006001094587220202  0.6899498604540337  0.2876293643456606  1.0000
  S   S33       1.0  0.05665596037120957  0.7167579458905595  0.3451239448284579  1.0000
  S   S34       1.0  0.9641442031030382  0.7122549853881397  0.20935708324064842  1.0000
  Fe  Fe18      1.0  0.006124120140816203  0.6308280549142883  0.36103338560605236  1.0000
  S   S35       1.0  0.06142843803373033  0.6539199652544821  0.42313465934114314  1.0000
  S   S36       1.0  0.9822149493998552  0.5796810336035095  0.3724783202498048  1.0000
  Fe  Fe19      1.0  0.018277973282973425  0.6988084539785256  0.4054893999918743  1.0000
  S   S37       1.0  0.995572693727537  0.7289069321190912  0.46776472242378925  1.0000
  Fe  Fe20      1.0  0.09431433442873052  0.6688586773893809  0.3564744022489511  1.0000
  S   S38       1.0  0.1720277534277716  0.6574231814900828  0.3745433376709446  1.0000
  S   S39       1.0  0.9599232638516052  0.6747730074004527  0.34723852729119015  1.0000
  S   S40       1.0  0.04118303780750554  0.6431062815421549  0.2944943623149401  1.0000
  Fe  Fe21      1.0  0.7279572056716268  0.6545827591485498  0.626935155684419  1.0000
  S   S41       1.0  0.6843239255945902  0.6994946853740239  0.6205392693563039  1.0000
  S   S42       1.0  0.7340209030985775  0.61229338393876  0.6819283440398146  1.0000
  Fe  Fe22      1.0  0.7705018223426484  0.6739684071765805  0.5358827266578227  1.0000
  S   S43       1.0  0.7318289163349373  0.7210905767728386  0.5218487704518909  1.0000
  S   S44       1.0  0.8176545168276805  0.6507752635072496  0.48983353439907046  1.0000
  Fe  Fe23      1.0  0.7502031453598476  0.7254263428582923  0.610909614007061  1.0000
  S   S45       1.0  0.7756722228803756  0.7670888305915153  0.6677680563346715  1.0000
  Fe  Fe24      1.0  0.6699059682071717  0.6910776815103528  0.5324535029598602  1.0000
  S   S46       1.0  0.596620341054497  0.6938458804702674  0.4794051684383034  1.0000
  S   S47       1.0  0.7941931472867682  0.6804739765183014  0.6229606875574042  1.0000
  S   S48       1.0  0.7081357805103887  0.6440558176529397  0.5406450297045824  1.0000
  Fe  Fe25      1.0  0.41576472216049354  0.051527000785484445  0.786048566004964  1.0000
  S   S49       1.0  0.36139929746498806  0.029654655014745623  0.7202312006703923  1.0000
  S   S50       1.0  0.4091129683379748  0.09549166955212265  0.8357107167245591  1.0000
  Fe  Fe26      1.0  0.48652646467386845  0.9973506634155994  0.7863826665271312  1.0000
  S   S51       1.0  0.43786603943093455  0.971455345792122  0.7201746183453609  1.0000
  S   S52       1.0  0.5604308409636203  0.9788959117032267  0.8210550326414782  1.0000
  Fe  Fe27      1.0  0.4229695823241707  0.02019711698243354  0.6818463535645973  1.0000
  S   S53       1.0  0.4155900959583809  0.02182198842072447  0.592166263243741  1.0000
  Fe  Fe28      1.0  0.38084774461761567  0.9829350068792068  0.7632937504942094  1.0000
  S   S54       1.0  0.33501683386226305  0.9431534955065779  0.7853306181149896  1.0000
  S   S55       1.0  0.4758627677943705  0.04543023920654088  0.7451552305340979  1.0000
  S   S56       1.0  0.4309057254444672  0.005456017868235463  0.8320011179419194  1.0000
  Fe  Fe29      1.0  0.970028437763035  0.8986849434500813  0.7642544119680609  1.0000
  S   S57       1.0  0.042247242847828215  0.882220040377902  0.8048669204559467  1.0000
  S   S58       1.0  0.9359792689526618  0.8739890724540442  0.6866972030396161  1.0000
  Fe  Fe30      1.0  0.9727735355714107  0.9559587121575239  0.8430542331361028  1.0000
  S   S59       1.0  0.045109739452968166  0.9433572956513584  0.8878139792705232  1.0000
  S   S60       1.0  0.9324348497857989  0.9993860234276992  0.8637124404245787  1.0000
  Fe  Fe31      1.0  0.06246078132871844  0.9348996543410641  0.8085018194828334  1.0000
  S   S61       1.0  0.11672048888350013  0.962368650845422  0.7745373059400076  1.0000
  Fe  Fe32      1.0  0.017484938122348748  0.8923519319741946  0.8797544377305018  1.0000
  S   S62       1.0  0.01493951278763439  0.858689298210063  0.9470900022340353  1.0000
  S   S63       1.0  0.9910443961773105  0.9508043090107431  0.7639098065389422  1.0000
  S   S64       1.0  0.9440178281959075  0.9054828840894987  0.8385740907438206  1.0000
  Fe  Fe33      1.0  0.7792997954309  0.8561982656453699  0.15292470657206553  1.0000
  S   S65       1.0  0.8237334729554389  0.9009554133001934  0.16439410595518614  1.0000
  S   S66       1.0  0.8035434852108454  0.815472359421619  0.2112875613944227  1.0000
  Fe  Fe34      1.0  0.7023342490339488  0.8882294122710667  0.06867522376654778  1.0000
  S   S67       1.0  0.7418916683949902  0.9345235004535635  0.07398288252923924  1.0000
  S   S68       1.0  0.6276567847392611  0.8877157497475671  0.019236976629955604  1.0000
  Fe  Fe35      1.0  0.8052023251812659  0.9037076579511654  0.07641190985292035  1.0000
  S   S69       1.0  0.8551742615325362  0.9275502424174364  0.034468912550858155  1.0000
  Fe  Fe36      1.0  0.7567213665417913  0.9279290481293506  0.16132384782212827  1.0000
  S   S70       1.0  0.7553280672886555  0.9737789900632914  0.2079563609273794  1.0000
  S   S71       1.0  0.7649268043639749  0.8570497106817195  0.06366066751038724  1.0000
  S   S72       1.0  0.7129152020829725  0.8833111008367053  0.15687704034384276  1.0000
  Fe  Fe37      1.0  0.5806876941557653  0.1243986671030064  0.280496791315667  1.0000
  S   S73       1.0  0.5409705214791848  0.09211215619384198  0.21680677072133595  1.0000
  S   S74       1.0  0.6361791666088964  0.1586377324364051  0.2636672680528802  1.0000
  Fe  Fe38      1.0  0.523757637754125  0.1024517132672972  0.3614451278670101  1.0000
  S   S75       1.0  0.4792649544991558  0.06932262879422392  0.30246753096874845  1.0000
  S   S76       1.0  0.5239801236146931  0.10592017990341553  0.44962389325707697  1.0000
  Fe  Fe39      1.0  0.5470725720062282  0.05544104878305425  0.28110999236758766  1.0000
  S   S77       1.0  0.5629020723830138  0.0028579089481386433  0.27233289503221  1.0000
  Fe  Fe40      1.0  0.4769589425141902  0.10946641245774891  0.24350001816490344  1.0000
  S   S78       1.0  0.41103923893983907  0.11681803896106695  0.17947853470543182  1.0000
  S   S79       1.0  0.5921317111473099  0.08615861126169648  0.34298865050458144  1.0000
  S   S80       1.0  0.5161381631407752  0.14422148711278354  0.3040075768115295  1.0000
  Fe  Fe41      1.0  0.9529424686147258  0.10573317877340642  0.11834054262915751  1.0000
  S   S81       1.0  0.8859117716419986  0.12562392581515922  0.07113328070464078  1.0000
  S   S82       1.0  0.9836274316751625  0.05885023327378067  0.09589798094860293  1.0000
  Fe  Fe42      1.0  0.9643190860555274  0.16188497065022986  0.19881888565885295  1.0000
  S   S83       1.0  0.8959531162624357  0.18488943511155825  0.15750459655088841  1.0000
  S   S84       1.0  0.008747720732779208  0.18263677352497437  0.2751374027141867  1.0000
  Fe  Fe43      1.0  0.8663467176562134  0.13426411513339867  0.1491526294425227  1.0000
  S   S85       1.0  0.7983275817528501  0.10893911447547613  0.1545099571446714  1.0000
  Fe  Fe44      1.0  0.9219777298831469  0.17346862496999035  0.08401055377931191  1.0000
  S   S86       1.0  0.9211192296092532  0.2056862081950651  0.014159563146546095  1.0000
  S   S87       1.0  0.9326634877319601  0.11210692308234865  0.19634835788498115  1.0000
  S   S88       1.0  0.9914409728303344  0.15282968938525424  0.1257802873272861  1.0000
  Fe  Fe45      1.0  0.17357898042573092  0.232440689367961  0.9718919884349857  1.0000
  S   S89       1.0  0.22025410883348054  0.27588734000947956  0.9819532408826313  1.0000
  S   S90       1.0  0.13683782578315015  0.22467692502768633  0.03802994106919777  1.0000
  Fe  Fe46      1.0  0.21629788925623233  0.2050842063128804  0.8842832207434711  1.0000
  S   S91       1.0  0.26699992536378997  0.24615220881186298  0.8896685906375534  1.0000
  S   S92       1.0  0.21416602096685028  0.16584513305693924  0.8234679448603263  1.0000
  Fe  Fe47      1.0  0.2773805112698157  0.24020876102839636  0.9778680378954722  1.0000
  S   S93       1.0  0.3442115523667884  0.2422879237791053  0.04257062042823426  1.0000
  Fe  Fe48      1.0  0.20405831413675088  0.2771015263773401  0.8932666732436253  1.0000
  S   S94       1.0  0.19082920213443735  0.3211561355144562  0.8398101888596027  1.0000
  S   S95       1.0  0.23110602956013468  0.19678937841837327  0.9715231730926888  1.0000
  S   S96       1.0  0.1527005617403507  0.23602599358424034  0.883447599854594  1.0000
  C   C1        1.0  0.9788018315431436  0.2190357678924883  0.018786894938265464  1.0000
  C   C2        1.0  0.00833635402112796  0.2220644784635811  0.06862869306504894  1.0000
  C   C3        1.0  0.056691057857613004  0.22547828208309637  0.07362327728064048  1.0000
  C   C4        1.0  0.07569742508262456  0.22669486975383038  0.02876249290133672  1.0000
  C   C5        1.0  0.04596846512920797  0.22614910647868297  0.9784972460678226  1.0000
  C   C6        1.0  0.9972820482316359  0.22220145273654338  0.9735082768525286  1.0000
  H   H1        1.0  0.9939822892905044  0.22064694489488462  0.10356211369874738  1.0000
  H   H2        1.0  0.0795558019728265  0.22614449156528252  0.11248087704132147  1.0000
  H   H3        1.0  0.06061001067253229  0.22729073926451096  0.9437134108104424  1.0000
  H   H4        1.0  0.9743577941092446  0.21996718823627665  0.9348288870467092  1.0000
  C   C7        1.0  0.392720486705549  0.15238913488674755  0.14341930850698015  1.0000
  C   C8        1.0  0.3592485079021117  0.1497540629120188  0.09577156715429286  1.0000
  C   C9        1.0  0.34423168628584866  0.1770993050332736  0.06480963304195211  1.0000
  C   C10       1.0  0.3621780606634171  0.20754249966919566  0.08134498475297232  1.0000
  C   C11       1.0  0.39548067426113354  0.21032347792788256  0.12934918673985288  1.0000
  C   C12       1.0  0.41049593108475874  0.18285182424640228  0.16052868417356111  1.0000
  H   H5        1.0  0.34532211246750066  0.1262870733489466  0.08226946934843865  1.0000
  H   H6        1.0  0.31959304930805704  0.1743929345006959  0.02748937290072072  1.0000
  H   H7        1.0  0.4094173224827422  0.23382388706753154  0.14258836564527488  1.0000
  H   H8        1.0  0.4355242732885796  0.185179912298513  0.19781118811273715  1.0000
  C   C13       1.0  0.6822357682926229  0.14413771290084154  0.23545316797496224  1.0000
  C   C14       1.0  0.682037499682872  0.1126036498042564  0.2161477149774916  1.0000
  C   C15       1.0  0.7180023040721714  0.10223952386969491  0.19166191426251342  1.0000
  C   C16       1.0  0.754697430513449  0.12314537325327952  0.1867176126190744  1.0000
  C   C17       1.0  0.7550289540906313  0.15463515856969978  0.20621294271833923  1.0000
  C   C18       1.0  0.7187287072948912  0.1651220107504266  0.2301982908530386  1.0000
  H   H9        1.0  0.6541465802310987  0.09624407248015386  0.21993875655541476  1.0000
  H   H10       1.0  0.7175558366051678  0.07784067864661699  0.17672150762410424  1.0000
  H   H11       1.0  0.7829918570186551  0.17095438803150284  0.20240990219615496  1.0000
  H   H12       1.0  0.7190138452351982  0.18957917330753515  0.2448955609186731  1.0000
  C   C19       1.0  0.7038791845126797  0.9810659182393612  0.23091798431022764  1.0000
  C   C20       1.0  0.6936283064338824  0.012531114933541865  0.24488069680806365  1.0000
  C   C21       1.0  0.6507361633968608  0.019380678055790357  0.25873812944261193  1.0000
  C   C22       1.0  0.6182641956574263  0.994656373514754  0.25927182382080516  1.0000
  C   C23       1.0  0.6291275690121223  0.9630673361805449  0.24685593718839371  1.0000
  C   C24       1.0  0.6718478050998994  0.9562824757391456  0.23270053062098078  1.0000
  H   H13       1.0  0.7184796428706673  0.031779940051006594  0.24399990299716434  1.0000
  H   H14       1.0  0.6426703019186124  0.04381083159616983  0.2684943129504979  1.0000
  H   H15       1.0  0.6041395073050023  0.9438565201085082  0.24736145182785688  1.0000
  H   H16       1.0  0.6797506184224945  0.9318947606533131  0.2227494810756927  1.0000
  C   C25       1.0  0.9469294929210652  0.01582793137259633  0.9283437080225759  1.0000
  C   C26       1.0  0.9207854564304756  0.041861990085030804  0.9415250188695211  1.0000
  C   C27       1.0  0.9314036059116199  0.05526902329866808  0.9927145270653274  1.0000
  C   C28       1.0  0.9682161561016001  0.042634249250540636  0.031239444964383783  1.0000
  C   C29       1.0  0.9941468063006749  0.01656646636306669  0.018063055692381095  1.0000
  C   C30       1.0  0.983731396565462  0.003344042478134135  0.9668763411527782  1.0000
  H   H17       1.0  0.8922739389847236  0.051771802320447154  0.9119929139090387  1.0000
  H   H18       1.0  0.9110289481410644  0.07529831106249898  0.0021923057294710446  1.0000
  H   H19       1.0  0.02256175306810317  0.006507860058811543  0.047570329503413486  1.0000
  H   H20       1.0  0.004048826143136427  0.983297531710445  0.9575105702896094  1.0000
  C   C31       1.0  0.9731461752614541  0.8763507984139751  0.9778220544579561  1.0000
  C   C32       1.0  0.9715760474327113  0.9098932516005322  0.9812673308976759  1.0000
  C   C33       1.0  0.9361859228591408  0.9249679271906545  0.0009250832692602184  1.0000
  C   C34       1.0  0.9017819918118655  0.9066819897936936  0.01710888173526448  1.0000
  C   C35       1.0  0.9036373174887619  0.8729350928274451  0.015238385599151805  1.0000
  C   C36       1.0  0.9394924739194386  0.8577150818784318  0.9954799822436583  1.0000
  H   H21       1.0  0.9976482310224087  0.9243621172258222  0.9684380999445182  1.0000
  H   H22       1.0  0.9351114264146166  0.9510195980351094  0.0028313901392165164  1.0000
  H   H23       1.0  0.8767003430667719  0.8587242030462395  0.027215140868925403  1.0000
  H   H24       1.0  0.940106214256651  0.8317288364089465  0.9919581870915806  1.0000
  C   C37       1.0  0.4455079645005945  0.04613010771642312  0.5534925633186623  1.0000
  C   C38       1.0  0.48186164260153447  0.06716622855284479  0.5761698138647524  1.0000
  C   C39       1.0  0.5049245703107614  0.08557283334799334  0.5437581637516214  1.0000
  C   C40       1.0  0.49209467027876025  0.08320823213985501  0.48835195937328385  1.0000
  C   C41       1.0  0.45556168522729545  0.062312145375188796  0.4656828614001254  1.0000
  C   C42       1.0  0.43264855883554937  0.043806082979183696  0.4980692370971715  1.0000
  H   H25       1.0  0.4921417573215369  0.0693175652203053  0.6186679637896257  1.0000
  H   H26       1.0  0.5329771008053328  0.10174130965304162  0.561807522427151  1.0000
  H   H27       1.0  0.44454718549086664  0.06066545685915267  0.4231963990258727  1.0000
  H   H28       1.0  0.4043149806345572  0.02783631202620565  0.4800614746476676  1.0000
  C   C43       1.0  0.5790358183379414  0.9570832919437899  0.8804501949597694  1.0000
  C   C44       1.0  0.6265879092279325  0.9483978248638854  0.8961349947592346  1.0000
  C   C45       1.0  0.6422514011007711  0.928197234479023  0.9399333433960466  1.0000
  C   C46       1.0  0.61016131235962  0.9157985970433405  0.9675674426429205  1.0000
  C   C47       1.0  0.5628098056881358  0.925157211798021  0.952837064232463  1.0000
  C   C48       1.0  0.547441054612303  0.9462575397308284  0.9101032072497744  1.0000
  H   H29       1.0  0.6512271488747307  0.9567864413432952  0.8735044676558111  1.0000
  H   H30       1.0  0.6787815759888676  0.9211381874005157  0.951023098271984  1.0000
  H   H31       1.0  0.5379128072658294  0.9159180750545663  0.9744947142340654  1.0000
  H   H32       1.0  0.5110199501167585  0.953517159650952  0.8994454371592746  1.0000
  C   C49       1.0  0.2739159753899414  0.9478882027281708  0.7804655273842516  1.0000
  C   C50       1.0  0.24896413259262146  0.9733085452669125  0.7520389848452712  1.0000
  C   C51       1.0  0.2007495756993723  0.977034686367848  0.7503252387372198  1.0000
  C   C52       1.0  0.17697065906839396  0.9554790632440147  0.777019111073675  1.0000
  C   C53       1.0  0.20170014334301112  0.9297978822912766  0.8049526933898911  1.0000
  C   C54       1.0  0.2500051837226056  0.9259924089523994  0.8064976699965263  1.0000
  H   H33       1.0  0.26678482289687977  0.9900425951380715  0.7311826010461655  1.0000
  H   H34       1.0  0.18183691500030658  0.9969083779268031  0.7284172395319946  1.0000
  H   H35       1.0  0.18376225691665163  0.9130141626751084  0.8255926670425522  1.0000
  H   H36       1.0  0.2690289872000785  0.9061736441831062  0.8284394685890712  1.0000
  C   C55       1.0  0.35544074450394875  0.11630603869229507  0.8289711245833473  1.0000
  C   C56       1.0  0.31650400344820506  0.10890781937763624  0.7886652017999538  1.0000
  C   C57       1.0  0.2733340251752665  0.12450903641458624  0.7867589515490053  1.0000
  C   C58       1.0  0.26899053469587747  0.14764861043536348  0.824950520948087  1.0000
  C   C59       1.0  0.30810622853022224  0.15539706641016296  0.8646922184915521  1.0000
  C   C60       1.0  0.3511847870824641  0.13980657789863268  0.8665993464313828  1.0000
  H   H37       1.0  0.3196358661305499  0.09118655119459422  0.7590197058107531  1.0000
  H   H38       1.0  0.2432396559526409  0.11859634390991393  0.755711223600178  1.0000
  H   H39       1.0  0.3051330296068665  0.17320348254907464  0.8943169880198647  1.0000
  H   H40       1.0  0.3811801025891131  0.14569839970352852  0.8978004552272315  1.0000
  C   C61       1.0  0.8203582309746186  0.7965668185327741  0.671426557709058  1.0000
  C   C62       1.0  0.836500588700418  0.8129274450673496  0.7195073513783034  1.0000
  C   C63       1.0  0.8719435977484657  0.8365393282907521  0.7248067770891846  1.0000
  C   C64       1.0  0.8911609922234554  0.8444785543447223  0.6816829904464421  1.0000
  C   C65       1.0  0.8747770460822404  0.8283590949033576  0.6333679666462892  1.0000
  C   C66       1.0  0.8397642105460681  0.8043498867093968  0.6282862566634911  1.0000
  H   H41       1.0  0.8215744387655219  0.8071751666024106  0.7530223209266078  1.0000
  H   H42       1.0  0.8841611327029556  0.8487027415066236  0.7621974958611438  1.0000
  H   H43       1.0  0.8890764052543102  0.8345678000766847  0.5996131335384164  1.0000
  H   H44       1.0  0.8271415257903011  0.7923431439355018  0.5908280645185984  1.0000
  C   C67       1.0  0.9492065736497308  0.7070725833992441  0.4831577164136382  1.0000
  C   C68       1.0  0.9468738140428862  0.6738817169343571  0.4737399808434102  1.0000
  C   C69       1.0  0.9067157452578504  0.6566005266228977  0.4773095033904382  1.0000
  C   C70       1.0  0.8690956119047606  0.6723553156270464  0.4915413819780075  1.0000
  C   C71       1.0  0.872028640369843  0.7053013292376678  0.5037989488381736  1.0000
  C   C72       1.0  0.9121772056798484  0.7227832602017472  0.49928523080863807  1.0000
  H   H45       1.0  0.9755477079315252  0.6615533584202866  0.46204325586719397  1.0000
  H   H46       1.0  0.9045790441632847  0.6311073639584645  0.4678573273092921  1.0000
  H   H47       1.0  0.8426181392370514  0.717530736290082  0.5143687318043725  1.0000
  H   H48       1.0  0.9134889131778453  0.7486099719851964  0.5054848770521093  1.0000
  C   C73       1.0  0.9208348705005789  0.7420173209070684  0.20996056940969443  1.0000
  C   C74       1.0  0.8917862703145006  0.7521373228793368  0.16219878160413023  1.0000
  C   C75       1.0  0.8574393475520427  0.7761129805011506  0.16163112436483354  1.0000
  C   C76       1.0  0.8513902803732861  0.7897352880739053  0.20902989041885722  1.0000
  C   C77       1.0  0.880973344562811  0.7799632013556477  0.25664427371756143  1.0000
  C   C78       1.0  0.9158096547792975  0.75640579243112  0.2571376973771707  1.0000
  H   H49       1.0  0.8950959052784474  0.740873084144066  0.1255717522715936  1.0000
  H   H50       1.0  0.834244984837673  0.7830107720648068  0.12482342824185608  1.0000
  H   H51       1.0  0.8766925316519959  0.7906142512289105  0.2933869802523729  1.0000
  H   H52       1.0  0.9385983231792686  0.7492200169500274  0.29405389404570004  1.0000
  C   C79       1.0  0.5400942432461023  0.61426653685866  0.358058410791805  1.0000
  C   C80       1.0  0.511790361918405  0.6405491970920794  0.3646474850485608  1.0000
  C   C81       1.0  0.5301394506712898  0.6655602702971783  0.4001759168071194  1.0000
  C   C82       1.0  0.5767367041582602  0.664428983134212  0.4296223830635391  1.0000
  C   C83       1.0  0.6053613621190418  0.6386967069604316  0.4214876325492801  1.0000
  C   C84       1.0  0.5871025378273743  0.6137611264548254  0.38605881177045015  1.0000
  H   H53       1.0  0.47557328691546397  0.6412992365331295  0.3431720881028523  1.0000
  H   H54       1.0  0.5077647024195869  0.6855025278850985  0.405748970035894  1.0000
  H   H55       1.0  0.641409316550418  0.6376676379329551  0.4429366760764218  1.0000
  H   H56       1.0  0.6093291571266476  0.5936234008456377  0.3809936341212251  1.0000
  C   C85       1.0  0.25410547966547786  0.6361768158604253  0.24676865662843628  1.0000
  C   C86       1.0  0.21022967882572705  0.6515749867393014  0.23336881496237077  1.0000
  C   C87       1.0  0.18465029902720004  0.6583186286618075  0.27214411420150214  1.0000
  C   C88       1.0  0.2031882455008276  0.650034661199217  0.32471927998662664  1.0000
  C   C89       1.0  0.2470567042733928  0.6346563799170544  0.3381516156063072  1.0000
  C   C90       1.0  0.2722726433224816  0.6274436260238845  0.29923076448875385  1.0000
  H   H57       1.0  0.19615002505974588  0.658468398490273  0.19282520942524278  1.0000
  H   H58       1.0  0.150929225714701  0.6702441021082083  0.26148078537339187  1.0000
  H   H59       1.0  0.26166267342769833  0.6283730331286341  0.3788472272502547  1.0000
  H   H60       1.0  0.30623730537886373  0.6158804412403408  0.3099402036504051  1.0000
  C   C91       1.0  0.056266569522196615  0.2098895617286669  0.27809382025524787  1.0000
  C   C92       1.0  0.08191876075676062  0.22019689594127506  0.3276988822536513  1.0000
  C   C93       1.0  0.11703667381747308  0.24399468137826938  0.3319646291950011  1.0000
  C   C94       1.0  0.12789982192874602  0.25709862147185353  0.2865052015323895  1.0000
  C   C95       1.0  0.10292817199562634  0.24633101415840208  0.23684314657008781  1.0000
  C   C96       1.0  0.06700924132200893  0.22306595386754807  0.23261330503433622  1.0000
  H   H61       1.0  0.07452310653309072  0.20975634890758052  0.36313600045180255  1.0000
  H   H62       1.0  0.13647019274753786  0.25166127244065023  0.37043690482781855  1.0000
  H   H63       1.0  0.11082327825069072  0.2564501188973969  0.2014355861087764  1.0000
  H   H64       1.0  0.047417381095420756  0.21549229840410977  0.1942240483307846  1.0000
  C   C97       1.0  0.2980560886606062  0.46794440178067914  0.2609724362830815  1.0000
  C   C98       1.0  0.277855510456994  0.4372056817578073  0.2585659525406713  1.0000
  C   C99       1.0  0.24346975907827645  0.4302643307987644  0.28709636764748964  1.0000
  C   C100      1.0  0.22961417550792357  0.45380773653605133  0.31912490338348704  1.0000
  C   C101      1.0  0.24861888761545634  0.4849767431093142  0.32025388638862745  1.0000
  C   C102      1.0  0.2826612580385891  0.4921131644344115  0.29098553012047423  1.0000
  H   H65       1.0  0.2892707794990043  0.41848194566036606  0.23508967136206646  1.0000
  H   H66       1.0  0.22788875465782502  0.406531338063145  0.2844746862081511  1.0000
  H   H67       1.0  0.2384176571152242  0.5032312716760958  0.34530273100200837  1.0000
  H   H68       1.0  0.29806677097388307  0.5159376975864965  0.29296311596941277  1.0000
  C   C103      1.0  0.9912553775913051  0.5397708073285186  0.5396582470934289  1.0000
  C   C104      1.0  0.006725126658285285  0.5711472921832573  0.5326803691231319  1.0000
  C   C105      1.0  0.003440523902634718  0.5837644947732386  0.4817619508673557  1.0000
  C   C106      1.0  0.9850367733654573  0.5650159738563245  0.4371832063826457  1.0000
  C   C107      1.0  0.9693233940984519  0.5336167616082098  0.4441666985129643  1.0000
  C   C108      1.0  0.9722090109210558  0.521065065321195  0.49517086702042024  1.0000
  H   H69       1.0  0.02151446432860671  0.5858024918754579  0.5668133620649238  1.0000
  H   H70       1.0  0.015423666535027136  0.6079679898947651  0.47718927138222067  1.0000
  H   H71       1.0  0.954775712797422  0.5189789766389091  0.40993494812791176  1.0000
  H   H72       1.0  0.9601513102116038  0.4968375344217003  0.4999460638044813  1.0000
  C   C109      1.0  0.9895104171558451  0.36529666977047975  0.5059806874579901  1.0000
  C   C110      1.0  0.009759452919724868  0.36067468053855517  0.4624389963688198  1.0000
  C   C111      1.0  0.05594028200927324  0.3492021833090442  0.469703237570925  1.0000
  C   C112      1.0  0.08164914852526257  0.3420080402815496  0.5204477636203052  1.0000
  C   C113      1.0  0.06062362392504169  0.345341520000673  0.5636841820021679  1.0000
  C   C114      1.0  0.014658467590403672  0.3571134665684735  0.5564788172046318  1.0000
  H   H73       1.0  0.9904066349452276  0.36728587624916886  0.4234536414315013  1.0000
  H   H74       1.0  0.07179387980475961  0.3463471549046073  0.4362243892442097  1.0000
  H   H75       1.0  0.08029501858237797  0.3397612572289639  0.6030317152230131  1.0000
  H   H76       1.0  0.9987461630585094  0.35998544509401303  0.5901263987485649  1.0000
  C   C115      1.0  0.04621018651285478  0.36914663221299476  0.7827516623550718  1.0000
  C   C116      1.0  0.05329370064383543  0.3466218251794082  0.8241572386738812  1.0000
  C   C117      1.0  0.09703191951384804  0.33121154623158267  0.841275590434421  1.0000
  C   C118      1.0  0.13450731615736278  0.3387667378311308  0.8179118886487707  1.0000
  C   C119      1.0  0.12737287375706371  0.36112367379592025  0.7762308440742882  1.0000
  C   C120      1.0  0.08330656529623705  0.37600831092761616  0.7583200737723519  1.0000
  H   H77       1.0  0.02487891450165779  0.341154957422621  0.8433613202293667  1.0000
  H   H78       1.0  0.10202826525172781  0.3140790157202014  0.8733905315297913  1.0000
  H   H79       1.0  0.15617435946248526  0.3671757644164107  0.757967495517492  1.0000
  H   H80       1.0  0.07842674953317176  0.3934022633573497  0.7266150650763267  1.0000
  C   C121      1.0  0.44976779206427825  0.5382731215252922  0.02222279736354671  1.0000
  C   C122      1.0  0.4385747462336337  0.5366334891111705  0.966791528648607  1.0000
  C   C123      1.0  0.46512861256790117  0.5174168899184279  0.9392989932975  1.0000
  C   C124      1.0  0.5039230924514948  0.5001274048494314  0.9669880768937822  1.0000
  C   C125      1.0  0.5148568502916605  0.5015131285686278  0.022469136004223067  1.0000
  C   C126      1.0  0.4878717661564101  0.5204015460907561  0.05002534093861798  1.0000
  H   H81       1.0  0.4089679916669209  0.5502226006330304  0.944960266839098  1.0000
  H   H82       1.0  0.45568090681400286  0.5161929421591608  0.8966802722116113  1.0000
  H   H83       1.0  0.5448441317000507  0.48827980017387923  0.044280758053596596  1.0000
  H   H84       1.0  0.4970913102343654  0.5215995062311488  0.09269049981441707  1.0000
  C   C127      1.0  0.39508770636806834  0.40909312537886844  0.6400473097343078  1.0000
  C   C128      1.0  0.4277768335379468  0.40398576218277166  0.6086875279211914  1.0000
  C   C129      1.0  0.4154085264175114  0.38526707469838467  0.5623052039599009  1.0000
  C   C130      1.0  0.3696429191197004  0.3728785281757996  0.5457896340035846  1.0000
  C   C131      1.0  0.3369354434160492  0.3785318089281022  0.5768069255125655  1.0000
  C   C132      1.0  0.3497331378668202  0.3963068890079511  0.623874336430411  1.0000
  H   H85       1.0  0.46253784791053193  0.41420993741638573  0.6205759317803701  1.0000
  H   H86       1.0  0.44111505648787624  0.38074716807581804  0.5388571982284557  1.0000
  H   H87       1.0  0.3020110137133938  0.3685071319737775  0.5653331939254972  1.0000
  H   H88       1.0  0.3243340241409066  0.4000285923866941  0.648080745580452  1.0000
  C   C133      1.0  0.6880196155253404  0.4318715624243825  0.71766431950254  1.0000
  C   C134      1.0  0.6888118534886118  0.464473263978668  0.7044117202971198  1.0000
  C   C135      1.0  0.7248302550413196  0.47647211802048717  0.6816260833077853  1.0000
  C   C136      1.0  0.760425677046392  0.4560830202726727  0.6718997891586925  1.0000
  C   C137      1.0  0.7595286969339609  0.42335509794455867  0.6846546041337865  1.0000
  C   C138      1.0  0.7235073857322553  0.4113306020752197  0.7077019438495059  1.0000
  H   H89       1.0  0.6616349135710722  0.4804700962943782  0.711662323834224  1.0000
  H   H90       1.0  0.7251175979985657  0.5017491833509687  0.6714695984042656  1.0000
  H   H91       1.0  0.7862703984278704  0.40734153677215085  0.6763148157061737  1.0000
  H   H92       1.0  0.7229024448419158  0.3860050261304737  0.7174326626114261  1.0000
  C   C139      1.0  0.5941073703373738  0.5796236726348462  0.7146218759606386  1.0000
  C   C140      1.0  0.6309333156278726  0.5576578176082208  0.7178569603553571  1.0000
  C   C141      1.0  0.6743566346553725  0.5680735370091968  0.7092830118917238  1.0000
  C   C142      1.0  0.6806738245780359  0.6002901552721445  0.69634997508977  1.0000
  C   C143      1.0  0.644164258996765  0.622408269381379  0.6942754441356467  1.0000
  C   C144      1.0  0.6010382818941917  0.6121332869354558  0.7039130207187583  1.0000
  H   H93       1.0  0.6257876620278383  0.5325467816657039  0.7260099911668672  1.0000
  H   H94       1.0  0.7027510223280315  0.5510072208358336  0.7114349324932843  1.0000
  H   H95       1.0  0.6492830580100686  0.6474494841396758  0.6854461973237993  1.0000
  H   H96       1.0  0.5728979707366555  0.6293400804712468  0.7023821904468108  1.0000
  N   N1        1.0  0.9496998324285222  0.737806832623677  0.66950535905866  1.0000
  C   C145      1.0  0.9456496061029881  0.7578539562946661  0.7154731150982627  1.0000
  C   C146      1.0  0.9862895466378814  0.7129737896247574  0.6861423356259523  1.0000
  C   C147      1.0  0.9626780878150489  0.7584250553960395  0.6285489900080877  1.0000
  C   C148      1.0  0.9041907280800415  0.7219192063716463  0.6478710337251758  1.0000
  H   H97       1.0  0.9353190336158641  0.7432087574549118  0.7469678486669312  1.0000
  H   H98       1.0  0.9184947420795807  0.7768533330465348  0.7041225514995317  1.0000
  H   H99       1.0  0.9792479451302736  0.7702942347946972  0.7330196546649949  1.0000
  H   H100      1.0  0.9776596425859706  0.6969763699252254  0.7170681298563835  1.0000
  H   H101      1.0  0.9901251310271716  0.697386704456408  0.6522783647965655  1.0000
  H   H102      1.0  0.021153049531669632  0.7241220131764265  0.7025083477620471  1.0000
  H   H103      1.0  0.9685936933647051  0.7438602639192424  0.5944948762097875  1.0000
  H   H104      1.0  0.9955916967004674  0.772084677063274  0.6442982435228495  1.0000
  H   H105      1.0  0.93468368210006  0.7763595476893821  0.6130082900923395  1.0000
  H   H106      1.0  0.8928504049537932  0.7066916202676489  0.6780639853777182  1.0000
  H   H107      1.0  0.9060864747040288  0.7061402464512788  0.6136697761493058  1.0000
  H   H108      1.0  0.8757312279125921  0.7398742251473567  0.6342135639568885  1.0000
  N   N2        1.0  0.18403802551740162  0.2679019392944547  0.7036936639124168  1.0000
  C   C149      1.0  0.19878518120336144  0.23368461543561958  0.7071260646199703  1.0000
  C   C150      1.0  0.14364180629914938  0.27199573591991133  0.7289213649839535  1.0000
  C   C151      1.0  0.17024608018695236  0.2777860975772657  0.6477199990869421  1.0000
  C   C152      1.0  0.22349611006785117  0.28823130368128635  0.7312226822188655  1.0000
  H   H109      1.0  0.2294789906459522  0.2296785629660948  0.6889176609070401  1.0000
  H   H110      1.0  0.1699608714764217  0.2175607452551168  0.6867762967444337  1.0000
  H   H111      1.0  0.2091129236594047  0.22549664740470104  0.7489903705865805  1.0000
  H   H112      1.0  0.11337084193738542  0.2567218084150848  0.7097163522790731  1.0000
  H   H113      1.0  0.1530922348321316  0.26540080395478305  0.7714923241664567  1.0000
  H   H114      1.0  0.13138273659629096  0.29749368875807564  0.7267997088601991  1.0000
  H   H115      1.0  0.19974483183131966  0.27505166287135124  0.6271697600804048  1.0000
  H   H116      1.0  0.15925675821840166  0.30358658797701243  0.6439194588407877  1.0000
  H   H117      1.0  0.14027607598405187  0.263235254966664  0.6256018830337761  1.0000
  H   H118      1.0  0.2541640807900089  0.2865319556812812  0.7123842594950371  1.0000
  H   H119      1.0  0.23556596814002959  0.28093613554467267  0.773282977455398  1.0000
  H   H120      1.0  0.2130743978665176  0.31409640277047013  0.7313068593691371  1.0000
  N   N3        1.0  0.8440545051072832  0.5622651070648917  0.5782180677071462  1.0000
  C   C153      1.0  0.8245071661196588  0.5922862778423117  0.5954876559459404  1.0000
  C   C154      1.0  0.8690160673445797  0.5696140875464553  0.5358344134758013  1.0000
  C   C155      1.0  0.8053336887539583  0.5394325477147369  0.5581930433712178  1.0000
  C   C156      1.0  0.8771839250062393  0.54769104264286  0.6234365828989511  1.0000
  H   H121      1.0  0.8067642876751489  0.587768306978414  0.6286663171503409  1.0000
  H   H122      1.0  0.7979185600931559  0.603146086542313  0.5628448591593391  1.0000
  H   H123      1.0  0.8522770477094492  0.6107115140563136  0.6087504535461838  1.0000
  H   H124      1.0  0.8836947933647485  0.5473807281034893  0.5214802130372103  1.0000
  H   H125      1.0  0.8452401406851313  0.5811609890270045  0.501382586880075  1.0000
  H   H126      1.0  0.8988583268547677  0.5864851653579358  0.5497337872199044  1.0000
  H   H127      1.0  0.8187681019000349  0.5159303372864382  0.5467737145296987  1.0000
  H   H128      1.0  0.7803921738043276  0.5492592848714356  0.5230662312108753  1.0000
  H   H129      1.0  0.7848685009318134  0.5342167105212496  0.5887632127454643  1.0000
  H   H130      1.0  0.8931396578549103  0.5253036732347901  0.6115297571499415  1.0000
  H   H131      1.0  0.8592169329073297  0.5410643423633689  0.6556028508283167  1.0000
  H   H132      1.0  0.9066137832992137  0.5643743203693031  0.6399721836407771  1.0000
  N   N4        1.0  0.04554652517706796  0.12104432462628774  0.98056919619565  1.0000
  C   C157      1.0  0.03070329631227957  0.09670992814414862  0.9385349917640599  1.0000
  C   C158      1.0  0.0757045523666988  0.14541707805706922  0.9629255198994956  1.0000
  C   C159      1.0  0.07213451884456856  0.1051466277166358  0.028854333868928366  1.0000
  C   C160      1.0  0.0036559988464585163  0.13699190495018454  0.9922345609137359  1.0000
  H   H133      1.0  0.00825752612871829  0.07784321673775321  0.9508399884004058  1.0000
  H   H134      1.0  0.06138198277572033  0.0842137424480293  0.928549320813243  1.0000
  H   H135      1.0  0.010021047869945609  0.10787014523246347  0.9017650786210062  1.0000
  H   H136      1.0  0.0560801391493347  0.15918523949367464  0.9282749777955982  1.0000
  H   H137      1.0  0.08924965502767859  0.16322783401561958  0.9947669616840499  1.0000
  H   H138      1.0  0.10676197208498102  0.1341987869595594  0.9516878196515084  1.0000
  H   H139      1.0  0.1045533116568001  0.0933961105177222  0.02202854399112386  1.0000
  H   H140      1.0  0.050745225605440245  0.08619770198532872  0.04276856744727585  1.0000
  H   H141      1.0  0.08262049472394381  0.12276797347792313  0.061811914554265636  1.0000
  H   H142      1.0  0.013845207943655187  0.1560957066760933  0.022677421651879942  1.0000
  H   H143      1.0  0.9807623937728271  0.1195542699793964  0.007344176968909544  1.0000
  H   H144      1.0  0.9819556760645489  0.1488630823345661  0.9567221284522546  1.0000
  N   N5        1.0  0.574269976049445  0.5787150914639414  0.907710464678383  1.0000
  C   C161      1.0  0.5860790636562094  0.6103914656215516  0.8880509107784478  1.0000
  C   C162      1.0  0.5583268966079248  0.5830202659081613  0.9575765968611257  1.0000
  C   C163      1.0  0.6161535696602269  0.5576300672292517  0.9170366104694462  1.0000
  C   C164      1.0  0.5364293928220747  0.5636496990362596  0.8678337963100464  1.0000
  H   H145      1.0  0.6149554591564155  0.6224155793695698  0.9167792605535716  1.0000
  H   H146      1.0  0.5551809961309149  0.6268518816022499  0.8807613705224959  1.0000
  H   H147      1.0  0.597611070100051  0.6078430145803444  0.850003854975376  1.0000
  H   H148      1.0  0.5504555622373678  0.5594086774757149  0.9740372367126535  1.0000
  H   H149      1.0  0.5855195831325684  0.5951044146861125  0.9882721777120026  1.0000
  H   H150      1.0  0.5256613500795329  0.5977386565120755  0.9517245961321591  1.0000
  H   H151      1.0  0.6080620452525395  0.5332616796954622  0.9309069836837902  1.0000
  H   H152      1.0  0.6453290080387554  0.5679371360884893  0.947499121652833  1.0000
  H   H153      1.0  0.6292881523849807  0.5540887537688131  0.8802414716849914  1.0000
  H   H154      1.0  0.5036404856670776  0.5782460217186808  0.860526072146509  1.0000
  H   H155      1.0  0.5278402469796103  0.5392528669211333  0.8803699979836529  1.0000
  H   H156      1.0  0.5469545471501517  0.560689144042628  0.8295251782754968  1.0000
  N   N6        1.0  0.3566415143752948  0.4665620111487211  0.05867106761508167  1.0000
  C   C165      1.0  0.33092465787979697  0.438890057260377  0.07445565423625666  1.0000
  C   C166      1.0  0.3782550481414263  0.45708343653074995  0.014438995875985405  1.0000
  C   C167      1.0  0.39374347777365354  0.47679059665281487  0.10406194698820892  1.0000
  C   C168      1.0  0.3236852285056879  0.4935914133413242  0.04203552404121269  1.0000
  H   H157      1.0  0.302167694439333  0.4306777758015269  0.04143247303058106  1.0000
  H   H158      1.0  0.31490389732614904  0.44532294215638146  0.10840461858395378  1.0000
  H   H159      1.0  0.3546972753398408  0.4180035383680376  0.08701843249369823  1.0000
  H   H160      1.0  0.40376444882093115  0.43699048635466936  0.02574765913115029  1.0000
  H   H161      1.0  0.35131512151871014  0.44910078616179216  0.9794581872351955  1.0000
  H   H162      1.0  0.3977516430541488  0.47759260502152295  0.0016800082606043265  1.0000
  H   H163      1.0  0.41942236977854597  0.45713778654191517  0.11785768858517764  1.0000
  H   H164      1.0  0.37860772106960394  0.4841755449202098  0.13796064495315652  1.0000
  H   H165      1.0  0.41353422462815004  0.49785132806820415  0.09402206213391184  1.0000
  H   H166      1.0  0.3065419970132231  0.5012036835450099  0.07441803476913433  1.0000
  H   H167      1.0  0.29547120052644893  0.4869307455509149  0.007420151982184597  1.0000
  H   H168      1.0  0.3420812234378352  0.5151318702094497  0.03078562648959493  1.0000
  N   N7        1.0  0.38453166175717246  0.43821777175623833  0.41356711959934406  1.0000
  C   C169      1.0  0.33551106865506325  0.426562048605016  0.4009011603923372  1.0000
  C   C170      1.0  0.4167606026979817  0.41058765830921207  0.41467455946125376  1.0000
  C   C171      1.0  0.39404995974276885  0.45429035593388517  0.46569706184693055  1.0000
  C   C172      1.0  0.3916740886684388  0.46136004206131453  0.3728384627654895  1.0000
  H   H169      1.0  0.3270549361858413  0.4140519956425157  0.3620248448112259  1.0000
  H   H170      1.0  0.3101500939966351  0.4467110184434636  0.39961637920617005  1.0000
  H   H171      1.0  0.3287733553846075  0.4091403373566205  0.4309005033398734  1.0000
  H   H172      1.0  0.45411985119135906  0.4184068203945471  0.4239077384120083  1.0000
  H   H173      1.0  0.4123326629907288  0.3925900098004276  0.44483263003530193  1.0000
  H   H174      1.0  0.4099068001736114  0.3977424089782291  0.3760228870869577  1.0000
  H   H175      1.0  0.38736365811008633  0.437729126453377  0.49693129935652613  1.0000
  H   H176      1.0  0.37097140612421126  0.47569315899215964  0.4655775889818302  1.0000
  H   H177      1.0  0.4311494082875345  0.4625230719613712  0.47752471580466377  1.0000
  H   H178      1.0  0.4280664469014378  0.47112101374439974  0.3814516803468887  1.0000
  H   H179      1.0  0.36714882499091994  0.48218861265232776  0.36966439937080925  1.0000
  H   H180      1.0  0.3855203831572867  0.44973791644232886  0.33321728796181294  1.0000
  N   N8        1.0  0.8116747671812641  0.9471242769954916  0.8721924724199321  1.0000
  C   C173      1.0  0.835871070530514  0.9704858533098829  0.9120969646599385  1.0000
  C   C174      1.0  0.8240362096499504  0.913913289104335  0.890892465656673  1.0000
  C   C175      1.0  0.8265529442805232  0.9524140816300817  0.822003824299277  1.0000
  C   C176      1.0  0.7603415313990064  0.9517120025762617  0.8638095639030695  1.0000
  H   H181      1.0  0.8310318881174033  0.9957469021234445  0.8975408342901844  1.0000
  H   H182      1.0  0.8743455199933386  0.9658623537315505  0.9227126291821579  1.0000
  H   H183      1.0  0.8229309859702971  0.9690249754499203  0.9492041903718479  1.0000
  H   H184      1.0  0.8074971005843566  0.8955954507306133  0.8612484260565135  1.0000
  H   H185      1.0  0.8627363920410087  0.9099493583248378  0.8991658547068755  1.0000
  H   H186      1.0  0.8125099709902209  0.9088711490396945  0.9281903407388524  1.0000
  H   H187      1.0  0.8182933884533637  0.9773374798193643  0.8069202309606976  1.0000
  H   H188      1.0  0.8093644580653672  0.9351294582537735  0.790892296378769  1.0000
  H   H189      1.0  0.8651358595999006  0.9493696439781556  0.8272953775554751  1.0000
  H   H190      1.0  0.7409581900992539  0.9345815677047506  0.833721057124545  1.0000
  H   H191      1.0  0.7499292366298219  0.976628857208575  0.8501011685014114  1.0000
  H   H192      1.0  0.7480405976137336  0.9476818408747464  0.9009919705926804  1.0000
  N   N9        1.0  0.8124136732746476  0.7114874177044161  0.3309678850134534  1.0000
  C   C177      1.0  0.8546643005932021  0.7242808882126907  0.3673302663912365  1.0000
  C   C178      1.0  0.8265078763225367  0.6939289467290564  0.2872705956600229  1.0000
  C   C179      1.0  0.7808976197651007  0.7384717194288734  0.30935867540783685  1.0000
  C   C180      1.0  0.7877552368330699  0.6891964380141253  0.36011522461084206  1.0000
  H   H193      1.0  0.8453732667822529  0.7381528675076496  0.40031880479025234  1.0000
  H   H194      1.0  0.8749705962186071  0.7405944401873791  0.34683339799941265  1.0000
  H   H195      1.0  0.8787032311856167  0.7044776349413641  0.38501811786538875  1.0000
  H   H196      1.0  0.8450841084299421  0.7100588563313979  0.2643091629575725  1.0000
  H   H197      1.0  0.8507130288567196  0.6735998073152949  0.3022583305857797  1.0000
  H   H198      1.0  0.7955243499776791  0.6837292623567126  0.25921186169691807  1.0000
  H   H199      1.0  0.7983672096125983  0.7557615323469904  0.2870175966403592  1.0000
  H   H200      1.0  0.7697118882875185  0.7523421314817287  0.3412595232170762  1.0000
  H   H201      1.0  0.7485918401654271  0.7297110577815898  0.28172080166512775  1.0000
  H   H202      1.0  0.7551302216630486  0.6793965982666154  0.3344140589859633  1.0000
  H   H203      1.0  0.7777205647748824  0.7013617730717471  0.3943466208469304  1.0000
  H   H204      1.0  0.8103958695532777  0.6682914734658694  0.37624964568150215  1.0000
  N   N10       1.0  0.13536828885984398  0.5589535569056896  0.318430078398797  1.0000
  C   C181      1.0  0.13466361287457074  0.5262400566153916  0.29546179136194756  1.0000
  C   C182      1.0  0.18078050366171344  0.5643445081612012  0.3558364076194293  1.0000
  C   C183      1.0  0.09669146551503345  0.5622652120784911  0.3465981726683426  1.0000
  C   C184      1.0  0.1293958663531876  0.5831455036853815  0.27578193000138945  1.0000
  H   H205      1.0  0.10062479324681618  0.5211955220685528  0.26761659349961014  1.0000
  H   H206      1.0  0.13996155242382438  0.5072830426936429  0.32654436995116204  1.0000
  H   H207      1.0  0.16300914752667733  0.523221852375375  0.27324477608994324  1.0000
  H   H208      1.0  0.18178161191732575  0.5884086951311022  0.37521338489167794  1.0000
  H   H209      1.0  0.1872993479207417  0.5458823398452172  0.3876001151844775  1.0000
  H   H210      1.0  0.2106183911185336  0.5635881498732607  0.335446928535854  1.0000
  H   H211      1.0  0.09945193627220089  0.5441750796886142  0.37864537719213476  1.0000
  H   H212      1.0  0.061689283893161376  0.5591571400065553  0.3194464310201536  1.0000
  H   H213      1.0  0.0967158141935952  0.5865979805517979  0.3650367051328606  1.0000
  H   H214      1.0  0.0960610198868879  0.5794570995004779  0.2460097698213758  1.0000
  H   H215      1.0  0.15894690596693578  0.5824514472441026  0.2549219191406243  1.0000
  H   H216      1.0  0.12831343455476496  0.6079340056430199  0.29179979557559654  1.0000
  N   N11       1.0  0.047016197009082154  0.928884708883823  0.627804629735547  1.0000
  C   C185      1.0  0.06752015403873247  0.919778525588105  0.5825984465194821  1.0000
  C   C186      1.0  0.05891316564846871  0.9628206564676741  0.642583207365863  1.0000
  C   C187      1.0  0.06629925209482126  0.9077161437712569  0.6730756974026721  1.0000
  C   C188      1.0  0.9953951802263209  0.9251937191712376  0.613126792334054  1.0000
  H   H217      1.0  0.05923425046412517  0.8942709009673647  0.5705351759249916  1.0000
  H   H218      1.0  0.1064763218423262  0.9223020898103923  0.5925759119843468  1.0000
  H   H219      1.0  0.05377828413557523  0.9352759094228906  0.5476720427200519  1.0000
  H   H220      1.0  0.04369397500949404  0.9705287995512564  0.6764397995367419  1.0000
  H   H221      1.0  0.09761820934970676  0.9663304161683903  0.6551733079465577  1.0000
  H   H222      1.0  0.04545782993050499  0.9795531824569933  0.6092914198959991  1.0000
  H   H223      1.0  0.051731765960255686  0.9141601545448771  0.7077843111989175  1.0000
  H   H224      1.0  0.10518883991839453  0.910018367748374  0.6857129901733476  1.0000
  H   H225      1.0  0.057553655506282775  0.8819271130741686  0.6638027250432936  1.0000
  H   H226      1.0  0.9788505203348619  0.9319457644674145  0.6464413358328965  1.0000
  H   H227      1.0  0.9850290573628352  0.8997476403895426  0.602651530019507  1.0000
  H   H228      1.0  0.9794715410998783  0.9406363425935995  0.5789075170976483  1.0000
  N   N12       1.0  0.6145130601474313  0.9974400278330183  0.0758846645607365  1.0000
  C   C189      1.0  0.6607722659876815  0.013637610659621215  0.08860855416700875  1.0000
  C   C190      1.0  0.5841884496035598  0.01077600403033063  0.10947632140048524  1.0000
  C   C191      1.0  0.6209332726593783  0.9624875166231532  0.08581720210044486  1.0000
  C   C192      1.0  0.5922781426303316  0.002691720654593777  0.019659436935399732  1.0000
  H   H229      1.0  0.6846893837324324  0.0039469895044965675  0.06428756094579446  1.0000
  H   H230      1.0  0.6785886466614673  0.010002255787921577  0.1306806983414459  1.0000
  H   H231      1.0  0.6574504263841706  0.040115186158966885  0.08186700687580095  1.0000
  H   H232      1.0  0.5491784636146029  0.9988418511195344  0.10146067055939922  1.0000
  H   H233      1.0  0.6001026150302453  0.007124933274321288  0.15204940640866482  1.0000
  H   H234      1.0  0.5785541316203078  0.03714773528270097  0.1032942876419567  1.0000
  H   H235      1.0  0.5869673003617034  0.9492078908080879  0.07647195117943606  1.0000
  H   H236      1.0  0.6377747840172853  0.9574429217452125  0.12765136324211035  1.0000
  H   H237      1.0  0.6437658052546292  0.9517330606872856  0.06135332371738533  1.0000
  H   H238      1.0  0.6142299619274487  0.9926746828033519  0.9932888588779741  1.0000
  H   H239      1.0  0.5868949209869678  0.02880533310656976  0.010473708221104383  1.0000
  H   H240      1.0  0.5574142141333365  0.9906246625969641  0.008685165815966567  1.0000
  N   N13       1.0  0.009779565281162528  0.803986222835535  0.13731662581987464  1.0000
  C   C193      1.0  0.9759129507704754  0.7837333300112682  0.10035975231251834  1.0000
  C   C194      1.0  0.05726146899612927  0.7898422756043962  0.14431002474286425  1.0000
  C   C195      1.0  0.9961834525401123  0.8052705655732381  0.18890552547183223  1.0000
  C   C196      1.0  0.00975922511345284  0.8369469135384544  0.11566400393167339  1.0000
  H   H241      1.0  0.9395728157300925  0.7935043901467996  0.09449242683654867  1.0000
  H   H242      1.0  0.9753495734281264  0.7586060302945459  0.11546354187277262  1.0000
  H   H243      1.0  0.9848959431626279  0.7823936752929033  0.060880961442708034  1.0000
  H   H244      1.0  0.05827290848043587  0.7648221144103098  0.1602413754522098  1.0000
  H   H245      1.0  0.06874190969455407  0.7886219409670063  0.10616503581548559  1.0000
  H   H246      1.0  0.08375039534699891  0.8043027285642489  0.17234677696841372  1.0000
  H   H247      1.0  0.9979981433081704  0.7809397092101108  0.20735008012529058  1.0000
  H   H248      1.0  0.9595413901560901  0.814217242446991  0.18486620148605387  1.0000
  H   H249      1.0  0.019798972966228234  0.8213672968854447  0.21722094597532463  1.0000
  H   H250      1.0  0.03510771759211928  0.8529096915072144  0.1422956488583116  1.0000
  H   H251      1.0  0.9744315098346947  0.8483400670982575  0.11006179828718078  1.0000
  H   H252      1.0  0.019674276855123907  0.8368452910144842  0.07654288022737263  1.0000
  N   N14       1.0  0.08926030961286435  0.45251676471791363  0.5092628284286761  1.0000
  C   C197      1.0  0.11063483792677631  0.42439317705534246  0.5404141694485208  1.0000
  C   C198      1.0  0.041653245659912796  0.4439701782963807  0.47932384008592405  1.0000
  C   C199      1.0  0.11868569474741797  0.46190891971792447  0.472058791213292  1.0000
  C   C200      1.0  0.0860584947916414  0.47975887968116476  0.5451782490562771  1.0000
  H   H253      1.0  0.11547654262069096  0.40390575597792594  0.5143615663321951  1.0000
  H   H254      1.0  0.08835518874338089  0.4156139866726419  0.5672518069788381  1.0000
  H   H255      1.0  0.14587578670622126  0.430222699812528  0.5651158054562669  1.0000
  H   H256      1.0  0.024092583626469377  0.46480210770492847  0.45608480148975766  1.0000
  H   H257      1.0  0.04279141603065573  0.42380228522340135  0.4513014187556536  1.0000
  H   H258      1.0  0.018648363522337563  0.4361259531954921  0.5060264819775188  1.0000
  H   H259      1.0  0.15495340499137056  0.4683414824872222  0.49327731233791633  1.0000
  H   H260      1.0  0.10360030853169788  0.48303316883741076  0.44780522578029913  1.0000
  H   H261      1.0  0.12188241447772663  0.4418557554942292  0.4443289698773031  1.0000
  H   H262      1.0  0.12112244318619836  0.4865278608043306  0.5693242100785993  1.0000
  H   H263      1.0  0.0632226569709251  0.47375397152989107  0.5730156097983161  1.0000
  H   H264      1.0  0.07082955997437868  0.5016025129180758  0.5229911128023724  1.0000
  N   N15       1.0  0.28669546979436483  0.03421599489737714  0.8832420389044632  1.0000
  C   C201      1.0  0.2723358124079697  0.0677984212786983  0.8907690940354838  1.0000
  C   C202      1.0  0.32266946843619  0.02401273355112739  0.929719898211812  1.0000
  C   C203      1.0  0.3066611475044098  0.032288423185482924  0.835749889858583  1.0000
  C   C204      1.0  0.24538643064348692  0.01274365723590254  0.8766326481138045  1.0000
  H   H265      1.0  0.24589702155141022  0.07656232243328799  0.8559246900152642  1.0000
  H   H266      1.0  0.3028290233810335  0.08455216629578641  0.8964189224733712  1.0000
  H   H267      1.0  0.25668579098099226  0.0701955265313273  0.9259701323827043  1.0000
  H   H268      1.0  0.35438196349756923  0.039733763960309545  0.9353801933474325  1.0000
  H   H269      1.0  0.30906944637100575  0.02522165932781597  0.9665096992398041  1.0000
  H   H270      1.0  0.334340666694156  0.9987753468193943  0.9251030014421302  1.0000
  H   H271      1.0  0.3382243760689667  0.047860495957143485  0.8396910311217535  1.0000
  H   H272      1.0  0.28086018246119837  0.04009696317939424  0.7997259410819094  1.0000
  H   H273      1.0  0.31787328097536527  0.007300368923607525  0.8288822960390245  1.0000
  H   H274      1.0  0.25498984933297836  0.9872147927434417  0.8706613261320758  1.0000
  H   H275      1.0  0.21768292640817558  0.019728222003799676  0.8416659830629659  1.0000
  H   H276      1.0  0.22935077177150406  0.013464822993312309  0.9117262155169441  1.0000
  N   N16       1.0  0.2458818244006342  0.2330014582628907  0.17001388929648462  1.0000
  C   C205      1.0  0.2847758979849023  0.20973011737729017  0.18613259741159133  1.0000
  C   C206      1.0  0.25102811134470004  0.2596692517036861  0.20875612127375845  1.0000
  C   C207      1.0  0.20051446078888566  0.21658702165536414  0.16765336097751068  1.0000
  C   C208      1.0  0.24707884737755806  0.2460818676834384  0.1174201083550306  1.0000
  H   H277      1.0  0.28219358651935816  0.18950496476375553  0.15728870013946164  1.0000
  H   H278      1.0  0.28483226300167425  0.19911682765990604  0.22547873695418652  1.0000
  H   H279      1.0  0.31949743125961527  0.22142899623749382  0.18847911746369378  1.0000
  H   H280      1.0  0.22188436660487426  0.277475721761362  0.19790493232446102  1.0000
  H   H281      1.0  0.2500882743343091  0.2507038396811035  0.24893523588699704  1.0000
  H   H282      1.0  0.28465732377541175  0.2728464889922098  0.2115503989271374  1.0000
  H   H283      1.0  0.17050140932706967  0.233457107270814  0.1546946589841578  1.0000
  H   H284      1.0  0.19787352355412438  0.20696098132448726  0.20689048122280693  1.0000
  H   H285      1.0  0.1953237396477291  0.19623673453405233  0.13891967318819526  1.0000
  H   H286      1.0  0.24330463856715995  0.2265849020362894  0.08721238793804818  1.0000
  H   H287      1.0  0.28076012282091023  0.25870844062360865  0.11753692687317237  1.0000
  H   H288      1.0  0.2179096667818344  0.2634924513458648  0.10363267915539211  1.0000
  N   N17       1.0  0.8688035219130031  0.0191004580854663  0.15881669354013195  1.0000
  C   C209      1.0  0.9198015009213768  0.016046253263893952  0.18079005658718217  1.0000
  C   C210      1.0  0.8608584525878357  0.040154959527020695  0.11188976766931572  1.0000
  C   C211      1.0  0.845695705015879  0.033189110206068996  0.19896574068713963  1.0000
  C   C212      1.0  0.8488510360131597  0.9868995495765909  0.14342217241283534  1.0000
  H   H289      1.0  0.9271427925363558  0.00023220792731049045  0.2161742821031023  1.0000
  H   H290      1.0  0.9361677308482506  0.03994249830372004  0.19252572741957139  1.0000
  H   H291      1.0  0.9382072852023449  0.005692819244849545  0.1511804377342633  1.0000
  H   H292      1.0  0.822740194266383  0.04347702826755346  0.09470396778800433  1.0000
  H   H293      1.0  0.8757847874093014  0.06452175600667735  0.12225636203784991  1.0000
  H   H294      1.0  0.8777508134263808  0.030219905418395022  0.08071417695446835  1.0000
  H   H295      1.0  0.8072485789418651  0.03630266705641753  0.1832356984241625  1.0000
  H   H296      1.0  0.8601828064090106  0.05742473835548766  0.21200270406459068  1.0000
  H   H297      1.0  0.8498891773826446  0.017530859471774046  0.23444053716732122  1.0000
  H   H298      1.0  0.8106149629915904  0.9883704349896267  0.1256282609222126  1.0000
  H   H299      1.0  0.853095519877229  0.9706327364037269  0.17816365089178524  1.0000
  H   H300      1.0  0.8662347086614343  0.9752507536523446  0.11412175295809288  1.0000
  N   N18       1.0  0.5418170475956824  0.1781824149841408  0.12011461417891059  1.0000
  C   C213      1.0  0.5371183129658065  0.1900697997345806  0.17243000161304603  1.0000
  C   C214      1.0  0.5005842478433501  0.15815355688248886  0.09654647410546027  1.0000
  C   C215      1.0  0.5850943499575589  0.15867047021373407  0.12622969590121827  1.0000
  C   C216      1.0  0.5445428362198447  0.20595029512401525  0.0853195127606517  1.0000
  H   H301      1.0  0.5685461386757238  0.20416047064225518  0.1923666150822403  1.0000
  H   H302      1.0  0.5335977240025301  0.16976147511122555  0.1992532564482229  1.0000
  H   H303      1.0  0.5058003422218382  0.20583361680835938  0.16930619660659255  1.0000
  H   H304      1.0  0.50397430858951  0.1474227584069901  0.058254645261530694  1.0000
  H   H305      1.0  0.49560464723665293  0.13803517075348373  0.1231921083639076  1.0000
  H   H306      1.0  0.4676482655399924  0.17261499779422054  0.0886949383583852  1.0000
  H   H307      1.0  0.590067317353803  0.14922831767540165  0.08771229344547268  1.0000
  H   H308      1.0  0.5844429247009538  0.13773512458611056  0.15277230614914145  1.0000
  H   H309      1.0  0.6168516375433132  0.17305611006159874  0.14421327563399947  1.0000
  H   H310      1.0  0.5481043650518955  0.19787314423673294  0.045462915516607874  1.0000
  H   H311      1.0  0.5752310270032001  0.22159478976255156  0.10205295291550727  1.0000
  H   H312      1.0  0.5123715050876695  0.22120423052625315  0.07990643036859627  1.0000
  N   N19       1.0  0.5649482064394128  0.0017583291871243745  0.44180120837896153  1.0000
  C   C217      1.0  0.5637430318060274  0.012016774880553529  0.4960888684518479  1.0000
  C   C218      1.0  0.5241258302339599  0.015498698326106354  0.40451291142707946  1.0000
  C   C219      1.0  0.5630430839439535  0.96620119304357  0.4379557610170515  1.0000
  C   C220      1.0  0.6086774961071612  0.01348574990493212  0.42829754569932754  1.0000
  H   H313      1.0  0.5664451679899719  0.03875789464700948  0.5002989893363186  1.0000
  H   H314      1.0  0.5932483164047545  0.001427716296331427  0.5256706309414683  1.0000
  H   H315      1.0  0.530253945218719  0.004867249990514245  0.50689640937725  1.0000
  H   H316      1.0  0.49040856204637545  0.007805014720853931  0.41401607800918283  1.0000
  H   H317      1.0  0.525100075131055  0.04228831859301349  0.4056368224533352  1.0000
  H   H318      1.0  0.5233074683117859  0.007924452506608448  0.3631939746783267  1.0000
  H   H319      1.0  0.5638159427348648  0.9579587678352125  0.39721672827939375  1.0000
  H   H320      1.0  0.5302707612667052  0.9566632410734918  0.44760386576760536  1.0000
  H   H321      1.0  0.5933586409788105  0.9548871947697923  0.46548659048651153  1.0000
  H   H322      1.0  0.6099258451282671  0.007206619305542007  0.3868340877611549  1.0000
  H   H323      1.0  0.6403241009217626  0.0029570525484956534  0.45467011698869164  1.0000
  H   H324      1.0  0.6115927478488006  0.04021640524622908  0.43209422442658546  1.0000
  N   N20       1.0  0.8759216983897717  0.4246056750928612  0.8179487293200436  1.0000
  C   C221      1.0  0.8463069513120869  0.4524555547181049  0.7961446958280309  1.0000
  C   C222      1.0  0.859582635719057  0.4113344100877724  0.8635615567369009  1.0000
  C   C223      1.0  0.925343419909008  0.43509882036098857  0.8350781768120099  1.0000
  C   C224      1.0  0.8724960300874265  0.3994175587942525  0.7769265161680438  1.0000
  H   H325      1.0  0.8491713416700108  0.47243396731188797  0.8253367687471316  1.0000
  H   H326      1.0  0.8085651070894594  0.4456181105752179  0.7843692539973061  1.0000
  H   H327      1.0  0.8564817001391836  0.4622727925579544  0.7603073538084001  1.0000
  H   H328      1.0  0.8617582474159804  0.4296657930517563  0.8953903720122338  1.0000
  H   H329      1.0  0.8223737125509264  0.40315994665526084  0.8519112637010464  1.0000
  H   H330      1.0  0.8811701623222469  0.3901876077316862  0.8806974762932493  1.0000
  H   H331      1.0  0.9389377234810031  0.4449319662554174  0.8014614600921389  1.0000
  H   H332      1.0  0.9487575024347589  0.41456328772431966  0.8512510057516464  1.0000
  H   H333      1.0  0.9295311008778544  0.45411204406412214  0.866028103686086  1.0000
  H   H334      1.0  0.8839107029830512  0.4088304161857734  0.7417225613659998  1.0000
  H   H335      1.0  0.8359056895247603  0.39041977949017237  0.7636194092433402  1.0000
  H   H336      1.0  0.8955236909928622  0.3783929972450951  0.7913872524239978  1.0000
  N   N21       1.0  0.5336665934357036  0.6098585591357363  0.5452917619316751  1.0000
  C   C225      1.0  0.5827126131760515  0.6206751459254963  0.5646082916486524  1.0000
  C   C226      1.0  0.5310628039116125  0.5881096060831018  0.49957030231545957  1.0000
  C   C227      1.0  0.5032276909871182  0.6382364791713975  0.5292188478693055  1.0000
  C   C228      1.0  0.5176366292998573  0.5924512216119373  0.5877133029149825  1.0000
  H   H337      1.0  0.596850619203093  0.6320452702307144  0.5325766724060385  1.0000
  H   H338      1.0  0.60642464145176  0.600265859931194  0.5804838980110179  1.0000
  H   H339      1.0  0.5854524131930705  0.6390277910060125  0.5964266376175271  1.0000
  H   H340      1.0  0.5418620722296904  0.6007312098955221  0.46648119377085023  1.0000
  H   H341      1.0  0.5545920145126189  0.5668723766117973  0.5099461127306851  1.0000
  H   H342      1.0  0.49471869620279285  0.5791681679330565  0.48409167045932394  1.0000
  H   H343      1.0  0.5035786049127544  0.6548135664460442  0.5630803450063291  1.0000
  H   H344      1.0  0.46621170086510677  0.6310548098373481  0.5126054400961023  1.0000
  H   H345      1.0  0.5153685686160363  0.6525634596009098  0.49862880588077296  1.0000
  H   H346      1.0  0.4811506982776639  0.583317730268444  0.5742314515904545  1.0000
  H   H347      1.0  0.5179999900911822  0.6083374942186695  0.6223732467044587  1.0000
  H   H348      1.0  0.540619067475883  0.5714001825469422  0.6020615150480012  1.0000
  N   N22       1.0  0.5361738356981355  0.3465645148138113  0.699398834111385  1.0000
  C   C229      1.0  0.5380258220216181  0.31542364019998337  0.6720584796345649  1.0000
  C   C230      1.0  0.5476609102863028  0.37302243986702605  0.6663112642827356  1.0000
  C   C231      1.0  0.5707047926511336  0.34630051755928143  0.7504248922477278  1.0000
  C   C232      1.0  0.48842150185793126  0.35148534579476126  0.7087137729913923  1.0000
  H   H349      1.0  0.529628827159233  0.2948939337625904  0.695980729334581  1.0000
  H   H350      1.0  0.5735256216622899  0.3110049094435833  0.6642139417236266  1.0000
  H   H351      1.0  0.5123055457808384  0.3147737319378448  0.6333884343796985  1.0000
  H   H352      1.0  0.5452115666423285  0.39695359104709166  0.685102499111886  1.0000
  H   H353      1.0  0.5842304863722094  0.37087877612425524  0.6604131264510628  1.0000
  H   H354      1.0  0.5234889402331975  0.3732638797944017  0.6267376608241443  1.0000
  H   H355      1.0  0.5634004391469299  0.3266516026414804  0.7765923018776133  1.0000
  H   H356      1.0  0.5704198220912865  0.3694832081536017  0.7719764180944223  1.0000
  H   H357      1.0  0.6071937284873518  0.3431002355996959  0.7447625714933265  1.0000
  H   H358      1.0  0.479245748333805  0.33273969880581883  0.7353331335846485  1.0000
  H   H359      1.0  0.46127058821480355  0.3505167640679583  0.6712181577963824  1.0000
  H   H360      1.0  0.48491971198491884  0.37540956330598657  0.7271232153296985  1.0000
  N   N23       1.0  0.9630953471420187  0.27488196177123453  0.3311248678810546  1.0000
  C   C233      1.0  0.9131969116116455  0.2652103163660247  0.31592333447358134  1.0000
  C   C234      1.0  0.9888753980477821  0.2518074486692703  0.37029688246777703  1.0000
  C   C235      1.0  0.9668569621249823  0.3075639770031742  0.35455976516728666  1.0000
  C   C236      1.0  0.9835179669244956  0.27485443602200516  0.2837825860974345  1.0000
  H   H361      1.0  0.896510908451057  0.2651399047268574  0.3505969917647079  1.0000
  H   H362      1.0  0.909475697766829  0.2404379330092768  0.29859218013780875  1.0000
  H   H363      1.0  0.8926985835768011  0.2818641505149145  0.28593762208043416  1.0000
  H   H364      1.0  0.02664275003875988  0.25846328501993965  0.3829277862594542  1.0000
  H   H365      1.0  0.9741699359106551  0.2509998557824112  0.4063539175229008  1.0000
  H   H366      1.0  0.9871786827290709  0.22688366728619483  0.3537955822090695  1.0000
  H   H367      1.0  0.004170606113816343  0.31554581750945704  0.3658252375482678  1.0000
  H   H368      1.0  0.9524255385893147  0.30840012938547984  0.39089951693311686  1.0000
  H   H369      1.0  0.9473441374895072  0.3256527139319648  0.3264822605281911  1.0000
  H   H370      1.0  0.9663083475902093  0.29296706983287985  0.25427595237454176  1.0000
  H   H371      1.0  0.9792504975248344  0.25091781218257664  0.2637404454281343  1.0000
  H   H372      1.0  0.021837568303862215  0.28031705440602966  0.2939858799358664  1.0000
  N   N24       1.0  0.4861619666489507  0.8828363825246273  0.7911155955511696  1.0000
  C   C237      1.0  0.4618980796188553  0.9085945666078816  0.814197224766212  1.0000
  C   C238      1.0  0.48799497434671424  0.8916430923541346  0.7364539791882803  1.0000
  C   C239      1.0  0.4601443250793292  0.8522466237068569  0.7908742366682336  1.0000
  C   C240      1.0  0.5345153406182037  0.8790067944389647  0.822880314387864  1.0000
  H   H373      1.0  0.47998296841271776  0.9321592072752632  0.8138544121993055  1.0000
  H   H374      1.0  0.46052206877924456  0.9032345457892398  0.8557989792912535  1.0000
  H   H375      1.0  0.4250645445270676  0.9118282521145061  0.7916444756525562  1.0000
  H   H376      1.0  0.5077282556501335  0.9146001943543517  0.7355028201600882  1.0000
  H   H377      1.0  0.5057209853289009  0.872678220247207  0.7174690498778912  1.0000
  H   H378      1.0  0.4521136067217096  0.8952683803121398  0.7115046682921161  1.0000
  H   H379      1.0  0.4771271319228098  0.8322433081068403  0.7732704265548183  1.0000
  H   H380      1.0  0.42335728956389723  0.854529873227703  0.7676090418631926  1.0000
  H   H381      1.0  0.45837499909527096  0.8449497824355465  0.8316504430719146  1.0000
  H   H382      1.0  0.553357706901438  0.8590024692301554  0.8077133735751643  1.0000
  H   H383      1.0  0.5347840239092888  0.8738367575323952  0.8650364622145923  1.0000
  H   H384      1.0  0.5555256306155648  0.9013258655881935  0.8220391782110585  1.0000
