data_image0
_chemical_formula_structural       FeS2FeS2FeSFeS3FeS2FeS2FeSFeS3FeS2FeS2FeSFeS3FeS2FeS2FeSFeS3FeS2FeS2FeSFeS3FeS2FeS2FeSFeS3C6H4C6H4C6H4C6H4C6H4C6H4C6H4C6H4C6H4C6H4C6H4C6H4FeS2FeS2FeSFeS3FeS2FeS2FeSFeS3FeS2FeS2FeSFeS3FeS2FeS2FeSFeS3FeS2FeS2FeSFeS3FeS2FeS2FeSFeS3C6H4C6H4C6H4C6H4C6H4C6H4C6H4C6H4C6H4C6H4C6H4C6H4NC4H12NC4H12NC4H12NC4H12NC4H12NC4H12NC4H12NC4H12NC4H12NC4H12NC4H12NC4H12NC4H12NC4H12NC4H12NC4H12NC4H12NC4H12NC4H12NC4H12NC4H12NC4H12NC4H12NC4H12
_chemical_formula_sum              "Fe48 S96 C240 H384 N24"
_cell_length_a       36.07874938670941
_cell_length_b       35.719349783631564
_cell_length_c       40.64031595471113
_cell_angle_alpha    88.36666181489862
_cell_angle_beta     88.86023609013665
_cell_angle_gamma    120.22918496181606

_space_group_name_H-M_alt    "P 1"
_space_group_IT_number       1

loop_
  _space_group_symop_operation_xyz
  'x, y, z'

loop_
  _atom_site_type_symbol
  _atom_site_label
  _atom_site_symmetry_multiplicity
  _atom_site_fract_x
  _atom_site_fract_y
  _atom_site_fract_z
  _atom_site_occupancy
  Fe  Fe1       1.0  0.6290130519182598  0.4841537164744004  0.1302945043777981  1.0000
  S   S1        1.0  0.5600344903942946  0.4372373282268967  0.1442167966755013  1.0000
  S   S2        1.0  0.6481902391652478  0.5281059354095832  0.08466107938804665  1.0000
  Fe  Fe2       1.0  0.6603806465266141  0.46297145743022977  0.19278958484218153  1.0000
  S   S3        1.0  0.5938280530244927  0.4152456766576875  0.2121812066817881  1.0000
  S   S4        1.0  0.7135342600082047  0.4703074453444636  0.22467524120639806  1.0000
  Fe  Fe3       1.0  0.5836190919571708  0.3927059038440352  0.1605830866211481  1.0000
  S   S5        1.0  0.5512785247525368  0.3228704171097484  0.14766261196747796  1.0000
  Fe  Fe4       1.0  0.5770272737576922  0.4643803274443745  0.1942305261204078  1.0000
  S   S6        1.0  0.5297110075528512  0.4759676117133281  0.22244929515968107  1.0000
  S   S7        1.0  0.6514435888684674  0.4371715146315482  0.14221492103684966  1.0000
  S   S8        1.0  0.6447291483987674  0.5147414243958653  0.179478544196053  1.0000
  Fe  Fe5       1.0  0.5113833642884794  0.5563081502548207  0.444898918015415  1.0000
  S   S9        1.0  0.5795514325469148  0.60818952548722  0.4330980454580933  1.0000
  S   S10       1.0  0.4866787024450051  0.5036183275022726  0.48491898270072586  1.0000
  Fe  Fe6       1.0  0.4756027603799677  0.5926732400179333  0.39446840736115746  1.0000
  S   S11       1.0  0.5404428066227628  0.6472341480449236  0.3778121005483875  1.0000
  S   S12       1.0  0.41689824623109745  0.5847691374960029  0.37006454652412685  1.0000
  Fe  Fe7       1.0  0.5603731380138299  0.5970440218694197  0.3803068970320512  1.0000
  S   S13       1.0  0.6065971700962036  0.597536981903567  0.3419135923639941  1.0000
  Fe  Fe8       1.0  0.5538452579386509  0.6538069336262585  0.4316542057632229  1.0000
  S   S14       1.0  0.5790996171329885  0.7145546053652074  0.46006762082329544  1.0000
  S   S15       1.0  0.49390214971770197  0.5413406798801986  0.3923853718564922  1.0000
  S   S16       1.0  0.48739753583653894  0.60288477873733  0.4480787677737182  1.0000
  Fe  Fe9       1.0  0.9793066406321822  0.45773707195119523  0.14110807005136752  1.0000
  S   S17       1.0  0.988846950025235  0.4396934639314928  0.19244953198267176  1.0000
  S   S18       1.0  0.0029078232886796673  0.44193986945264013  0.09464413435776714  1.0000
  Fe  Fe10      1.0  0.9226233974067672  0.49304075278813764  0.16433726611896657  1.0000
  S   S19       1.0  0.9274938638155283  0.4787848721243589  0.21755647449750226  1.0000
  S   S20       1.0  0.8837387588730943  0.5201178286011977  0.14229055557534584  1.0000
  Fe  Fe11      1.0  0.9971656917356493  0.5042997807542915  0.20514516745803196  1.0000
  S   S21       1.0  0.047542560022889147  0.5533894233993298  0.23716393958059265  1.0000
  Fe  Fe12      1.0  0.9184602129564328  0.4156782317264403  0.20049591229311892  1.0000
  S   S22       1.0  0.8703903875788465  0.3553332090921654  0.22923698718668684  1.0000
  S   S23       1.0  0.9933263148540331  0.5243524992406509  0.15294475895212029  1.0000
  S   S24       1.0  0.9079933909003559  0.4278750419591642  0.14820210943401899  1.0000
  Fe  Fe13      1.0  0.2114292463241812  0.5489351219905428  0.44171029993192845  1.0000
  S   S25       1.0  0.20663772346446962  0.558230734300269  0.38761919946067075  1.0000
  S   S26       1.0  0.2525878610255867  0.5242229908309526  0.46247901527950996  1.0000
  Fe  Fe14      1.0  0.15696783022242067  0.5881200148020685  0.46017467320890726  1.0000
  S   S27       1.0  0.1487076872423414  0.6024082443024822  0.40744532733115235  1.0000
  S   S28       1.0  0.12390710652963072  0.6042860575465554  0.5002068789203254  1.0000
  Fe  Fe15      1.0  0.13750212395406344  0.5357753100936523  0.3993144847208569  1.0000
  S   S29       1.0  0.0841231119699408  0.48505666995370006  0.3704222505409383  1.0000
  Fe  Fe16      1.0  0.2185715579463497  0.6238003091377256  0.40048312171940104  1.0000
  S   S30       1.0  0.26738952839082275  0.6793587875342247  0.36775908440560234  1.0000
  S   S31       1.0  0.14092796182893894  0.5197879875827994  0.45247443736867593  1.0000
  S   S32       1.0  0.22818656257799955  0.6162144345035779  0.4539952202239067  1.0000
  Fe  Fe17      1.0  0.6196992594411319  0.16751376862157968  0.19913947360377166  1.0000
  S   S33       1.0  0.647841911783207  0.18685137542380412  0.14778382498425857  1.0000
  S   S34       1.0  0.6123675183943799  0.21356552850151023  0.2311860643189294  1.0000
  Fe  Fe18      1.0  0.6126976356164144  0.07999325455937562  0.19806382093868402  1.0000
  S   S35       1.0  0.6413547723223115  0.09144255604708337  0.14670857303319124  1.0000
  S   S36       1.0  0.5865806977954005  0.016397928061814504  0.2265731526907767  1.0000
  Fe  Fe19      1.0  0.6880565080100008  0.15832505260528437  0.16249868482398863  1.0000
  S   S37       1.0  0.7563880419005566  0.19537650414028096  0.1427004008395929  1.0000
  Fe  Fe20      1.0  0.5989434229124817  0.11894285356566325  0.13590750918625416  1.0000
  S   S38       1.0  0.5657765837148255  0.10815674457540257  0.08800512634109192  1.0000
  S   S39       1.0  0.6637755550499949  0.1441029394762125  0.21523004108141955  1.0000
  S   S40       1.0  0.5662866881297259  0.1022482735656751  0.1860033279794362  1.0000
  Fe  Fe21      1.0  0.4397136401930975  0.8862273609675791  0.43864233807162845  1.0000
  S   S41       1.0  0.4706782649528549  0.8995129159834364  0.38805289086814526  1.0000
  S   S42       1.0  0.3689975498469225  0.8458967087459835  0.45081683591069244  1.0000
  Fe  Fe22      1.0  0.5246661960766477  0.9355188125530043  0.4717856110741902  1.0000
  S   S43       1.0  0.5631878779543575  0.9519982408657834  0.42416589320656395  1.0000
  S   S44       1.0  0.5564193841087585  0.9556658636388495  0.5203541643820628  1.0000
  Fe  Fe23      1.0  0.5139847246531062  0.9666939886719715  0.4047324481374536  1.0000
  S   S45       1.0  0.5383105842264981  0.028693660518118724  0.37415968818595713  1.0000
  Fe  Fe24      1.0  0.5167497470519339  0.883462146301523  0.41188801244291934  1.0000
  S   S46       1.0  0.5352708731005544  0.8424846604174684  0.38271064224268075  1.0000
  S   S47       1.0  0.4786273973687591  0.9552366154225427  0.4534069900972541  1.0000
  S   S48       1.0  0.48263945691245563  0.8650658979026173  0.46135430475388034  1.0000
  C   C1        1.0  0.5725130899505789  0.02008547884109091  0.26728827825610146  1.0000
  C   C2        1.0  0.5394833708002118  0.9834231108892432  0.28430913457465307  1.0000
  C   C3        1.0  0.5291136233979072  0.9856294307521344  0.31736807284932966  1.0000
  C   C4        1.0  0.551661694019706  0.02460510972624408  0.3333574986872424  1.0000
  C   C5        1.0  0.5846590005734437  0.0612333116051027  0.31632360981171276  1.0000
  C   C6        1.0  0.5949084460897539  0.05906561756786572  0.2832785709484452  1.0000
  H   H1        1.0  0.521711451667165  0.9533588487659754  0.2718392619660208  1.0000
  H   H2        1.0  0.5030703365338057  0.9574579977198522  0.3301959099218315  1.0000
  H   H3        1.0  0.6026952337456374  0.09121564571103757  0.32883557886619547  1.0000
  H   H4        1.0  0.6209341846110684  0.08725255487316372  0.27053413092150863  1.0000
  C   C7        1.0  0.5545595742059672  0.05949859796949553  0.07037930569949075  1.0000
  C   C8        1.0  0.5495243395136703  0.06469916566828485  0.5316620891388333  1.0000
  C   C9        1.0  0.5488856255049115  0.028863279493390737  0.5175729368963804  1.0000
  C   C10       1.0  0.5553802547272617  0.9998984184887995  0.5371143077899533  1.0000
  C   C11       1.0  0.5623315125289444  0.0068169116239757965  0.5706769317628051  1.0000
  C   C12       1.0  0.5625680859354882  0.04229324491405404  0.5846814651418446  1.0000
  H   H5        1.0  0.545457502796257  0.07955801760254406  0.022150126393318592  1.0000
  H   H6        1.0  0.5441314598709197  0.024143341162154996  0.49151185312386  1.0000
  H   H7        1.0  0.5671429820290707  0.9843767037847815  0.585904749028092  1.0000
  H   H8        1.0  0.5612056598469715  0.030225567983207524  0.11526420659006052  1.0000
  C   C13       1.0  0.29456957003216705  0.7265581264804799  0.38998279161824134  1.0000
  C   C14       1.0  0.278110549804012  0.7292324473978987  0.42068192131347537  1.0000
  C   C15       1.0  0.3009298750729794  0.76629669421964  0.4389661926500543  1.0000
  C   C16       1.0  0.34050844518423645  0.8005849182738183  0.4268204321329792  1.0000
  C   C17       1.0  0.3567991771274825  0.7980583978905672  0.39594505400416924  1.0000
  C   C18       1.0  0.33371614759672785  0.7611808645258259  0.3774402885878117  1.0000
  H   H9        1.0  0.2475146553956548  0.7030286896615757  0.4302571511220071  1.0000
  H   H10       1.0  0.2880178570700784  0.768285423752102  0.4626988262867127  1.0000
  H   H11       1.0  0.38690652127481634  0.8246556097138138  0.3861771442551891  1.0000
  H   H12       1.0  0.34639988853337783  0.7593684541567026  0.35357900269763304  1.0000
  C   C19       1.0  0.8402390450136086  0.3106652602541277  0.20508555924141858  1.0000
  C   C20       1.0  0.8537196652322558  0.3092578437059429  0.17284034391776132  1.0000
  C   C21       1.0  0.8281868966728597  0.2734963912573963  0.15381939099838748  1.0000
  C   C22       1.0  0.7888500429319025  0.23953776170884272  0.1668232398456872  1.0000
  C   C23       1.0  0.77546544558097  0.24127931880454362  0.19896641441900967  1.0000
  C   C24       1.0  0.8012744848090907  0.27645290657274857  0.21816659831885735  1.0000
  H   H13       1.0  0.884104478228978  0.33531351672988974  0.1627544686341572  1.0000
  H   H14       1.0  0.8388687438972146  0.27227485965220605  0.12902064828493243  1.0000
  H   H15       1.0  0.7456209698899199  0.215192160016702  0.2093732499589142  1.0000
  H   H16       1.0  0.7908729269953998  0.2772937677424215  0.24315694592203976  1.0000
  C   C25       1.0  0.052226942653930575  0.532799909905819  0.27563487481577337  1.0000
  C   C26       1.0  0.07201112496833646  0.561424993412957  0.30089226813230036  1.0000
  C   C27       1.0  0.08092722089805654  0.5468099817068164  0.33050286272721174  1.0000
  C   C28       1.0  0.06981016446946069  0.5033872455968289  0.3349637167340752  1.0000
  C   C29       1.0  0.04806983745193816  0.47429203459426256  0.3103736352931265  1.0000
  C   C30       1.0  0.03935294703423908  0.48897388275626835  0.28069776302830385  1.0000
  H   H17       1.0  0.08092059466640984  0.5951049819102424  0.2972809898925105  1.0000
  H   H18       1.0  0.09672744729520036  0.5692401902146172  0.3496292218432617  1.0000
  H   H19       1.0  0.03899876968365312  0.44054011433038076  0.31383140386976943  1.0000
  H   H20       1.0  0.023770134200084003  0.46660512750022076  0.2614138280004486  1.0000
  C   C31       1.0  0.03579159693998868  0.48548121410374334  0.06704884371670436  1.0000
  C   C32       1.0  0.03879411545900612  0.4774518821477464  0.03385429259442119  1.0000
  C   C33       1.0  0.09567992858475477  0.5248864120867124  0.5315538250685399  1.0000
  C   C34       1.0  0.089824934704178  0.5604976983607459  0.527233938414155  1.0000
  C   C35       1.0  0.056154575778338205  0.5610812361935354  0.5445208319886982  1.0000
  C   C36       1.0  0.059625878883925676  0.5277746403332362  0.07774766583080785  1.0000
  H   H21       1.0  0.020171086392878568  0.44477983260023746  0.025458766822209045  1.0000
  H   H22       1.0  0.12242631856359812  0.5248233895463132  0.5192434628029666  1.0000
  H   H23       1.0  0.05144262156357453  0.5885652653973446  0.5411802063901858  1.0000
  H   H24       1.0  0.058099448747702676  0.5340786491852128  0.10344175532670809  1.0000
  C   C37       1.0  0.569331351345476  0.7522215753092635  0.4389925058139059  1.0000
  C   C38       1.0  0.5704908067069013  0.7544167456102236  0.4045833821265592  1.0000
  C   C39       1.0  0.5606399914571254  0.7827817593707943  0.3876375085773951  1.0000
  C   C40       1.0  0.5496192560538031  0.8092363093652483  0.405005074574894  1.0000
  C   C41       1.0  0.5492872133083924  0.8079087033621147  0.439469575551715  1.0000
  C   C42       1.0  0.5593040755893047  0.7794718230322426  0.45646640575841496  1.0000
  H   H25       1.0  0.5798848583041918  0.7348934195472582  0.3909162858893204  1.0000
  H   H26       1.0  0.5613253814483584  0.7839525726342308  0.3609821255262432  1.0000
  H   H27       1.0  0.5412994608214897  0.8286535504296828  0.4530435597609745  1.0000
  H   H28       1.0  0.558721410208232  0.7782004007171668  0.48310976068996775  1.0000
  C   C43       1.0  0.29851936793977873  0.5431563364331009  0.43680457656400024  1.0000
  C   C44       1.0  0.3388571672551023  0.5607046787692362  0.45049414892428835  1.0000
  C   C45       1.0  0.37564577028596163  0.5748325361155455  0.4300520855287317  1.0000
  C   C46       1.0  0.3721057247015932  0.5710922528912418  0.3959511328474032  1.0000
  C   C47       1.0  0.33185753751626884  0.5544487184347581  0.3822437609969043  1.0000
  C   C48       1.0  0.2950811117420637  0.5403154813630054  0.4026597551650207  1.0000
  H   H29       1.0  0.3415809307704891  0.5634679086256688  0.4769010202753452  1.0000
  H   H30       1.0  0.40653846340295613  0.5885794546789965  0.4407584168950515  1.0000
  H   H31       1.0  0.3289415902627276  0.5513562632438174  0.35586991554041425  1.0000
  H   H32       1.0  0.26390793250358624  0.5257786464145264  0.39202952139153546  1.0000
  C   C49       1.0  0.7611404174828277  0.4855301551572759  0.2018585619446345  1.0000
  C   C50       1.0  0.7662172203346737  0.5000516607090641  0.1688588568136786  1.0000
  C   C51       1.0  0.8041699463081559  0.5110720491567968  0.15076760768973024  1.0000
  C   C52       1.0  0.836900371616129  0.5071904836155519  0.16553691799223624  1.0000
  C   C53       1.0  0.8317557280727689  0.492801896764282  0.19855752766381768  1.0000
  C   C54       1.0  0.7940358704476316  0.48216634241623313  0.21673713680041182  1.0000
  H   H33       1.0  0.7411868249531037  0.5033231495121839  0.15733322930978902  1.0000
  H   H34       1.0  0.8080665467122871  0.5224904436293037  0.12529227249802097  1.0000
  H   H35       1.0  0.8570404031991997  0.49044973706694456  0.2103144061081151  1.0000
  H   H36       1.0  0.7903778754378876  0.47123907933410314  0.2423208354880629  1.0000
  C   C55       1.0  0.5683523872727169  0.29258207108660067  0.1709532818785296  1.0000
  C   C56       1.0  0.5609394277195744  0.25262465504821124  0.16003936124302726  1.0000
  C   C57       1.0  0.5746085721162228  0.22823337021351559  0.1784025859473588  1.0000
  C   C58       1.0  0.5946960721992296  0.2433104586230566  0.20814161946917367  1.0000
  C   C59       1.0  0.6015965365671215  0.2828936890110701  0.21931596384708932  1.0000
  C   C60       1.0  0.5890931513084063  0.30781497759793425  0.20046334476292352  1.0000
  H   H37       1.0  0.5450055581411432  0.2407705153545749  0.137173665618608  1.0000
  H   H38       1.0  0.5691978326847668  0.19764042791593023  0.1696130872411009  1.0000
  H   H39       1.0  0.6171131906375469  0.2946074986932272  0.24232141091489115  1.0000
  H   H40       1.0  0.5949407224373594  0.33845426238422505  0.20905717916751934  1.0000
  C   C61       1.0  0.6047824270159156  0.5191673712816806  0.060720542608705075  1.0000
  C   C62       1.0  0.6069605334887592  0.5536103233177305  0.04175600643427828  1.0000
  C   C63       1.0  0.514792695244505  0.4939017721216255  0.5447308435565732  1.0000
  C   C64       1.0  0.5263387644340629  0.5092103689130901  0.5119058076457843  1.0000
  C   C65       1.0  0.5694492825828509  0.5296337617146779  0.501186951058535  1.0000
  C   C66       1.0  0.5677149921463033  0.47830379987416544  0.06085510022324853  1.0000
  H   H41       1.0  0.6355293009143299  0.5853786698968875  0.04172830597446272  1.0000
  H   H42       1.0  0.48145797692165165  0.47810089447614973  0.5531599632027074  1.0000
  H   H43       1.0  0.5785055708497145  0.5406505077249527  0.47571356837697487  1.0000
  H   H44       1.0  0.5662739692686558  0.4512231129773854  0.07457801032311988  1.0000
  C   C67       1.0  0.5505449364490349  0.5132215039730348  0.25372061067944024  1.0000
  C   C68       1.0  0.5939776728247225  0.5451460519424904  0.25319188450848695  1.0000
  C   C69       1.0  0.6104336466787261  0.572655176411498  0.2796571230354125  1.0000
  C   C70       1.0  0.5837157835554537  0.5678463971699315  0.30688091132021855  1.0000
  C   C71       1.0  0.5399375494316246  0.537178153217203  0.30667060220521514  1.0000
  C   C72       1.0  0.5233496574234451  0.5100558977206101  0.280048212008459  1.0000
  H   H45       1.0  0.6149579983933151  0.5485239348310641  0.23259412962740666  1.0000
  H   H46       1.0  0.6441173636724179  0.5971629265735097  0.2794164367911085  1.0000
  H   H47       1.0  0.5189879413531662  0.5335900301736411  0.3272982858943152  1.0000
  H   H48       1.0  0.48960388373616404  0.4857143980136422  0.28035791677093763  1.0000
  Fe  Fe25      1.0  0.6114402534228873  0.5019120584496495  0.6357285410638889  1.0000
  S   S49       1.0  0.5435944565107405  0.4624252400445296  0.6554556682942111  1.0000
  S   S50       1.0  0.6303280389903712  0.5314279113572234  0.5839117125248054  1.0000
  Fe  Fe26      1.0  0.6476876053835431  0.48515897601988217  0.6979968028355894  1.0000
  S   S51       1.0  0.5823489659361711  0.4438196609103494  0.7227073658128478  1.0000
  S   S52       1.0  0.7060204624781685  0.4943614691520101  0.7240719500511499  1.0000
  Fe  Fe27      1.0  0.5629156090051737  0.4150566717475415  0.6732291306864685  1.0000
  S   S53       1.0  0.5255991464461081  0.34515404924532245  0.6601381634809272  1.0000
  Fe  Fe28      1.0  0.5696904590345208  0.49537842412878175  0.7026474634014821  1.0000
  S   S54       1.0  0.5334715790152995  0.5215490367392549  0.7301826656108897  1.0000
  S   S55       1.0  0.6290988750415786  0.4521200383940078  0.65029466783526  1.0000
  S   S56       1.0  0.6365508352598668  0.539163536850294  0.6815335438604601  1.0000
  Fe  Fe29      1.0  0.4996871793459177  0.548008622128823  0.9625449115157874  1.0000
  S   S57       1.0  0.5612317393003271  0.6105045557957034  0.9524468953035403  1.0000
  S   S58       1.0  0.4895986230398399  0.49788315568433056  0.0020311041029430488  1.0000
  Fe  Fe30      1.0  0.45705348557507325  0.5630908385009689  0.9037043162408532  1.0000
  S   S59       1.0  0.5154579985675429  0.6264554282110822  0.888320694239156  1.0000
  S   S60       1.0  0.4000294521300343  0.5396406511910171  0.8719097025043865  1.0000
  Fe  Fe31      1.0  0.551619597246021  0.5920366632659068  0.8997669210548696  1.0000
  S   S61       1.0  0.6033092613656483  0.5895400899703609  0.8700266916060738  1.0000
  Fe  Fe32      1.0  0.519000574610871  0.638571260476982  0.9423654495498275  1.0000
  S   S62       1.0  0.5281527090802839  0.698079962578849  0.9667038493473132  1.0000
  S   S63       1.0  0.49273477654983794  0.5274789263002897  0.910399933545202  1.0000
  S   S64       1.0  0.45780300075132424  0.5773939705028606  0.9570243184539525  1.0000
  Fe  Fe33      1.0  0.9638898083415386  0.4592844135598495  0.6363100838523297  1.0000
  S   S65       1.0  0.9733697642716097  0.4456807123485281  0.6887812358823999  1.0000
  S   S66       1.0  0.0004226617574012437  0.4463631319029655  0.5970964576782639  1.0000
  Fe  Fe34      1.0  0.9004750889891526  0.4877694637132277  0.6552415227005711  1.0000
  S   S67       1.0  0.9056636649374822  0.47823327616001504  0.7092760697566172  1.0000
  S   S68       1.0  0.8546321082713758  0.5049452790074443  0.6319512343081524  1.0000
  Fe  Fe35      1.0  0.9763087313259763  0.5085237863194682  0.698155703738084  1.0000
  S   S69       1.0  0.025039387212689057  0.5590696787498781  0.7301961203970336  1.0000
  Fe  Fe36      1.0  0.9022466079580121  0.4164301211938228  0.6954571202376493  1.0000
  S   S70       1.0  0.8592143760634503  0.35870840375470564  0.7287930899293448  1.0000
  S   S71       1.0  0.9718593011626198  0.524578354344906  0.645076958703257  1.0000
  S   S72       1.0  0.8920870317288068  0.4235087591084252  0.6420254202015927  1.0000
  Fe  Fe37      1.0  0.1992020119247282  0.5343067507920554  0.9295141646184523  1.0000
  S   S73       1.0  0.20010326948381255  0.551330695964007  0.8760497309962741  1.0000
  S   S74       1.0  0.23193259256998214  0.5009874592604575  0.9523935128780033  1.0000
  Fe  Fe38      1.0  0.14953716629993508  0.5786914683835281  0.949738732488018  1.0000
  S   S75       1.0  0.14722206047203354  0.6007433097415332  0.8977073231937799  1.0000
  S   S76       1.0  0.12525431652629526  0.5965943105613853  0.994865536361063  1.0000
  Fe  Fe39      1.0  0.13161343300954104  0.5334804955722419  0.8852567859958113  1.0000
  S   S77       1.0  0.0815890497416193  0.4878100129956399  0.8512657784180825  1.0000
  Fe  Fe40      1.0  0.21595443585851834  0.616597778741951  0.8931172309271359  1.0000
  S   S78       1.0  0.27324039491178226  0.6733135112753315  0.8676140981013257  1.0000
  S   S79       1.0  0.12904545078750787  0.5102667343016127  0.9377534544950183  1.0000
  S   S80       1.0  0.21979818115416963  0.6008776668922267  0.946068807694981  1.0000
  Fe  Fe41      1.0  0.6141636766164471  0.19272589748595206  0.6903941605347848  1.0000
  S   S81       1.0  0.6459578911646632  0.20162842668193873  0.6406458983263812  1.0000
  S   S82       1.0  0.6204891685297076  0.25037600091740214  0.7158495361233468  1.0000
  Fe  Fe42      1.0  0.5918455034281023  0.09933143357806445  0.6994238384381717  1.0000
  S   S83       1.0  0.6241510210996466  0.10125356792897627  0.6513498121518754  1.0000
  S   S84       1.0  0.5553832264169173  0.033732650961771464  0.7256303403457027  1.0000
  Fe  Fe43      1.0  0.6761400431906862  0.1668164845007926  0.6643616678237396  1.0000
  S   S85       1.0  0.7450744173986944  0.19161394144514732  0.6492709789975664  1.0000
  Fe  Fe44      1.0  0.591005762421915  0.13523765470670251  0.631591690608912  1.0000
  S   S86       1.0  0.5596366750345206  0.11776010261799637  0.5825072432363266  1.0000
  S   S87       1.0  0.6477145209418999  0.16155226898958683  0.714974957682211  1.0000
  S   S88       1.0  0.5554426991203444  0.12989537732956574  0.6790664665531075  1.0000
  Fe  Fe45      1.0  0.4268755873220138  0.884945554187445  0.9341018829760671  1.0000
  S   S89       1.0  0.4611377943772484  0.903074484498574  0.8844667235945378  1.0000
  S   S90       1.0  0.3565004069899291  0.8444692157223213  0.947341010528526  1.0000
  Fe  Fe46      1.0  0.5086615840147867  0.9270506507041354  0.971229189694019  1.0000
  S   S91       1.0  0.5511708104739518  0.9486752411108006  0.9254562164655221  1.0000
  S   S92       1.0  0.5298987726937109  0.9348966571973477  0.023426894936230847  1.0000
  Fe  Fe47      1.0  0.5047828466732168  0.9673989042818492  0.905795462250269  1.0000
  S   S93       1.0  0.5331186625400673  0.03306823536340686  0.879898301404791  1.0000
  Fe  Fe48      1.0  0.5048736166086002  0.8830556473213912  0.9074250583953071  1.0000
  S   S94       1.0  0.5261404511129569  0.8446631982957178  0.8776284142179052  1.0000
  S   S95       1.0  0.46613107497068035  0.9514670612287331  0.9533381850096129  1.0000
  S   S96       1.0  0.46676804322114696  0.859255633624427  0.9551210436055728  1.0000
  C   C73       1.0  0.5461412562443784  0.03503953584597875  0.7679542820243367  1.0000
  C   C74       1.0  0.5681386031432775  0.0735386637465334  0.7845952219252371  1.0000
  C   C75       1.0  0.5627636266106535  0.07296835991626671  0.8189565756684234  1.0000
  C   C76       1.0  0.5354593767087573  0.033950079145106615  0.8366767686466339  1.0000
  C   C77       1.0  0.5123427281585657  0.9958247790815767  0.819785887771183  1.0000
  C   C78       1.0  0.5176330929033859  0.9963840883010245  0.7854786756378792  1.0000
  H   H49       1.0  0.5899052670170386  0.10360806232457809  0.7711804066088883  1.0000
  H   H50       1.0  0.5804861785443943  0.10264037257728709  0.8318990980558796  1.0000
  H   H51       1.0  0.4904527814843337  0.9658985928978108  0.8330922218021367  1.0000
  H   H52       1.0  0.499959444970452  0.9666881567302005  0.7725837255750521  1.0000
  C   C79       1.0  0.5567372615327574  0.07167836374058632  0.5652587686400147  1.0000
  C   C80       1.0  0.546158101377195  0.05415003114214229  0.03681032788858096  1.0000
  C   C81       1.0  0.5394303231143289  0.01631842248186066  0.021976666366410713  1.0000
  C   C82       1.0  0.5404145981788958  0.9834841598390441  0.040843233846630245  1.0000
  C   C83       1.0  0.5484867862759788  0.9887301621614293  0.07445041593582924  1.0000
  C   C84       1.0  0.5554686095771904  0.02663787862558098  0.08922585646506764  1.0000
  H   H53       1.0  0.5448573503019658  0.08720691522219132  0.5164002114696442  1.0000
  H   H54       1.0  0.5335996459520461  0.012688703987850491  0.9959576866816227  1.0000
  H   H55       1.0  0.549028309889127  0.9632741344995049  0.08916218573706391  1.0000
  H   H56       1.0  0.566521146272283  0.046324930417264536  0.610619815336869  1.0000
  C   C85       1.0  0.29560553610144064  0.72045240361763  0.8901155290786482  1.0000
  C   C86       1.0  0.33628999685042654  0.7549752081505146  0.8804543905785496  1.0000
  C   C87       1.0  0.35527512899488783  0.7927101270293816  0.8983729462594469  1.0000
  C   C88       1.0  0.33314464313580056  0.7966250923069924  0.9254582637384992  1.0000
  C   C89       1.0  0.2922913806108114  0.7621396792090762  0.9350829546173627  1.0000
  C   C90       1.0  0.273689209494484  0.723834056505459  0.9176223563361261  1.0000
  H   H57       1.0  0.3532308108498803  0.752518510253681  0.8591165188490267  1.0000
  H   H58       1.0  0.3867232585121282  0.8190223446581473  0.8907985126445349  1.0000
  H   H59       1.0  0.27501657665791407  0.7649960680830086  0.9560056423768334  1.0000
  H   H60       1.0  0.2421058578659141  0.6973050323922554  0.9250615748851163  1.0000
  C   C91       1.0  0.8291990938815701  0.31165651189455923  0.7069292282905248  1.0000
  C   C92       1.0  0.8414219449425363  0.3088075799572807  0.6746227691815254  1.0000
  C   C93       1.0  0.8160816922733338  0.27143392838236186  0.6571430341621306  1.0000
  C   C94       1.0  0.7781053879823969  0.23727637589042888  0.6717480078378792  1.0000
  C   C95       1.0  0.7661437502147239  0.24018339345631837  0.7040913474236026  1.0000
  C   C96       1.0  0.7918463674298188  0.2770783898963574  0.7217642560724482  1.0000
  H   H61       1.0  0.8707040855931368  0.33505715294317756  0.66323422091871  1.0000
  H   H62       1.0  0.8256497630596333  0.2692794503241441  0.6321977460251551  1.0000
  H   H63       1.0  0.7375435653982435  0.2136092301075543  0.7158265798183296  1.0000
  H   H64       1.0  0.7824611489395827  0.27891179744558614  0.7468486085816932  1.0000
  C   C97       1.0  0.04605490026188863  0.5413490529528534  0.7617529944856865  1.0000
  C   C98       1.0  0.06602260074903744  0.5682058276787285  0.7879571124931143  1.0000
  C   C99       1.0  0.07917532827489232  0.5529419865575899  0.8150063049793921  1.0000
  C   C100      1.0  0.0724201438668412  0.5107789557497945  0.8158095257389959  1.0000
  C   C101      1.0  0.054480022910956105  0.4848286326180971  0.7888543248418735  1.0000
  C   C102      1.0  0.041364048914567464  0.5000562181484908  0.7618781952425816  1.0000
  H   H65       1.0  0.0700826192228151  0.600369658745309  0.7878956382846386  1.0000
  H   H66       1.0  0.09311801657290762  0.5732323814707854  0.8356940922214123  1.0000
  H   H67       1.0  0.05003998946470123  0.45250904259726943  0.7891664058478932  1.0000
  H   H68       1.0  0.027051431678452253  0.4794914245339881  0.7415596723350101  1.0000
  C   C103      1.0  0.03407928941126315  0.4903278391751291  0.5700902408099341  1.0000
  C   C104      1.0  0.06766098537617739  0.4897306906031197  0.5527324139937103  1.0000
  C   C105      1.0  0.06573881382495562  0.5115344806703616  0.01142625593590707  1.0000
  C   C106      1.0  0.09009686144426628  0.5537119990439187  0.022176238359828293  1.0000
  C   C107      1.0  0.08667294038892198  0.561860207055607  0.05530465829510822  1.0000
  C   C108      1.0  0.02825145937199891  0.525995757663543  0.5659041427226593  1.0000
  H   H69       1.0  0.07246744950027338  0.46231296646057485  0.5560946253503993  1.0000
  H   H70       1.0  0.06727377801945257  0.5052053697780445  0.9857614221439708  1.0000
  H   H71       1.0  0.105533847589812  0.5944949965416253  0.0637171331235118  1.0000
  H   H72       1.0  0.0018820847852401013  0.5263238252692447  0.5786632664587048  1.0000
  C   C109      1.0  0.5296429464812283  0.7394133486336862  0.9413395164626903  1.0000
  C   C110      1.0  0.5312687168405651  0.7383210852530492  0.9069774000077927  1.0000
  C   C111      1.0  0.5310863757254302  0.7712350766961235  0.8873835438250248  1.0000
  C   C112      1.0  0.5291657127256025  0.8051877236861054  0.9021672969693039  1.0000
  C   C113      1.0  0.5285875083859832  0.8067806838269596  0.9364664813625624  1.0000
  C   C114      1.0  0.5286939364318335  0.7738956243411995  0.9560052323453119  1.0000
  H   H73       1.0  0.5329993452388018  0.7124079668802316  0.8954727703139411  1.0000
  H   H74       1.0  0.5320005483470616  0.7701279884100469  0.8608203294863805  1.0000
  H   H75       1.0  0.5286784907159147  0.8336224187974192  0.9480496986947388  1.0000
  H   H76       1.0  0.528079469673561  0.775211685819522  0.9825735403508804  1.0000
  C   C115      1.0  0.2780398589329352  0.5104347338262767  0.9297191989082261  1.0000
  C   C116      1.0  0.3104798269111237  0.5072479460598256  0.9456275084159517  1.0000
  C   C117      1.0  0.3479678921503552  0.5158411089939363  0.9279539630887909  1.0000
  C   C118      1.0  0.3528474346936616  0.5271550979231325  0.8942642961597707  1.0000
  C   C119      1.0  0.3200621946092286  0.5294106177323434  0.8782298896440777  1.0000
  C   C120      1.0  0.28287670894381867  0.5213506687047321  0.8959754726764323  1.0000
  H   H77       1.0  0.3067695390157337  0.49838008847948606  0.9716598134899092  1.0000
  H   H78       1.0  0.3726530978566799  0.5129007866639171  0.9403195094795266  1.0000
  H   H79       1.0  0.3235025635900088  0.537757874577181  0.8521040749380977  1.0000
  H   H80       1.0  0.25763114984598173  0.5226676591662135  0.8832961013356883  1.0000
  C   C121      1.0  0.7486100866861576  0.500614682486681  0.6982735399683055  1.0000
  C   C122      1.0  0.7844557732498889  0.5020813311280464  0.7123032265144088  1.0000
  C   C123      1.0  0.8176932685490793  0.5044876050677832  0.6921322326018843  1.0000
  C   C124      1.0  0.8150368320786514  0.5050117614475679  0.6578563982198415  1.0000
  C   C125      1.0  0.7796703554984595  0.5045499170490723  0.643832339056944  1.0000
  C   C126      1.0  0.7465823599574029  0.5024747834814719  0.6639833489510373  1.0000
  H   H81       1.0  0.786425796067653  0.5012719624886837  0.7388190103730525  1.0000
  H   H82       1.0  0.8454152699488449  0.5062556532714445  0.7031421676907338  1.0000
  H   H83       1.0  0.7778218553855174  0.5057403920171818  0.6173176653014724  1.0000
  H   H84       1.0  0.7197634837798742  0.5027030134379272  0.6529434611613127  1.0000
  C   C127      1.0  0.5512646041854262  0.31800112856231855  0.6754741117095466  1.0000
  C   C128      1.0  0.5420913588921278  0.2779965019080068  0.663288769315189  1.0000
  C   C129      1.0  0.5634947218514607  0.2569066129612656  0.6752271184280566  1.0000
  C   C130      1.0  0.5932200706363685  0.2754374956061609  0.6998911944151001  1.0000
  C   C131      1.0  0.6019983146766958  0.3151666191971261  0.712147415016922  1.0000
  C   C132      1.0  0.5816560668984154  0.33675616699778116  0.699569939440369  1.0000
  H   H85       1.0  0.5185085155660462  0.26333997528791325  0.6446829733101467  1.0000
  H   H86       1.0  0.5565174054006332  0.2260913479194706  0.6658098649219939  1.0000
  H   H87       1.0  0.6247150365459345  0.3294318888417642  0.7314001826920701  1.0000
  H   H88       1.0  0.5889560541480932  0.3675559815799274  0.7090846463518636  1.0000
  C   C133      1.0  0.5896349808389024  0.5213048822354582  0.5564793489972621  1.0000
  C   C134      1.0  0.5464384948152456  0.5002905795458908  0.5670448315894315  1.0000
  C   C135      1.0  0.571927194782526  0.5473213133024821  0.023324961570464264  1.0000
  C   C136      1.0  0.5345684084966984  0.5065857024766748  0.023871516418746852  1.0000
  C   C137      1.0  0.5325995133026658  0.4721027621805661  0.042629152340994736  1.0000
  C   C138      1.0  0.6010212673362185  0.5356479952423031  0.5234428389809517  1.0000
  H   H89       1.0  0.5373277014837858  0.4896685333432204  0.5924720281034732  1.0000
  H   H90       1.0  0.5734710157093151  0.5743571095846653  0.009624535826291858  1.0000
  H   H91       1.0  0.5038874952520982  0.44041258112581283  0.04296678004211363  1.0000
  H   H92       1.0  0.6344121421845477  0.5517786338151156  0.515088303839028  1.0000
  C   C139      1.0  0.5571947634101496  0.5449229723060586  0.7670795765751327  1.0000
  C   C140      1.0  0.5415769405279828  0.5676053523774212  0.7846157515774219  1.0000
  C   C141      1.0  0.5558948572805776  0.5815666023941768  0.8161664109013905  1.0000
  C   C142      1.0  0.5870734240750473  0.574271831643725  0.8298213471630934  1.0000
  C   C143      1.0  0.6042483123506773  0.5533807044627356  0.811677226557334  1.0000
  C   C144      1.0  0.5890348189260038  0.5383480184920241  0.7804090266949899  1.0000
  H   H93       1.0  0.5181793468452229  0.5741925266034552  0.7738648218008478  1.0000
  H   H94       1.0  0.5431906753904174  0.5984749858806689  0.8297302933422125  1.0000
  H   H95       1.0  0.628689707520732  0.5480303991042949  0.8219950257853627  1.0000
  H   H96       1.0  0.6015597993155821  0.5212118761357375  0.7668506411764755  1.0000
  N   N1        1.0  0.3932630125372935  0.8973431525355332  0.041972505117046754  1.0000
  C   C145      1.0  0.3681563965995962  0.8764851097430555  0.07294969534449924  1.0000
  C   C146      1.0  0.36552615945070416  0.9020128408626963  0.017860037348406133  1.0000
  C   C147      1.0  0.4096117584357364  0.8701891232468129  0.028462060809243184  1.0000
  C   C148      1.0  0.42982975819698316  0.9406122027259897  0.04857599859669848  1.0000
  H   H97       1.0  0.3882815481105521  0.8725540715930578  0.09161275074468178  1.0000
  H   H98       1.0  0.34042708383968434  0.8436918129075094  0.06872235264067372  1.0000
  H   H99       1.0  0.3552698626929369  0.896089788371289  0.08382025549078609  1.0000
  H   H100      1.0  0.35267116161411155  0.9224426821722097  0.027042236236585193  1.0000
  H   H101      1.0  0.38340043764443554  0.9172782394919711  0.9940450801252313  1.0000
  H   H102      1.0  0.337789741743335  0.8699092179574777  0.012013967606816278  1.0000
  H   H103      1.0  0.4308647223216343  0.8659661015007997  0.04582912521933746  1.0000
  H   H104      1.0  0.42901773362677637  0.8853104141325  0.005368096484815954  1.0000
  H   H105      1.0  0.38301328112046573  0.8375605268653621  0.022339382249872752  1.0000
  H   H106      1.0  0.4492491376753274  0.957253028374657  0.025612584541881978  1.0000
  H   H107      1.0  0.4519092185461786  0.9382540137434612  0.06619063427872351  1.0000
  H   H108      1.0  0.41899029459500536  0.9621026047469513  0.059040050556457446  1.0000
  N   N2        1.0  0.6489629598594965  0.48351492557942527  0.3035681606180246  1.0000
  C   C149      1.0  0.6661355932217247  0.5034954399430881  0.33521124608028097  1.0000
  C   C150      1.0  0.6024819174081083  0.4681693955550965  0.30342425863084715  1.0000
  C   C151      1.0  0.6557481313838123  0.4463968665908816  0.29933004910516653  1.0000
  C   C152      1.0  0.6716019829428773  0.516090125370354  0.27627435921811916  1.0000
  H   H109      1.0  0.6613512577436734  0.5316392998846794  0.33904578124680185  1.0000
  H   H110      1.0  0.7012142238301124  0.5156680992784262  0.3360347991582282  1.0000
  H   H111      1.0  0.6498821346614253  0.47993390319551543  0.3564273856985219  1.0000
  H   H112      1.0  0.5889273088560496  0.45584745226578777  0.27903403853459385  1.0000
  H   H113      1.0  0.5840702526813779  0.44158249601673866  0.3223199403556744  1.0000
  H   H114      1.0  0.5959330955678929  0.49465316097909556  0.3088727486901942  1.0000
  H   H115      1.0  0.6905632651658146  0.4569408493834572  0.29843944133005307  1.0000
  H   H116      1.0  0.6427416506458433  0.43051936171460625  0.2757504754719975  1.0000
  H   H117      1.0  0.6398054598842197  0.4213459899449816  0.31967219392976376  1.0000
  H   H118      1.0  0.6581121369913927  0.5029235639477394  0.25211227090086363  1.0000
  H   H119      1.0  0.7063658254373952  0.5265256564432895  0.27450200768213245  1.0000
  H   H120      1.0  0.6693562484817532  0.5456279437479679  0.27949466052937133  1.0000
  N   N3        1.0  0.16375902381747526  0.4855896074580619  0.03782888482693014  1.0000
  C   C153      1.0  0.18404773375888958  0.5308178525220912  0.024409942501136372  1.0000
  C   C154      1.0  0.13426609745432455  0.4559124641664919  0.01365558335107142  1.0000
  C   C155      1.0  0.139383222656173  0.48111694358547225  0.06878815325007337  1.0000
  C   C156      1.0  0.19734154820652614  0.4745206595693728  0.0444230807394943  1.0000
  H   H121      1.0  0.15966723492548296  0.5398415259536701  0.017950944243077416  1.0000
  H   H122      1.0  0.203691831369775  0.5356864788505094  0.0015712354793049332  1.0000
  H   H123      1.0  0.20550884030387193  0.5543328892984362  0.04229676632575696  1.0000
  H   H124      1.0  0.15161437782967838  0.4585427802162516  0.9899386231777227  1.0000
  H   H125      1.0  0.11836508747773268  0.4214884811520264  0.02290560579435219  1.0000
  H   H126      1.0  0.10857186553690494  0.4633612914466352  0.008005599426484489  1.0000
  H   H127      1.0  0.12227505846196389  0.4470857534909915  0.07910750981392733  1.0000
  H   H128      1.0  0.11473335033402102  0.4905047150823552  0.06473308648844389  1.0000
  H   H129      1.0  0.16069246082182617  0.5022879384771112  0.08788656651772331  1.0000
  H   H130      1.0  0.1831819660402109  0.44067601672573575  0.05471331969275561  1.0000
  H   H131      1.0  0.2205804670907483  0.496650589937823  0.062170211790954166  1.0000
  H   H132      1.0  0.21601634522144975  0.4771935528664754  0.021407035652728723  1.0000
  N   N4        1.0  0.5990092942216089  0.6526625705590186  0.5476273000485282  1.0000
  C   C157      1.0  0.6404835975263357  0.6918737821947485  0.5536580359473026  1.0000
  C   C158      1.0  0.5643024977964147  0.6632018741547122  0.5491159531316809  1.0000
  C   C159      1.0  0.5902333319303514  0.6182642457570942  0.5728894160734058  1.0000
  C   C160      1.0  0.601026894748121  0.637328574619446  0.5146379724641963  1.0000
  H   H133      1.0  0.6673654045453696  0.6850055765276284  0.5524938467238291  1.0000
  H   H134      1.0  0.6401959865076664  0.7043593127997951  0.5783911572461304  1.0000
  H   H135      1.0  0.6479717132200529  0.71841096356861  0.5349269244771948  1.0000
  H   H136      1.0  0.5326308236337184  0.6343776006211206  0.5442745501097921  1.0000
  H   H137      1.0  0.5616668760653493  0.6748517670198931  0.5736737401564129  1.0000
  H   H138      1.0  0.57003843951612  0.6890639338131915  0.5302652686758554  1.0000
  H   H139      1.0  0.5594636287373357  0.5879801746952192  0.5687314660852785  1.0000
  H   H140      1.0  0.5880870396396413  0.6284291656179348  0.5981582224807808  1.0000
  H   H141      1.0  0.6160305585630486  0.6097526142852758  0.5726001883724772  1.0000
  H   H142      1.0  0.5697989870465092  0.6085558253807525  0.5088478546588938  1.0000
  H   H143      1.0  0.6260856587244815  0.6279520105334925  0.5127350670780509  1.0000
  H   H144      1.0  0.6086951862446104  0.6629119505226674  0.49504056507758815  1.0000
  N   N5        1.0  0.3882547006278393  0.6683618147723872  0.9081897650185977  1.0000
  C   C161      1.0  0.3761607432600488  0.6612138232758012  0.87341820434231  1.0000
  C   C162      1.0  0.411272351394846  0.7153984429621278  0.9137721529298762  1.0000
  C   C163      1.0  0.41651948894507307  0.6505939597728132  0.9156868221515833  1.0000
  C   C164      1.0  0.34895672535643874  0.6462108091083204  0.9297673730334337  1.0000
  H   H145      1.0  0.35840471152636005  0.6260054825497645  0.8684621955386437  1.0000
  H   H146      1.0  0.40491815167557205  0.6772611559015133  0.8563168752733599  1.0000
  H   H147      1.0  0.3549227381199282  0.6743973235701433  0.8669276434537416  1.0000
  H   H148      1.0  0.42267849511287564  0.7222189214996145  0.9393517316224257  1.0000
  H   H149      1.0  0.43997969325161385  0.7333773510716216  0.8967904394475548  1.0000
  H   H150      1.0  0.39036704752292806  0.7295838039372238  0.9097009256606612  1.0000
  H   H151      1.0  0.40003051258788863  0.6150541528052491  0.9122479535299723  1.0000
  H   H152      1.0  0.42713665749370155  0.6561984079933234  0.9415443959128632  1.0000
  H   H153      1.0  0.4460209618457348  0.6660025934677262  0.8993459269448681  1.0000
  H   H154      1.0  0.35667409745244816  0.6511737333213156  0.9562067936696849  1.0000
  H   H155      1.0  0.3309340947812008  0.6105962919272118  0.9262667230273604  1.0000
  H   H156      1.0  0.32669005815876245  0.6585281896306878  0.9242953856002769  1.0000
  N   N6        1.0  0.20354180704105262  0.6065925001915483  0.28823967348178503  1.0000
  C   C165      1.0  0.1887346884821024  0.6290874230661642  0.31024422228980875  1.0000
  C   C166      1.0  0.20512543918677872  0.6219335773857141  0.25378882352280363  1.0000
  C   C167      1.0  0.17349224106382333  0.5592382641854361  0.2914648647708813  1.0000
  C   C168      1.0  0.246834251933032  0.6162569648714571  0.2974425459975739  1.0000
  H   H157      1.0  0.18514664216941035  0.6168977327313084  0.3362780359654492  1.0000
  H   H158      1.0  0.1573099005545151  0.6246376040702567  0.3030370566808426  1.0000
  H   H159      1.0  0.21190737636800927  0.6646429482270149  0.30978115122771355  1.0000
  H   H160      1.0  0.21617011116809137  0.6056912922759594  0.23643319001784865  1.0000
  H   H161      1.0  0.1727643435616213  0.6149778193278975  0.2461864016120026  1.0000
  H   H162      1.0  0.22730622845838533  0.6575849669939535  0.2505193367742849  1.0000
  H   H163      1.0  0.1850654800258682  0.5410767213355439  0.27677798007098076  1.0000
  H   H164      1.0  0.1412587110131247  0.550503470211731  0.28259385865015846  1.0000
  H   H165      1.0  0.16892489224828977  0.5468008457919713  0.3175626927104899  1.0000
  H   H166      1.0  0.2594830309305334  0.6003261367701724  0.28124111495048526  1.0000
  H   H167      1.0  0.2465520244779722  0.6049267332647837  0.3232979403694508  1.0000
  H   H168      1.0  0.27014065406248955  0.6518091468878241  0.295966833824142  1.0000
  N   N7        1.0  0.4093956683894801  0.71041561642851  0.41791768116293515  1.0000
  C   C169      1.0  0.3639911604303336  0.6842370371790946  0.4090284280229644  1.0000
  C   C170      1.0  0.42279295949188295  0.7569689655956858  0.415912000340309  1.0000
  C   C171      1.0  0.4367686098352098  0.7024973413635156  0.39494322498412077  1.0000
  C   C172      1.0  0.4141656320023216  0.6980204526737113  0.45189607344943483  1.0000
  H   H169      1.0  0.35265632999196994  0.6488699225022783  0.4104832853577581  1.0000
  H   H170      1.0  0.3591994984340118  0.6926335610351255  0.3834802137999518  1.0000
  H   H171      1.0  0.34242120046034824  0.6897073523735069  0.4256968841543524  1.0000
  H   H172      1.0  0.42033835724161916  0.767787330559357  0.39050517138404905  1.0000
  H   H173      1.0  0.40256581189027124  0.76416025074889  0.4326913714655095  1.0000
  H   H174      1.0  0.4567320110067889  0.7776086231238928  0.4228282986738863  1.0000
  H   H175      1.0  0.434524814676588  0.7120829190774598  0.36909465774083244  1.0000
  H   H176      1.0  0.4273594979671432  0.6676282995887893  0.3955265279215899  1.0000
  H   H177      1.0  0.4711534233679456  0.7213103865469693  0.40124234369651  1.0000
  H   H178      1.0  0.3941084426000849  0.7038506969427483  0.46988277941210493  1.0000
  H   H179      1.0  0.44815777950127406  0.717073679713855  0.45927762251091936  1.0000
  H   H180      1.0  0.40416492715412206  0.6630390386951265  0.4543390236571873  1.0000
  N   N8        1.0  0.6240025167403424  0.9467827669258114  0.32610833929449007  1.0000
  C   C173      1.0  0.6317370546171386  0.990858627873783  0.3315393777641189  1.0000
  C   C174      1.0  0.5786918844006613  0.9181911269836318  0.3179483682538181  1.0000
  C   C175      1.0  0.6332592100851036  0.9294670121906662  0.3563523699063213  1.0000
  C   C176      1.0  0.6522541880101376  0.9486139993571756  0.29849900744997676  1.0000
  H   H181      1.0  0.6652579977642742  0.013105426323375635  0.3386395951291669  1.0000
  H   H182      1.0  0.6098351643660918  0.9905149467566359  0.35144970621983623  1.0000
  H   H183      1.0  0.6262776424777737  0.005299709873918257  0.30886886555921206  1.0000
  H   H184      1.0  0.5709626648164761  0.8840341919375647  0.3156386476328106  1.0000
  H   H185      1.0  0.5563012131645156  0.917838243733309  0.33740892485349233  1.0000
  H   H186      1.0  0.5712829636170254  0.9288372136304905  0.29424629331003815  1.0000
  H   H187      1.0  0.66728448728003  0.9498128152075611  0.3630801122909759  1.0000
  H   H188      1.0  0.6267132225029063  0.8957560783770858  0.35347276641493497  1.0000
  H   H189      1.0  0.6126889035232568  0.9280739522108556  0.3776695626357597  1.0000
  H   H190      1.0  0.6470079180337662  0.915786444247718  0.2936766982923044  1.0000
  H   H191      1.0  0.6867369830660945  0.9699333156611156  0.3037243270860654  1.0000
  H   H192      1.0  0.6460250860898077  0.9616523983396842  0.2753004079787806  1.0000
  N   N9        1.0  0.11699391608346936  0.5688170543732985  0.647697237816522  1.0000
  C   C177      1.0  0.08161626342490824  0.5232004994573083  0.6495306420164737  1.0000
  C   C178      1.0  0.10861576466306877  0.5934797926157304  0.6724387803259457  1.0000
  C   C179      1.0  0.1197974712296643  0.5881340252257338  0.6144284068873793  1.0000
  C   C180      1.0  0.15784309313068268  0.5703874328485358  0.6544294424630515  1.0000
  H   H193      1.0  0.08706320065928601  0.5032526595486596  0.6316167746767757  1.0000
  H   H194      1.0  0.05055597271486911  0.5207420318500907  0.6436264085615736  1.0000
  H   H195      1.0  0.07755808450133152  0.5079108824253971  0.6746048118769801  1.0000
  H   H196      1.0  0.13425835889947416  0.6282186718745257  0.6715729451201256  1.0000
  H   H197      1.0  0.07755926055118093  0.5922838007932242  0.6684566932898848  1.0000
  H   H198      1.0  0.10666296700569008  0.5800792167163001  0.6979281369821487  1.0000
  H   H199      1.0  0.12500185804450573  0.569696907713609  0.5950043082351134  1.0000
  H   H200      1.0  0.14665622125300604  0.622318176402246  0.6118151708282886  1.0000
  H   H201      1.0  0.08973555819387292  0.5882354259165158  0.6089201584983165  1.0000
  H   H202      1.0  0.18522658033839337  0.604375945923409  0.653455410503829  1.0000
  H   H203      1.0  0.16516129823380107  0.5522117360172549  0.6360610801086154  1.0000
  H   H204      1.0  0.1565957912405062  0.5558230830308278  0.6793360056167341  1.0000
  N   N10       1.0  0.7440913092654471  0.3495490717809922  0.18696995350175932  1.0000
  C   C181      1.0  0.776183809364932  0.37223387799067137  0.21205309662464367  1.0000
  C   C182      1.0  0.7249516393250273  0.3760273954596836  0.17680375741357154  1.0000
  C   C183      1.0  0.7100412438527841  0.30700155076601265  0.20096377123718703  1.0000
  C   C184      1.0  0.7652755428147995  0.34288523036390245  0.1580536731512499  1.0000
  H   H205      1.0  0.7620320633928989  0.3801121861535036  0.23345385608752295  1.0000
  H   H206      1.0  0.803832112051425  0.40314936936278867  0.20171373566939768  1.0000
  H   H207      1.0  0.7895140827541207  0.35214186208080406  0.22163502315892297  1.0000
  H   H208      1.0  0.749759843024719  0.40819018298290183  0.165788516250825  1.0000
  H   H209      1.0  0.7000254291968283  0.35961956775755455  0.15827655813847513  1.0000
  H   H210      1.0  0.7092182396288842  0.38227485752932744  0.19813032895405372  1.0000
  H   H211      1.0  0.6849211385688901  0.2891440876036076  0.18286164547534384  1.0000
  H   H212      1.0  0.6937637400113503  0.3106141739225889  0.22316007340124666  1.0000
  H   H213      1.0  0.7231639632853182  0.2858509601156397  0.20844996748944314  1.0000
  H   H214      1.0  0.7914144484749315  0.3743147347189684  0.14697305879808772  1.0000
  H   H215      1.0  0.7420023604384214  0.32567913063714576  0.13865875493135085  1.0000
  H   H216      1.0  0.7800287717159019  0.32303843242074953  0.16496526100491657  1.0000
  N   N11       1.0  0.006053549436317853  0.4789205654091474  0.4498938641034718  1.0000
  C   C185      1.0  0.9780109998806946  0.4600634344199657  0.42178168124997684  1.0000
  C   C186      1.0  0.0394185757629648  0.524125471950323  0.44083519525538806  1.0000
  C   C187      1.0  0.026627963082712862  0.45318281593890186  0.4580534608518101  1.0000
  C   C188      1.0  0.9803649168537064  0.47841945643877226  0.4788857696469224  1.0000
  H   H217      1.0  0.9622928856916757  0.4789341279778181  0.41471366195041504  1.0000
  H   H218      1.0  0.9523790846750572  0.4259300542652381  0.4276239261202674  1.0000
  H   H219      1.0  0.9967235416578492  0.4599697956686243  0.3996014860215591  1.0000
  H   H220      1.0  0.02524887312689737  0.5449011013155385  0.4354196940063546  1.0000
  H   H221      1.0  0.06200289075414826  0.5390111439762527  0.46101226193184935  1.0000
  H   H222      1.0  0.058705577013011184  0.5258160685079671  0.41857741852691704  1.0000
  H   H223      1.0  0.0480201618194076  0.4665169106696126  0.4791908732122719  1.0000
  H   H224      1.0  0.04653197965798572  0.45305030175653005  0.4367870546604331  1.0000
  H   H225      1.0  0.0024010116753556774  0.41884827237248345  0.46490875572107093  1.0000
  H   H226      1.0  0.964541807327041  0.4977479554557675  0.47380200336361666  1.0000
  H   H227      1.0  0.0008732552246713223  0.492501595863025  0.5003994922897842  1.0000
  H   H228      1.0  0.9549486991471449  0.44482169734187066  0.4866089669568529  1.0000
  N   N12       1.0  0.42707519550140033  0.4604590006149051  0.8151578268506413  1.0000
  C   C189      1.0  0.40467085942347936  0.44861564513954677  0.8479140563955389  1.0000
  C   C190      1.0  0.4337957646132785  0.503057222128592  0.8034113026795747  1.0000
  C   C191      1.0  0.40079634383303153  0.4273679482050989  0.7916036144801921  1.0000
  C   C192      1.0  0.469065861694152  0.46288111648289043  0.8175787753983829  1.0000
  H   H229      1.0  0.3733430186709809  0.4476604243843859  0.8471963490779063  1.0000
  H   H230      1.0  0.4239189023041538  0.47284343733028666  0.8662216872218803  1.0000
  H   H231      1.0  0.39844524233817974  0.4164050048814997  0.8574860738221664  1.0000
  H   H232      1.0  0.44907821701446454  0.5121672296348004  0.7781685518995903  1.0000
  H   H233      1.0  0.40297523944335784  0.5030951569447374  0.802729446588174  1.0000
  H   H234      1.0  0.4548391391893801  0.5291844086092573  0.819964900927319  1.0000
  H   H235      1.0  0.41702689006759314  0.4355043563187011  0.7666412900796528  1.0000
  H   H236      1.0  0.36897304428487704  0.42489235563079936  0.7890715491483685  1.0000
  H   H237      1.0  0.39510251370632116  0.39477431596132034  0.7996237897973084  1.0000
  H   H238      1.0  0.4860976691440725  0.4702717513119917  0.793021800526276  1.0000
  H   H239      1.0  0.46542474244921445  0.4317603280030625  0.8273456274234534  1.0000
  H   H240      1.0  0.4905260589171788  0.4888604543398185  0.8340640530592636  1.0000
  N   N13       1.0  0.5083929972012138  0.10989246358993371  0.2810495631453421  1.0000
  C   C193      1.0  0.47762535270331086  0.10697302683884016  0.30698636546714475  1.0000
  C   C194      1.0  0.49848536086666506  0.06571902820085603  0.2731099066161848  1.0000
  C   C195      1.0  0.5524602450893369  0.13436820452617676  0.2930428767559558  1.0000
  C   C196      1.0  0.5050323877069471  0.13250342475288607  0.25119848269921285  1.0000
  H   H241      1.0  0.4844347468831966  0.13977179080749955  0.3137414886846102  1.0000
  H   H242      1.0  0.4792934666616157  0.08987108734382494  0.32982173062278325  1.0000
  H   H243      1.0  0.4440118665631107  0.08876525023308617  0.2987886692415496  1.0000
  H   H244      1.0  0.46586573345294147  0.04654665298731672  0.2632640651091613  1.0000
  H   H245      1.0  0.5218339040494964  0.0666169675296997  0.25429285085261977  1.0000
  H   H246      1.0  0.4998234796361003  0.04749284271916721  0.29530387546213693  1.0000
  H   H247      1.0  0.555338635864673  0.11992639798122523  0.3167872132877409  1.0000
  H   H248      1.0  0.5622732999027849  0.1688071578529678  0.2970161849212463  1.0000
  H   H249      1.0  0.5763428810284587  0.13481205539220542  0.2749774749855325  1.0000
  H   H250      1.0  0.4722280210332945  0.11517808514281497  0.24141977510513643  1.0000
  H   H251      1.0  0.5278504207456616  0.1352602414040132  0.23120328855894534  1.0000
  H   H252      1.0  0.5130684931117205  0.16625578845714478  0.2561110234326456  1.0000
  N   N14       1.0  0.9552765642908777  0.5458656030868909  0.055998189139902364  1.0000
  C   C197      1.0  0.9805633772159924  0.5531568698938225  0.024972266819124567  1.0000
  C   C198      1.0  0.9830015093416541  0.5766113608752835  0.08040227040989188  1.0000
  C   C199      1.0  0.9386465602520945  0.500894718638607  0.06894535163564897  1.0000
  C   C200      1.0  0.9188917962736284  0.5527896784957472  0.04974894886856999  1.0000
  H   H253      1.0  0.960635347788606  0.5308949507316773  0.005813330193487287  1.0000
  H   H254      1.0  0.007767415634315489  0.547420193594432  0.028857206311712066  1.0000
  H   H255      1.0  0.9945039765316679  0.587046551753012  0.014797962875482627  1.0000
  H   H256      1.0  0.010891157740412716  0.5724244338092358  0.08566108350523333  1.0000
  H   H257      1.0  0.9959237600129478  0.6108671900654227  0.07156582723695928  1.0000
  H   H258      1.0  0.9649671987666731  0.5718095120176723  0.10421917710412615  1.0000
  H   H259      1.0  0.9183767979429811  0.4937915974785993  0.09180031370481787  1.0000
  H   H260      1.0  0.9651167847233817  0.4949743235756954  0.07526014021510766  1.0000
  H   H261      1.0  0.9188000534357692  0.4767211140897658  0.050815920574148105  1.0000
  H   H262      1.0  0.899474961397284  0.5478691363938974  0.0728648460645899  1.0000
  H   H263      1.0  0.8969323711996482  0.5297697203233921  0.0317971232348957  1.0000
  H   H264      1.0  0.930205600601449  0.5863473814672467  0.03985622704741276  1.0000
  N   N15       1.0  0.5253994408835414  0.5377010378909749  0.13612558226952354  1.0000
  C   C201      1.0  0.49835065853211236  0.49027503660374006  0.13329739926257853  1.0000
  C   C202      1.0  0.5245718302353055  0.559927834767864  0.10514280307577809  1.0000
  C   C203      1.0  0.5700232550004323  0.5489320144094625  0.1422043368095275  1.0000
  C   C204      1.0  0.5086985294089065  0.5516083236137638  0.16384914117173388  1.0000
  H   H265      1.0  0.49808251199866443  0.47239407122264265  0.15629770411849425  1.0000
  H   H266      1.0  0.510263277428404  0.4786478394894568  0.11274707922316107  1.0000
  H   H267      1.0  0.4645101788412973  0.4806068248410711  0.12847663755421443  1.0000
  H   H268      1.0  0.5448033828334063  0.5957966323845123  0.10617741390685799  1.0000
  H   H269      1.0  0.5369691936056453  0.5499729548270736  0.08388111057188967  1.0000
  H   H270      1.0  0.49138340859012  0.5520095026327311  0.09954182517779168  1.0000
  H   H271      1.0  0.5916644778035434  0.5845387075979762  0.14370417470437774  1.0000
  H   H272      1.0  0.5833482122838517  0.5379483949638493  0.12223962481284073  1.0000
  H   H273      1.0  0.5719175312602791  0.5333836614672273  0.16570707951132568  1.0000
  H   H274      1.0  0.5285838307349013  0.5871810836284684  0.16686865353575114  1.0000
  H   H275      1.0  0.5088189931577756  0.5351974755950099  0.18757291221802772  1.0000
  H   H276      1.0  0.47508043456707866  0.5436651332558481  0.16013715631059855  1.0000
  N   N16       1.0  0.6048280568118668  0.9581377184645419  0.8239373993972526  1.0000
  C   C205      1.0  0.558832701910945  0.9281554077148467  0.8186856506324804  1.0000
  C   C206      1.0  0.6193124955473144  0.9397135338886847  0.8503426864131504  1.0000
  C   C207      1.0  0.6111338257333853  0.0005111017491701286  0.8335702396825533  1.0000
  C   C208      1.0  0.629926815181882  0.9641016039729596  0.7930701928426076  1.0000
  H   H277      1.0  0.5471987687642356  0.9399251055600245  0.7979762991641716  1.0000
  H   H278      1.0  0.5387178365256615  0.9243623919305731  0.8410457516654719  1.0000
  H   H279      1.0  0.5524687070148019  0.8951455260547945  0.8130412168627514  1.0000
  H   H280      1.0  0.6539299931139105  0.9611768771720428  0.8549490019126285  1.0000
  H   H281      1.0  0.6009494924137959  0.934831136999513  0.8739387161093861  1.0000
  H   H282      1.0  0.6141927923582451  0.9072723458390367  0.8441921510149825  1.0000
  H   H283      1.0  0.64519220405576  0.023588365246576926  0.8388428544521588  1.0000
  H   H284      1.0  0.5912678196288839  0.9970740917077848  0.8560604502354535  1.0000
  H   H285      1.0  0.601838584229671  0.015936883372912325  0.8137099042195521  1.0000
  H   H286      1.0  0.6196985834145896  0.9780360829713317  0.772680750704861  1.0000
  H   H287      1.0  0.6256705016647841  0.9326588446930372  0.7850581790549499  1.0000
  H   H288      1.0  0.6648222116440224  0.9865552133189869  0.7961060368028237  1.0000
  N   N17       1.0  0.5745676604612318  0.38745413023159125  0.5648136396430679  1.0000
  C   C209      1.0  0.5433626389241288  0.39621956508655165  0.5818860176202514  1.0000
  C   C210      1.0  0.5848769725726038  0.3604988329649212  0.5867976737307717  1.0000
  C   C211      1.0  0.6141655913054258  0.4289860352660034  0.5559020010111762  1.0000
  C   C212      1.0  0.5556819898179441  0.36408484596646745  0.5346493953552933  1.0000
  H   H289      1.0  0.5136160602414989  0.3656528449294141  0.5901309921483707  1.0000
  H   H290      1.0  0.5340351877639303  0.41563078780517326  0.5658538720104777  1.0000
  H   H291      1.0  0.5569815300996536  0.4147077097525844  0.604298957750863  1.0000
  H   H292      1.0  0.5555790427763978  0.3291356766430353  0.594368425873986  1.0000
  H   H293      1.0  0.6083318373909979  0.35313966380411654  0.5748521918191004  1.0000
  H   H294      1.0  0.5988651378783592  0.37696107785128685  0.6099572113170573  1.0000
  H   H295      1.0  0.629278186427811  0.4474752272212662  0.5781207899294514  1.0000
  H   H296      1.0  0.6074477488558653  0.4504567488522729  0.53978664556796  1.0000
  H   H297      1.0  0.6385208799973745  0.42386078029929214  0.5428467053327578  1.0000
  H   H298      1.0  0.578269571721227  0.35673604079614407  0.5211762626747959  1.0000
  H   H299      1.0  0.5475814001804156  0.3836066446028157  0.5175363895575117  1.0000
  H   H300      1.0  0.5255991902744925  0.3327338379443743  0.5406348087810756  1.0000
  N   N18       1.0  0.3629993396299819  0.45264715109196574  0.4473725731224674  1.0000
  C   C213      1.0  0.32186563727934553  0.4172425796646566  0.4619428939528835  1.0000
  C   C214      1.0  0.38221208354509356  0.4882736810812936  0.4704322231558539  1.0000
  C   C215      1.0  0.35517059558163616  0.468867522895432  0.4159249475058874  1.0000
  C   C216      1.0  0.39278798215218513  0.43632644388171343  0.44123979964332577  1.0000
  H   H301      1.0  0.3063987073042669  0.3897533967369704  0.44521737920450905  1.0000
  H   H302      1.0  0.2987315173898666  0.42869935631005757  0.4667849649595982  1.0000
  H   H303      1.0  0.32659597583326544  0.40441638961726106  0.4858104770036762  1.0000
  H   H304      1.0  0.39019998384509796  0.4777027442511073  0.4939691365689548  1.0000
  H   H305      1.0  0.4126155675405306  0.516042617130773  0.4597720488353192  1.0000
  H   H306      1.0  0.3601301185064973  0.5005352508119605  0.47649738640524275  1.0000
  H   H307      1.0  0.38540354025114226  0.49637593816830483  0.4045645904891896  1.0000
  H   H308      1.0  0.3321739828142717  0.4806855868953787  0.41957284805519773  1.0000
  H   H309      1.0  0.3414825451368861  0.44315841227279085  0.39762954724970345  1.0000
  H   H310      1.0  0.42410050121343573  0.4624147928886695  0.43025351899659525  1.0000
  H   H311      1.0  0.379431020328726  0.409282712045973  0.42404143725968163  1.0000
  H   H312      1.0  0.4000522005556601  0.4245269851842904  0.4645389666576092  1.0000
  N   N19       1.0  0.6185044854195514  0.5096560438427555  0.93922134429855  1.0000
  C   C217      1.0  0.579226316638796  0.5127625542512545  0.9382526609615301  1.0000
  C   C218      1.0  0.6079038809902176  0.46521707781966815  0.9315852315620724  1.0000
  C   C219      1.0  0.636034522289919  0.5196392811969999  0.972446811417604  1.0000
  C   C220      1.0  0.6507045117055925  0.5410457061024512  0.9145870614204703  1.0000
  H   H313      1.0  0.5860713017659824  0.5457834103887781  0.9441738547936448  1.0000
  H   H314      1.0  0.5538985933200562  0.48941552619707573  0.9563271793082488  1.0000
  H   H315      1.0  0.5655860954716215  0.5062962442477155  0.9133380926927336  1.0000
  H   H316      1.0  0.6368344774732869  0.4616885397392674  0.9320446205874274  1.0000
  H   H317      1.0  0.5836159803058254  0.44081355253618393  0.9497621888889861  1.0000
  H   H318      1.0  0.5944538257765194  0.45670616881019904  0.9066774288004029  1.0000
  H   H319      1.0  0.6655872936907976  0.5174062938360063  0.9743169372797355  1.0000
  H   H320      1.0  0.6123436186512481  0.4968134842659966  0.9916744404754536  1.0000
  H   H321      1.0  0.6444593722464911  0.5530435084317321  0.9788934550746339  1.0000
  H   H322      1.0  0.6811890952936221  0.540403628664317  0.9149404347921032  1.0000
  H   H323      1.0  0.6583979555568792  0.5748288424619432  0.9190639289093954  1.0000
  H   H324      1.0  0.6386709168442394  0.5341564176118608  0.8891489757548884  1.0000
  N   N20       1.0  0.45972719847897436  0.9928737779596332  0.6559455148827428  1.0000
  C   C221      1.0  0.49487290225014074  0.9829711944605463  0.6560070064715031  1.0000
  C   C222      1.0  0.4690613266172465  0.026623205623459434  0.6299552343033463  1.0000
  C   C223      1.0  0.4561133009504414  0.008738291692939937  0.6884024442523948  1.0000
  C   C224      1.0  0.41893953011388463  0.953147288320188  0.6493949941449583  1.0000
  H   H325      1.0  0.49822263197757494  0.9703209981830025  0.6320722597397379  1.0000
  H   H326      1.0  0.4895733402366783  0.9584968764983316  0.6759010727345536  1.0000
  H   H327      1.0  0.5261769521150277  0.012428706338743378  0.6604534986081064  1.0000
  H   H328      1.0  0.4434123492445225  0.03520658059448478  0.629190252232826  1.0000
  H   H329      1.0  0.4997384756996716  0.056997781472421405  0.6340602391186471  1.0000
  H   H330      1.0  0.47220018286787113  0.015920103139744457  0.6050818451066219  1.0000
  H   H331      1.0  0.4296307787670868  0.01613225670604712  0.6895109905530392  1.0000
  H   H332      1.0  0.48623032619376333  0.03893863219796034  0.6939432703969645  1.0000
  H   H333      1.0  0.45023122542111316  0.9845963820118141  0.7087565654703611  1.0000
  H   H334      1.0  0.391693512869256  0.9594413508427657  0.6491239112545263  1.0000
  H   H335      1.0  0.4109913951025091  0.9270040815019402  0.6685505006921967  1.0000
  H   H336      1.0  0.42066582584074314  0.94037148599551  0.6250550913466953  1.0000
  N   N21       1.0  0.9213044507460977  0.4322946129091702  0.809056820977168  1.0000
  C   C225      1.0  0.9486470354922807  0.4800683609288032  0.8063445368889058  1.0000
  C   C226      1.0  0.9214053048674604  0.41681382687567525  0.843159127780038  1.0000
  C   C227      1.0  0.9382355854326135  0.41252702880878955  0.7861901462609516  1.0000
  C   C228      1.0  0.8769873579158207  0.4196874470995989  0.80052245873533  1.0000
  H   H337      1.0  0.9817760090443248  0.49079720823139716  0.8141939617276835  1.0000
  H   H338      1.0  0.9357690958666646  0.4961896869775019  0.822108354629478  1.0000
  H   H339      1.0  0.951338640897816  0.4928936214613782  0.7805371548422777  1.0000
  H   H340      1.0  0.9545865270565074  0.4260136955697305  0.8502393881727661  1.0000
  H   H341      1.0  0.9088395075510803  0.4310431902621911  0.8611403907370236  1.0000
  H   H342      1.0  0.9013133467441539  0.3808527586298181  0.8460194870528118  1.0000
  H   H343      1.0  0.91703708562026  0.37664144286040474  0.7862158230942826  1.0000
  H   H344      1.0  0.970636982417696  0.4192499727756169  0.792913885782227  1.0000
  H   H345      1.0  0.9406992941209116  0.4251128324738015  0.7604019022795301  1.0000
  H   H346      1.0  0.8556324939083279  0.3837704720916002  0.801690023948809  1.0000
  H   H347      1.0  0.8760537946348183  0.43104912997681005  0.7749275150204182  1.0000
  H   H348      1.0  0.8628672986248929  0.4336574808047071  0.8173335647760444  1.0000
  N   N22       1.0  0.6975356718762621  0.12438240561074008  0.5619278337562136  1.0000
  C   C229      1.0  0.6893350168958907  0.09267273103808263  0.5892974527049218  1.0000
  C   C230      1.0  0.6777984610224386  0.10096783573407857  0.5319092147901521  1.0000
  C   C231      1.0  0.744357772169365  0.1527031996721302  0.5559547490870518  1.0000
  C   C232      1.0  0.6786067679293063  0.15123908085502624  0.5707075538304225  1.0000
  H   H349      1.0  0.703136353738075  0.10924642489541443  0.6125351146221538  1.0000
  H   H350      1.0  0.7037630530951653  0.0723051483201037  0.5837230286712786  1.0000
  H   H351      1.0  0.6542995456418257  0.0703358105291717  0.5941696353917301  1.0000
  H   H352      1.0  0.6833903580325257  0.12378228236157733  0.5106567387546275  1.0000
  H   H353      1.0  0.690768511551068  0.07980109961441315  0.5247412564000482  1.0000
  H   H354      1.0  0.6423741877252291  0.07969974570488025  0.5357025073038335  1.0000
  H   H355      1.0  0.7517976370449315  0.1773552294448086  0.53568023298565  1.0000
  H   H356      1.0  0.7598458500767588  0.1336414459135755  0.5492275008270572  1.0000
  H   H357      1.0  0.7599164810494384  0.1705568556148718  0.5784079674853149  1.0000
  H   H358      1.0  0.6830252643376534  0.1747361668082965  0.5503178672804482  1.0000
  H   H359      1.0  0.6933323673462701  0.1701124446204147  0.5928243107558703  1.0000
  H   H360      1.0  0.6436111605318944  0.13090429364367484  0.5763780228369496  1.0000
  N   N23       1.0  0.6927754259338235  0.1267890653975375  0.049185013851962285  1.0000
  C   C233      1.0  0.7103274791902778  0.1404883913063073  0.015012915836073224  1.0000
  C   C234      1.0  0.727807692820968  0.1346318867052177  0.07129567351580185  1.0000
  C   C235      1.0  0.6602382250539197  0.08005853454509468  0.05073631567159959  1.0000
  C   C236      1.0  0.6726893311003398  0.15201711690627046  0.05965778059373319  1.0000
  H   H361      1.0  0.6846022676058026  0.1351813222079304  0.9978100353284142  1.0000
  H   H362      1.0  0.7254697023446904  0.12189654846569627  0.006188377049336724  1.0000
  H   H363      1.0  0.7351320786308878  0.17556998880140812  0.01302495919934854  1.0000
  H   H364      1.0  0.7155005313865664  0.1239586672156484  0.09721098679660158  1.0000
  H   H365      1.0  0.7443301539051699  0.11681572134634455  0.0638885940294205  1.0000
  H   H366      1.0  0.7523916215298918  0.16975754035916263  0.07159299643231723  1.0000
  H   H367      1.0  0.6742365775925364  0.05986093109510019  0.04340168058989445  1.0000
  H   H368      1.0  0.6334805459257334  0.07287738746740706  0.0341430341059108  1.0000
  H   H369      1.0  0.6457869308686206  0.06875432413431504  0.07607245270695723  1.0000
  H   H370      1.0  0.6455186861524893  0.14634782106565541  0.0439437649211548  1.0000
  H   H371      1.0  0.6961963322734915  0.1874528649212036  0.05879478498515182  1.0000
  H   H372      1.0  0.6593781382107149  0.1428086039419454  0.08538273552077807  1.0000
  N   N24       1.0  0.7427696521249678  0.3630338431596282  0.6871824819793787  1.0000
  C   C237      1.0  0.7891007780503462  0.39321496683030366  0.680427170668927  1.0000
  C   C238      1.0  0.7279823715023973  0.32544467499133223  0.6660729350537001  1.0000
  C   C239      1.0  0.7187623945152825  0.3856552341143461  0.6801462343171665  1.0000
  C   C240      1.0  0.7353350490455655  0.3478120364362305  0.7221830443987343  1.0000
  H   H373      1.0  0.7958738128791681  0.40724801937022614  0.6546916002643489  1.0000
  H   H374      1.0  0.8078912232106218  0.3766353396621476  0.6839913301923193  1.0000
  H   H375      1.0  0.801837834794238  0.4207472775579444  0.6971214461968573  1.0000
  H   H376      1.0  0.7451019688095669  0.3073292547987967  0.6711603325029597  1.0000
  H   H377      1.0  0.6930410273210275  0.3020744150565656  0.6704517096806406  1.0000
  H   H378      1.0  0.733547883913014  0.3357754317640121  0.6395072221209545  1.0000
  H   H379      1.0  0.7274670610847205  0.41269595635703  0.69694702316032  1.0000
  H   H380      1.0  0.6835401707139224  0.3632793157446741  0.6834197023552729  1.0000
  H   H381      1.0  0.7255194701415315  0.39987193854680275  0.6545052314131256  1.0000
  H   H382      1.0  0.7006639121346098  0.32483884467331164  0.7281210978485957  1.0000
  H   H383      1.0  0.7459596611582238  0.37530086795134304  0.7388304489307588  1.0000
  H   H384      1.0  0.7530839863710023  0.3306945708201971  0.7283484170466951  1.0000
