data_image0
_chemical_formula_structural       FeS2FeS2FeSFeS3FeS2FeS2FeSFeS3FeS2FeS2FeSFeS3FeS2FeS2FeSFeS3FeS2FeS2FeSFeS3FeS2FeS2FeSFeS3FeS2FeS2FeSFeS3FeS2FeS2FeSFeS3FeS2FeS2FeSFeS3FeS2FeS2FeSFeS3FeS2FeS2FeSFeS3FeS2FeS2FeSFeS3FeS2FeS2FeSFeS3FeS2FeS2FeSFeS3FeS2FeS2FeSFeS3FeS2FeS2FeSFeS3FeS2FeS2FeSFeS3FeS2FeS2FeSFeS3FeS2FeS2FeSFeS3FeS2FeS2FeSFeS3FeS2FeS2FeSFeS3FeS2FeS2FeSFeS3FeS2FeS2FeSFeS3FeS2FeS2FeSFeS3C6H4C6H4C6H4C6H4C6H4C6H4C6H4C6H4C6H4C6H4C6H4C6H4C6H4C6H4C6H4C6H4C6H4C6H4C6H4C6H4C6H4C6H4C6H4C6H4C6H4C6H4C6H4C6H4C6H4C6H4C6H4C6H4C6H4C6H4C6H4C6H4C6H4C6H4C6H4C6H4C6H4C6H4C6H4C6H4C6H4C6H4C6H4C6H4NC4H12NC4H12NC4H12NC4H12NC4H12NC4H12NC4H12NC4H12NC4H12NC4H12NC4H12NC4H12NC4H12NC4H12NC4H12NC4H12NC4H12NC4H12NC4H12NC4H12NC4H12NC4H12NC4H12NC4H12NC4H12NC4H12NC4H12NC4H12NC4H12NC4H12NC4H12NC4H12NC4H12NC4H12NC4H12NC4H12NC4H12NC4H12NC4H12NC4H12NC4H12NC4H12NC4H12NC4H12NC4H12NC4H12NC4H12NC4H12
_chemical_formula_sum              "Fe96 S192 C480 H768 N48"
_cell_length_a       67.41415076226944
_cell_length_b       73.95553392144498
_cell_length_c       33.95076676762663
_cell_angle_alpha    84.83890223170133
_cell_angle_beta     78.78688212962098
_cell_angle_gamma    110.79904002094307

_space_group_name_H-M_alt    "P 1"
_space_group_IT_number       1

loop_
  _space_group_symop_operation_xyz
  'x, y, z'

loop_
  _atom_site_type_symbol
  _atom_site_label
  _atom_site_symmetry_multiplicity
  _atom_site_fract_x
  _atom_site_fract_y
  _atom_site_fract_z
  _atom_site_occupancy
  Fe  Fe1       1.0  0.7488300150515169  0.5411716504284294  0.5902277978459135  1.0000
  S   S1        1.0  0.7351996682052089  0.5170035481410515  0.6449341714605014  1.0000
  S   S2        1.0  0.7842511694019597  0.5610845098242249  0.5691495278568988  1.0000
  Fe  Fe2       1.0  0.7061050921878506  0.5298407690137678  0.5638779787017472  1.0000
  S   S3        1.0  0.6893152218895084  0.5047152836871732  0.6159405903234432  1.0000
  S   S4        1.0  0.6888934503074693  0.5378348274050645  0.5182666208354197  1.0000
  Fe  Fe3       1.0  0.706030122244195  0.5256049917351827  0.6538447527903269  1.0000
  S   S5        1.0  0.6837009881535444  0.5247588350685538  0.713312048332637  1.0000
  Fe  Fe4       1.0  0.7196790353308382  0.49858846500271475  0.6018714998563287  1.0000
  S   S6        1.0  0.7155697077816165  0.4671748891498231  0.6014060447416296  1.0000
  S   S7        1.0  0.720941875510409  0.5514246825332351  0.6027095436423501  1.0000
  S   S8        1.0  0.7354659007441811  0.522003631605198  0.5463822674053466  1.0000
  Fe  Fe5       1.0  0.6056174930465755  0.19971947315834887  0.533514780738639  1.0000
  S   S9        1.0  0.6411679711840996  0.21270836973360382  0.5013311020543684  1.0000
  S   S10       1.0  0.591904435021684  0.1685163787629647  0.5660551296221319  1.0000
  Fe  Fe6       1.0  0.5970854773627755  0.23518325321439057  0.5023269230159038  1.0000
  S   S11       1.0  0.6318208109604966  0.25119213611570845  0.4666820325802248  1.0000
  S   S12       1.0  0.5724441734020969  0.24942426146077604  0.50812048751213  1.0000
  Fe  Fe7       1.0  0.6295474760531018  0.22224857813343488  0.4489570344862552  1.0000
  S   S13       1.0  0.6453654957446749  0.22155883817291105  0.385051393798956  1.0000
  Fe  Fe8       1.0  0.6402626838987109  0.24039947347576954  0.521951149335028  1.0000
  S   S14       1.0  0.6685148995312704  0.2613342036706195  0.5405767737018223  1.0000
  S   S15       1.0  0.5938186354421163  0.20701577989822742  0.4790699424286351  1.0000
  S   S16       1.0  0.6058121614650054  0.22656522308943428  0.5597126510485382  1.0000
  Fe  Fe9       1.0  0.5775280560371965  0.3748250662857611  0.5267825542684791  1.0000
  S   S17       1.0  0.5811513699275818  0.3498454942613048  0.5631989892229505  1.0000
  S   S18       1.0  0.5450252386302934  0.36828970050296916  0.5116832716430096  1.0000
  Fe  Fe10      1.0  0.6242407908978412  0.40256348055442315  0.5199408629691904  1.0000
  S   S19       1.0  0.6318929697762574  0.37988646996047715  0.555201504230608  1.0000
  S   S20       1.0  0.6476489187785128  0.4336600334271014  0.49570850192721966  1.0000
  Fe  Fe11      1.0  0.6136015172085585  0.3593347311654381  0.5183292199231225  1.0000
  S   S21       1.0  0.627916493640722  0.33995683695735707  0.48611666258653197  1.0000
  Fe  Fe12      1.0  0.5989149364129319  0.3728970386823429  0.5962917219383085  1.0000
  S   S22       1.0  0.5949845902168943  0.3709217983793938  0.6635673350035891  1.0000
  S   S23       1.0  0.6086734386514976  0.3826696014778198  0.4791622413154584  1.0000
  S   S24       1.0  0.5924380375005841  0.3971302634739809  0.563850209660471  1.0000
  Fe  Fe13      1.0  0.8909821176235422  0.5277780155035617  0.557803495472812  1.0000
  S   S25       1.0  0.8996063301432041  0.5458758460975293  0.605971246008438  1.0000
  S   S26       1.0  0.9008334981708037  0.5397806424688986  0.49088211251794356  1.0000
  Fe  Fe14      1.0  0.8651337699295467  0.49042881800663524  0.6188065134444247  1.0000
  S   S27       1.0  0.8719347951077132  0.5047431261216963  0.6727380828608823  1.0000
  S   S28       1.0  0.8435642387438971  0.45920644931146654  0.6216532673958509  1.0000
  Fe  Fe15      1.0  0.8648300147615813  0.5287741127695486  0.6406742521993444  1.0000
  S   S29       1.0  0.8414625904155526  0.5397115398354845  0.6775211001784532  1.0000
  Fe  Fe16      1.0  0.9060007616638881  0.5203179022519506  0.6334874675646103  1.0000
  S   S30       1.0  0.9382701677540132  0.5272480687398163  0.6500417741050981  1.0000
  S   S31       1.0  0.8555395365239811  0.5132076396176269  0.5895241015677777  1.0000
  S   S32       1.0  0.8998667748776753  0.5033709695408795  0.5825354113592701  1.0000
  Fe  Fe17      1.0  0.9007298991932647  0.35769836970942986  0.6524592616500358  1.0000
  S   S33       1.0  0.8822166414433107  0.346842842008447  0.6055834649063463  1.0000
  S   S34       1.0  0.9282894564560438  0.348417735318985  0.6590880472629023  1.0000
  Fe  Fe18      1.0  0.8721653220610353  0.37939132180418694  0.6842576958434503  1.0000
  S   S35       1.0  0.8508096184418551  0.3703594977771703  0.640650111580307  1.0000
  S   S36       1.0  0.8723520518592686  0.40203732556495153  0.7238224582566455  1.0000
  Fe  Fe19      1.0  0.8524013315012475  0.3408054784839662  0.6556759732778445  1.0000
  S   S37       1.0  0.8232873945150091  0.3121643932403538  0.670683815429525  1.0000
  Fe  Fe20      1.0  0.8823096950884661  0.3771695750384982  0.5948855196481951  1.0000
  S   S38       1.0  0.8906688894286896  0.3958118128698556  0.5338929684019453  1.0000
  S   S39       1.0  0.8710313793681719  0.34923667609144127  0.7038231494809638  1.0000
  S   S40       1.0  0.9036135200193983  0.3886301365650961  0.6371806012440895  1.0000
  Fe  Fe21      1.0  0.7340236351941682  0.210209714453691  0.586215313237115  1.0000
  S   S41       1.0  0.747302312667119  0.23175688247421544  0.5278886481280936  1.0000
  S   S42       1.0  0.7030416576738432  0.20581437892446483  0.6310824647404004  1.0000
  Fe  Fe22      1.0  0.7670921280233444  0.19194447297308742  0.5658612339428237  1.0000
  S   S43       1.0  0.7834142027894122  0.21143386864749905  0.5044389629443509  1.0000
  S   S44       1.0  0.7746937879204997  0.16807427922122506  0.5974380877870025  1.0000
  Fe  Fe23      1.0  0.7802043032694611  0.23543038772585773  0.538690822424496  1.0000
  S   S45       1.0  0.8071836896933208  0.2655678732875779  0.5247909136007476  1.0000
  Fe  Fe24      1.0  0.7491716675571847  0.20631511956068946  0.49864835652641315  1.0000
  S   S46       1.0  0.7321890602739657  0.2009792940271237  0.4473911865158557  1.0000
  S   S47       1.0  0.766509923108807  0.2162254952709955  0.6003413719197294  1.0000
  S   S48       1.0  0.7334321018961938  0.18449120322374912  0.5561480238538237  1.0000
  Fe  Fe25      1.0  0.5790681552452818  0.4828616061092426  0.47758621667163287  1.0000
  S   S49       1.0  0.5864168116673576  0.48080769785976735  0.41123860670478246  1.0000
  S   S50       1.0  0.5965525125271351  0.47425732246413166  0.5208534697148198  1.0000
  Fe  Fe26      1.0  0.5393616620749113  0.4924735534924665  0.47539993887280285  1.0000
  S   S51       1.0  0.5425987659374977  0.4909418583279111  0.40905731968866776  1.0000
  S   S52       1.0  0.5121135751584512  0.49947897246458917  0.5109690290015335  1.0000
  Fe  Fe27      1.0  0.5502653464833395  0.46439318791162243  0.42318083629113534  1.0000
  S   S53       1.0  0.5348440266044464  0.43623201646319815  0.40177225442032743  1.0000
  Fe  Fe28      1.0  0.5782915377682182  0.507624694079539  0.40296335308768017  1.0000
  S   S54       1.0  0.5949773925530307  0.53204452371902  0.3493271069341924  1.0000
  S   S55       1.0  0.5434453718443355  0.4641871285276835  0.49023758925389277  1.0000
  S   S56       1.0  0.5745555585426027  0.5114212604597088  0.4685959854354542  1.0000
  Fe  Fe29      1.0  0.4925526062202644  0.5472024158259781  0.25968145595415765  1.0000
  S   S57       1.0  0.48869795839420477  0.5701204584738674  0.21755082509919973  1.0000
  S   S58       1.0  0.4823327435717432  0.5156854417298629  0.25255441932760386  1.0000
  Fe  Fe30      1.0  0.5176896429773906  0.5766446172773222  0.30636470634051116  1.0000
  S   S59       1.0  0.5160303188414977  0.6022893953291668  0.2686775071762533  1.0000
  S   S60       1.0  0.5334010040619227  0.5794362805987643  0.35915886438083694  1.0000
  Fe  Fe31      1.0  0.48136823953258834  0.5823546125658214  0.2739123586470689  1.0000
  S   S61       1.0  0.4539325254370587  0.5927748781212505  0.2860093422857908  1.0000
  Fe  Fe32      1.0  0.5236149881467835  0.587678106785537  0.21592906803835896  1.0000
  S   S62       1.0  0.547544620595771  0.603700880203736  0.15671921987379736  1.0000
  S   S63       1.0  0.4821065946657568  0.5578212057781503  0.31664491361906133  1.0000
  S   S64       1.0  0.5282470870123914  0.5637055135602567  0.25305031191635347  1.0000
  Fe  Fe33      1.0  0.9768873180956564  0.491841875602686  0.41885516568892667  1.0000
  S   S65       1.0  0.9960465169729855  0.47407928097325386  0.3961308804791708  1.0000
  S   S66       1.0  0.9482714239607675  0.4917040230459875  0.39457919786887036  1.0000
  Fe  Fe34      1.0  0.007215754279514375  0.5106129609355944  0.4711733464975841  1.0000
  S   S67       1.0  0.029648151167078855  0.49485724854241664  0.4529759490320974  1.0000
  S   S68       1.0  0.009242599117031833  0.5296332707858921  0.5187371776699125  1.0000
  Fe  Fe35      1.0  0.02522450207864435  0.5016336010188654  0.3902062878227213  1.0000
  S   S69       1.0  0.04990695238564902  0.5100483563269622  0.33050914942288034  1.0000
  Fe  Fe36      1.0  0.9985107564420115  0.46882643442084226  0.46065705010051294  1.0000
  S   S70       1.0  0.9923991682801703  0.4394623636888265  0.49537575934056516  1.0000
  S   S71       1.0  0.005870693425864548  0.5200677474868297  0.40779676842548535  1.0000
  S   S72       1.0  0.9763663786486747  0.4839331771386666  0.4843109677321957  1.0000
  Fe  Fe37      1.0  0.11797713649261797  0.5824616115614178  0.14545735407193897  1.0000
  S   S73       1.0  0.10524225436680205  0.6054602923069139  0.16220435920014548  1.0000
  S   S74       1.0  0.09449554872907422  0.555945437981954  0.12921217203134372  1.0000
  Fe  Fe38      1.0  0.1610874369745983  0.6029192929175707  0.16626285683266853  1.0000
  S   S75       1.0  0.15236084888610868  0.6280071701119694  0.18524282648320678  1.0000
  S   S76       1.0  0.19217254154023564  0.5990985089682805  0.16998778236500064  1.0000
  Fe  Fe39      1.0  0.11956581969145481  0.6045711329370328  0.21600031598074573  1.0000
  S   S77       1.0  0.09981588503640727  0.6013829308556448  0.279150320713564  1.0000
  Fe  Fe40      1.0  0.13885573097598913  0.6265370640361014  0.1296449972028147  1.0000
  S   S78       1.0  0.1418897406202384  0.6523469178768625  0.08609502165146311  1.0000
  S   S79       1.0  0.12970394087102233  0.5796995931595327  0.2019210900726411  1.0000
  S   S80       1.0  0.1505762646549849  0.6036098542067853  0.10769771464865048  1.0000
  Fe  Fe41      1.0  0.561846860313488  0.9483640768356368  0.21268890573198845  1.0000
  S   S81       1.0  0.5578937562651443  0.9460480205600066  0.14920259393949734  1.0000
  S   S82       1.0  0.5739791159765323  0.9283267275585595  0.24512710013847366  1.0000
  Fe  Fe42      1.0  0.552322570807691  0.9850159309213151  0.21501853711209867  1.0000
  S   S83       1.0  0.5471945637027842  0.986158970248988  0.15147061415924326  1.0000
  S   S84       1.0  0.5484603836173466  0.006626787065560418  0.25625731078072084  1.0000
  Fe  Fe43      1.0  0.5285379287192188  0.953508665723542  0.1689567656907972  1.0000
  S   S85       1.0  0.49964532945800705  0.9397069242543595  0.14211677270223722  1.0000
  Fe  Fe44      1.0  0.5767695743483618  0.9784757251095404  0.13601041587126486  1.0000
  S   S86       1.0  0.6027664611872573  0.9891781550839651  0.07745791898513722  1.0000
  S   S87       1.0  0.5306342858608237  0.952904835694566  0.2343896369372292  1.0000
  S   S88       1.0  0.583639824559396  0.9801247863270238  0.197724346741742  1.0000
  Fe  Fe45      1.0  0.6275993480293528  0.11409157434634583  0.37602923558443696  1.0000
  S   S89       1.0  0.6538512122517611  0.10322803499463348  0.3517713411101071  1.0000
  S   S90       1.0  0.6218933720335194  0.13712179545631673  0.3372555317316901  1.0000
  Fe  Fe46      1.0  0.6100172217465135  0.08445980058411014  0.4543752994329968  1.0000
  S   S91       1.0  0.6344051140478526  0.07061927697468262  0.43580070965941475  1.0000
  S   S92       1.0  0.5885349378979561  0.08006432854369586  0.5170425947883922  1.0000
  Fe  Fe47      1.0  0.6586133912089375  0.10168067766469673  0.4154000353944724  1.0000
  S   S93       1.0  0.6902977909302322  0.11104299706413444  0.43508917878742315  1.0000
  Fe  Fe48      1.0  0.6271694469312135  0.07325943958784358  0.3741876220466981  1.0000
  S   S94       1.0  0.6272140051966228  0.05094515878183244  0.33270164765301286  1.0000
  S   S95       1.0  0.634728303113983  0.11525516004771029  0.4374615188043307  1.0000
  S   S96       1.0  0.6004424728759158  0.08430900124435026  0.39459732975246276  1.0000
  Fe  Fe49      1.0  0.5635780929330374  0.9617575122286565  0.8952400438961396  1.0000
  S   S97       1.0  0.596854147003759  0.9787569405740505  0.8551967871601514  1.0000
  S   S98       1.0  0.5488034923756888  0.9751424368791883  0.943461373465047  1.0000
  Fe  Fe50      1.0  0.5582453569272742  0.9261131225113436  0.8559575390908594  1.0000
  S   S99       1.0  0.5912136292797119  0.9399111296868407  0.8116837909688404  1.0000
  S   S100      1.0  0.5355242215152539  0.8947569391062086  0.8629383951551487  1.0000
  Fe  Fe51      1.0  0.602849375272212  0.9511376615435011  0.8657147816950536  1.0000
  S   S101      1.0  0.6360773145693677  0.9549912458557605  0.8752572586980208  1.0000
  Fe  Fe52      1.0  0.5824495601197294  0.9663682094665834  0.8048877043219902  1.0000
  S   S102      1.0  0.5912536512231114  0.9879763771415893  0.747698149360973  1.0000
  S   S103      1.0  0.5706408227640762  0.9349937917372201  0.9106679098759886  1.0000
  S   S104      1.0  0.548391514562134  0.9517080731550664  0.8440210839272969  1.0000
  Fe  Fe53      1.0  0.6257672235756282  0.09266308556728722  0.7717989177779201  1.0000
  S   S105      1.0  0.6579304775358239  0.09378013136803336  0.735909020175169  1.0000
  S   S106      1.0  0.6013666088846605  0.06620022511900392  0.8161744795610926  1.0000
  Fe  Fe54      1.0  0.6331983009204412  0.1334457579259364  0.7328584766035211  1.0000
  S   S107      1.0  0.6659615500799883  0.13823867335435358  0.6935381133076519  1.0000
  S   S108      1.0  0.6225633817989373  0.1588377271977452  0.7281157895062186  1.0000
  Fe  Fe55      1.0  0.6496314973924817  0.1076801109028058  0.6835043310334034  1.0000
  S   S109      1.0  0.658670399112086  0.10071296021371445  0.6216661671316301  1.0000
  Fe  Fe56      1.0  0.6714326849812353  0.12415090616429973  0.74940388346539  1.0000
  S   S110      1.0  0.7039607938799899  0.1335264137990575  0.7653284305526373  1.0000
  S   S111      1.0  0.6161459314290751  0.10376248563480743  0.7178749906929512  1.0000
  S   S112      1.0  0.6399876326089615  0.12206759852756788  0.7902487693481762  1.0000
  Fe  Fe57      1.0  0.5674667919655948  0.4679046629314605  0.7049037187063093  1.0000
  S   S113      1.0  0.5611721645537223  0.4444554287927442  0.757528409718022  1.0000
  S   S114      1.0  0.5982101568793355  0.4840822009655119  0.6572752661506912  1.0000
  Fe  Fe58      1.0  0.5211302407773805  0.46600368664945363  0.7216487846608501  1.0000
  S   S115      1.0  0.5099346274045566  0.44239949660505434  0.7766243045086725  1.0000
  S   S116      1.0  0.4999406655520259  0.48082841732725545  0.7017287289090003  1.0000
  Fe  Fe59      1.0  0.5416117051234313  0.4598166409728381  0.7911735112878743  1.0000
  S   S117      1.0  0.5422825465695762  0.46551103605679606  0.8546531251137687  1.0000
  Fe  Fe60      1.0  0.5301871137068589  0.42887039411786154  0.7386913342919239  1.0000
  S   S118      1.0  0.5173970125102388  0.3974074955109403  0.7302358253627297  1.0000
  S   S119      1.0  0.5508100638459981  0.4847935682186145  0.7398197862243483  1.0000
  S   S120      1.0  0.5385772834209328  0.4509215409633121  0.6824323861250521  1.0000
  Fe  Fe61      1.0  0.5473400381671416  0.563531419342589  0.9646371766067471  1.0000
  S   S121      1.0  0.5408644306284023  0.549509950055487  0.9100019705499169  1.0000
  S   S122      1.0  0.5333013421236535  0.5468149906930894  0.028393601223294724  1.0000
  Fe  Fe62      1.0  0.57504662437221  0.6034260339071726  0.9153596745224901  1.0000
  S   S123      1.0  0.5717201654231863  0.5931921192950317  0.8561090308353771  1.0000
  S   S124      1.0  0.5958822150225134  0.634891474531216  0.9138141454891096  1.0000
  Fe  Fe63      1.0  0.5364683387309231  0.5768845475586687  0.887772392903178  1.0000
  S   S125      1.0  0.5126597809069672  0.5781779297767852  0.8508091505794628  1.0000
  Fe  Fe64      1.0  0.5766681064248808  0.566836054261675  0.8828604097042697  1.0000
  S   S126      1.0  0.5979183823404735  0.5549619977413632  0.8422983322479612  1.0000
  S   S127      1.0  0.5392356145012611  0.589326447082182  0.9451902911439256  1.0000
  S   S128      1.0  0.583569121489479  0.5786044285833555  0.9394243827277955  1.0000
  Fe  Fe65      1.0  0.00894191258887563  0.435914477994447  0.7292544024292053  1.0000
  S   S129      1.0  0.9988714629085571  0.4550837354750275  0.6897541167787239  1.0000
  S   S130      1.0  0.008432438697155833  0.4070566797498998  0.7131855729224774  1.0000
  Fe  Fe66      1.0  0.024861206327135066  0.46732102355298216  0.7816992307950767  1.0000
  S   S131      1.0  0.0158706664388971  0.48910796950449653  0.746071285876221  1.0000
  S   S132      1.0  0.04223460869771845  0.4727089120793378  0.8325733256468869  1.0000
  Fe  Fe67      1.0  0.9852457614470467  0.462946230959247  0.748273342909074  1.0000
  S   S133      1.0  0.9502137629390206  0.4599976198004364  0.7589059766042106  1.0000
  Fe  Fe68      1.0  0.03031226577786466  0.47875300642624957  0.6915513469302316  1.0000
  S   S134      1.0  0.054944678113192036  0.495955817735639  0.6340813597668424  1.0000
  S   S135      1.0  0.9930636144442567  0.44181261872536715  0.7882714220338006  1.0000
  S   S136      1.0  0.0415404373924666  0.45902058879982116  0.7267277061608807  1.0000
  Fe  Fe69      1.0  0.14021559562979272  0.5605556384858347  0.8549677089224685  1.0000
  S   S137      1.0  0.15414829747093967  0.5381996246281738  0.8703975986109034  1.0000
  S   S138      1.0  0.11588286755532536  0.5568044809259272  0.8160127118095329  1.0000
  Fe  Fe70      1.0  0.1655490107047926  0.5891218668031214  0.9036143425573925  1.0000
  S   S139      1.0  0.1810351395807743  0.5690926602525245  0.9246381248462001  1.0000
  S   S140      1.0  0.17328799167472544  0.6180908104144531  0.9255242807245142  1.0000
  Fe  Fe71      1.0  0.18599449172058966  0.5638286724428749  0.8601595400205801  1.0000
  S   S141      1.0  0.21714212749536713  0.5623326455084781  0.8251546258390493  1.0000
  Fe  Fe72      1.0  0.1481200626329592  0.5452613944645561  0.9331796581030511  1.0000
  S   S142      1.0  0.13362156975028958  0.5207726670243894  0.9864548573284724  1.0000
  S   S143      1.0  0.17292912408723762  0.5858370289589596  0.8380355733444071  1.0000
  S   S144      1.0  0.13169829050031953  0.5657188573189101  0.919127541530639  1.0000
  Fe  Fe73      1.0  0.5187310547295013  0.709678544151441  0.03189447758294815  1.0000
  S   S145      1.0  0.5318877259628925  0.6912227046630065  0.9939104355090831  1.0000
  S   S146      1.0  0.527707762568366  0.7414699629392585  0.005964365884126392  1.0000
  Fe  Fe74      1.0  0.4934953977199015  0.6756837394589982  0.10216675058568808  1.0000
  S   S147      1.0  0.5052465770666571  0.6545532837130258  0.07134390292353328  1.0000
  S   S148      1.0  0.4705428445585908  0.6688887253451061  0.16351858574559783  1.0000
  Fe  Fe75      1.0  0.5375968035871709  0.6797577211966367  0.05216504925368689  1.0000
  S   S149      1.0  0.5702898043905071  0.6790371133178232  0.05342245961160994  1.0000
  Fe  Fe76      1.0  0.4982499932200272  0.6679563367438115  0.016389332140204514  1.0000
  S   S150      1.0  0.4807705566171555  0.6471822243894748  0.9789829982574995  1.0000
  S   S151      1.0  0.5266842183484565  0.6995540032678522  0.08884758961156884  1.0000
  S   S152      1.0  0.48425400226508863  0.6874978853090676  0.048406544860682466  1.0000
  Fe  Fe77      1.0  0.23730850600084236  0.5385832277157312  0.05394956230788606  1.0000
  S   S153      1.0  0.24976758921728928  0.5241972982060531  0.005015728752683515  1.0000
  S   S154      1.0  0.20158105888925965  0.5330825575631492  0.07323410082975838  1.0000
  Fe  Fe78      1.0  0.28208156863472195  0.5596558774259235  0.06695640696051922  1.0000
  S   S155      1.0  0.2987702265469121  0.5468505667364983  0.02007865051087916  1.0000
  S   S156      1.0  0.3002719107176076  0.5799025413451364  0.10432197050956996  1.0000
  Fe  Fe79      1.0  0.2773437633587023  0.5533039371301788  0.9828248769699329  1.0000
  S   S157      1.0  0.2908897517850538  0.5646160878850518  0.9160071906857326  1.0000
  Fe  Fe80      1.0  0.2698455480664935  0.5188309552174535  0.046532278466078214  1.0000
  S   S158      1.0  0.2708784958481927  0.4888407815939882  0.05295105898086823  1.0000
  S   S159      1.0  0.2629442856834866  0.5685720008961749  0.02734962805849864  1.0000
  S   S160      1.0  0.25515241853179216  0.5308485954542841  0.097583520314222  1.0000
  Fe  Fe81      1.0  0.40675473068710594  0.5502845825981539  0.08650110203748679  1.0000
  S   S161      1.0  0.401928526551285  0.5228123792162477  0.12744247317982763  1.0000
  S   S162      1.0  0.40858158371366543  0.5779547741749061  0.1096896356861182  1.0000
  Fe  Fe82      1.0  0.4092161743909326  0.5328499167270924  0.010345394002513312  1.0000
  S   S163      1.0  0.40428780027121825  0.5035574224013805  0.04321882245062663  1.0000
  S   S164      1.0  0.4127961077594127  0.5390426357899394  0.9431033656323943  1.0000
  Fe  Fe83      1.0  0.3790039288325447  0.5079318930697201  0.09025192065073571  1.0000
  S   S165      1.0  0.3491476786675876  0.48111548720837904  0.11865641729625485  1.0000
  Fe  Fe84      1.0  0.4276162386119995  0.5203873255321452  0.07786967155159313  1.0000
  S   S166      1.0  0.4522266322231071  0.5078274471076643  0.088178348675624  1.0000
  S   S167      1.0  0.3812801578631221  0.5357013845841688  0.053722176337568116  1.0000
  S   S168      1.0  0.4350570092427807  0.5495334101285684  0.040531808632904  1.0000
  Fe  Fe85      1.0  0.44387440890330604  0.8141857848117526  0.05566589171627214  1.0000
  S   S169      1.0  0.4203503929794572  0.8055207968227873  0.1165399444739912  1.0000
  S   S170      1.0  0.46199895647445643  0.7946978084350234  0.03955713965836983  1.0000
  Fe  Fe86      1.0  0.43780441181888646  0.8526016835134062  0.03713365963790061  1.0000
  S   S171      1.0  0.4132077384265531  0.8467046968224728  0.09651183407929564  1.0000
  S   S172      1.0  0.4510954282602833  0.8825608909744804  0.9985771940770848  1.0000
  Fe  Fe87      1.0  0.43640999301366545  0.8369349418561599  0.12338477881863759  1.0000
  S   S173      1.0  0.4520146818476796  0.846934261290441  0.1745899275700782  1.0000
  Fe  Fe88      1.0  0.399741524990173  0.8159823975615462  0.08296237584201499  1.0000
  S   S174      1.0  0.3641156366455009  0.7963861607001192  0.09406972969933158  1.0000
  S   S175      1.0  0.46163867358486377  0.844677243857184  0.06495166720321136  1.0000
  S   S176      1.0  0.4225524187230424  0.8227219103659248  0.020994204566934238  1.0000
  Fe  Fe89      1.0  0.2635212698055804  0.7008217155421794  0.01430094818541594  1.0000
  S   S177      1.0  0.25603123655532095  0.668604556690414  0.019144822367173076  1.0000
  S   S178      1.0  0.23889196200633075  0.7145484074809179  0.02932902962131312  1.0000
  Fe  Fe90      1.0  0.31253747099018675  0.7119596831642038  0.9872447986595455  1.0000
  S   S179      1.0  0.3094508387653844  0.6805706208975362  0.9890243604137213  1.0000
  S   S180      1.0  0.3444987380753601  0.7382241142908479  0.967989429223006  1.0000
  Fe  Fe91      1.0  0.2812783029328719  0.6771604052735698  0.9599798546390717  1.0000
  S   S181      1.0  0.2745916381603442  0.6589625580039582  0.9107648144876759  1.0000
  Fe  Fe92      1.0  0.2844102616704582  0.6748398641037975  0.047649209424655004  1.0000
  S   S182      1.0  0.28090175687806646  0.6572118373290604  0.10740606030110356  1.0000
  S   S183      1.0  0.2866681481239946  0.7090857082211647  0.9526126179736432  1.0000
  S   S184      1.0  0.2896492331470242  0.7064139921385516  0.0482980547797871  1.0000
  Fe  Fe93      1.0  0.5942119873811663  0.8326898043940754  0.0665091478230082  1.0000
  S   S185      1.0  0.559400416075101  0.8299332303704153  0.07567210209701479  1.0000
  S   S186      1.0  0.5990715974893263  0.8042702155460025  0.07165566279535221  1.0000
  Fe  Fe94      1.0  0.6118423996658914  0.8769332211636269  0.05249795491897292  1.0000
  S   S187      1.0  0.5784776440499088  0.8777303772700138  0.06204240190079831  1.0000
  S   S188      1.0  0.6407211696180758  0.9055762938720343  0.032719232622132166  1.0000
  Fe  Fe95      1.0  0.5687555085712304  0.8531652634292851  0.11370482357566246  1.0000
  S   S189      1.0  0.5430598486090268  0.8520911454285296  0.16728075062300046  1.0000
  Fe  Fe96      1.0  0.5726175264117204  0.8546386331248439  0.022937308206037836  1.0000
  S   S190      1.0  0.5561388657050406  0.8582234142470121  0.9737139831437328  1.0000
  S   S191      1.0  0.6028682488260343  0.8543816927597511  0.10893812744681114  1.0000
  S   S192      1.0  0.6066049304090764  0.8553248174531711  0.009606958111820777  1.0000
  C   C1        1.0  0.48838273419318023  0.8105633572765081  0.013786279714589922  1.0000
  C   C2        1.0  0.49156299199620956  0.8288384845067062  0.9925461163846925  1.0000
  C   C3        1.0  0.512702131410158  0.8430580933241885  0.9777003869118108  1.0000
  C   C4        1.0  0.5305647289167806  0.839097605425661  0.9847628211965783  1.0000
  C   C5        1.0  0.5275183935584223  0.8204520946862608  0.0040541770986117324  1.0000
  C   C6        1.0  0.5063595690664688  0.8060573785359991  0.018322272335360875  1.0000
  H   H1        1.0  0.4776806151771427  0.8321831931197544  0.9883077936087745  1.0000
  H   H2        1.0  0.5151377507360037  0.8574114832474886  0.9624363905691952  1.0000
  H   H3        1.0  0.5414248072710404  0.8171589619522168  0.008310035409425178  1.0000
  H   H4        1.0  0.5039408558168681  0.7918260624042712  0.034390933488372195  1.0000
  C   C7        1.0  0.35882816030223125  0.7803221022568296  0.0589334534433259  1.0000
  C   C8        1.0  0.3678741080940436  0.7870802727866949  0.017108088454153014  1.0000
  C   C9        1.0  0.3632910949806258  0.7740672083912753  0.9893558005316028  1.0000
  C   C10       1.0  0.34974559933788857  0.7542537560913807  0.0033202923754145353  1.0000
  C   C11       1.0  0.34075862546737296  0.7475036517571879  0.04512964887200566  1.0000
  C   C12       1.0  0.34505802053548534  0.7605636869799932  0.0728256669275662  1.0000
  H   H5        1.0  0.37815845702121353  0.8024080391238998  0.006102770069665198  1.0000
  H   H6        1.0  0.3702404913421762  0.7793981551021377  0.9570075348552083  1.0000
  H   H7        1.0  0.33085239591677396  0.7321522978527425  0.056319044934736384  1.0000
  H   H8        1.0  0.33809281819305914  0.7552730617225218  0.10518512565523629  1.0000
  C   C13       1.0  0.29392027066593834  0.60092746042801  0.10433391057296192  1.0000
  C   C14       1.0  0.292823537223761  0.6109854262474568  0.06829784928988449  1.0000
  C   C15       1.0  0.2888216294223358  0.6283881673654341  0.06873817380988356  1.0000
  C   C16       1.0  0.2856773744972097  0.6355042165627504  0.10534494362512237  1.0000
  C   C17       1.0  0.2863922287892063  0.6252321888309131  0.1413264139798236  1.0000
  C   C18       1.0  0.29069027783530965  0.6080843049249933  0.14076398364788734  1.0000
  H   H9        1.0  0.295782432105524  0.6057123635544981  0.03992415263104339  1.0000
  H   H10       1.0  0.2884239257040491  0.636382819541023  0.04081806603647142  1.0000
  H   H11       1.0  0.2838648641737419  0.6306659772845683  0.1696692831549822  1.0000
  H   H12       1.0  0.2912780324173525  0.6002593273317417  0.16872504196064786  1.0000
  C   C19       1.0  0.2916820252411493  0.4868130808811661  0.07467119147402661  1.0000
  C   C20       1.0  0.2934706731330351  0.4685617518329472  0.08082809699930432  1.0000
  C   C21       1.0  0.3107356158497514  0.4667615166507232  0.09582038246208718  1.0000
  C   C22       1.0  0.3264931580795378  0.48329189912922127  0.10395543830691753  1.0000
  C   C23       1.0  0.32459059407409735  0.5015545217450428  0.09836761698085282  1.0000
  C   C24       1.0  0.3070763094154982  0.5033001149886641  0.08394971831651833  1.0000
  H   H13       1.0  0.2815513555510879  0.4558060984000817  0.07373175255661538  1.0000
  H   H14       1.0  0.3121541792303276  0.4526369713974711  0.10014712599586185  1.0000
  H   H15       1.0  0.3364811449570513  0.5142659348948925  0.10554074002874839  1.0000
  H   H16       1.0  0.30556160664002613  0.5173729062114523  0.07979014848148863  1.0000
  C   C25       1.0  0.5460496613769475  0.7591452573255169  0.02682433932868928  1.0000
  C   C26       1.0  0.5527402335985957  0.7537029802490004  0.06094228273707864  1.0000
  C   C27       1.0  0.5688334372252593  0.7676365109616473  0.07498745072650778  1.0000
  C   C28       1.0  0.5780647239015958  0.7872048895874703  0.055362817803730924  1.0000
  C   C29       1.0  0.5707992136676135  0.7929182500851739  0.022241321438002778  1.0000
  C   C30       1.0  0.5548875514405028  0.7788704790815815  0.007859748751551173  1.0000
  H   H17       1.0  0.5455522137998723  0.7388157790322296  0.07668239522716688  1.0000
  H   H18       1.0  0.5740768099964116  0.7632838970280289  0.10118197900800874  1.0000
  H   H19       1.0  0.5778032270667162  0.8080815479556388  0.007106901569855097  1.0000
  H   H20       1.0  0.5496123194858011  0.7832575190662594  0.981727451657379  1.0000
  C   C31       1.0  0.45827455634682623  0.6289246575260372  0.01352731593127571  1.0000
  C   C32       1.0  0.4526593596860077  0.6314403181320345  0.053989715123661006  1.0000
  C   C33       1.0  0.43676964652301986  0.6159500257162777  0.0832212956946556  1.0000
  C   C34       1.0  0.42629910282030603  0.5979246088632021  0.07198934339480467  1.0000
  C   C35       1.0  0.4309649958925189  0.595690609810753  0.031118057599579165  1.0000
  C   C36       1.0  0.44704737343227885  0.611179746462081  0.00185818560277609  1.0000
  H   H21       1.0  0.46084260006780914  0.6451996016556751  0.06317174332943248  1.0000
  H   H22       1.0  0.4331831136904887  0.6178006237757804  0.11476378047147691  1.0000
  H   H23       1.0  0.42237912160001156  0.5819771041552063  0.02202682304506166  1.0000
  H   H24       1.0  0.45112748901636196  0.6092063314641589  0.9705335852327165  1.0000
  C   C37       1.0  0.2016173413374811  0.631370881380326  0.9160558745828116  1.0000
  C   C38       1.0  0.20960928520501196  0.6477852400940726  0.9345933857029926  1.0000
  C   C39       1.0  0.23215706255978333  0.6569134027287633  0.9315913581980707  1.0000
  C   C40       1.0  0.24679327722026495  0.649853507297678  0.9094850237947814  1.0000
  C   C41       1.0  0.2388638431313484  0.6342313207766772  0.8888198069879236  1.0000
  C   C42       1.0  0.2163159153105113  0.6247996670349082  0.8926628013488092  1.0000
  H   H25       1.0  0.19831161761804397  0.6530540559727036  0.9524374242662546  1.0000
  H   H26       1.0  0.2381266999216576  0.6693146597610574  0.9466897509894056  1.0000
  H   H27       1.0  0.2499569921219608  0.6289225195474216  0.8707894778369045  1.0000
  H   H28       1.0  0.21029185438945405  0.6123266808259313  0.8777372696064732  1.0000
  C   C43       1.0  0.23682561315719905  0.5617959427925026  0.8517815474906445  1.0000
  C   C44       1.0  0.23266315771462787  0.5602683064958212  0.8942465975426359  1.0000
  C   C45       1.0  0.2490101711667324  0.5604298308395016  0.9144376205366722  1.0000
  C   C46       1.0  0.26958092435925946  0.5622418771072049  0.8920227031676335  1.0000
  C   C47       1.0  0.2735919737614238  0.5633497609416238  0.8497679246739104  1.0000
  C   C48       1.0  0.25724571270216656  0.5631202148104857  0.8296992426514682  1.0000
  H   H29       1.0  0.21693178913096473  0.5589842898981452  0.9114902159425283  1.0000
  H   H30       1.0  0.2458526858142502  0.5595820348817934  0.947155503627652  1.0000
  H   H31       1.0  0.28939401157601136  0.5644964032865235  0.8324516659766891  1.0000
  H   H32       1.0  0.2604556997424108  0.5641028510570979  0.7969056742388885  1.0000
  C   C49       1.0  0.0610056811279979  0.49654956528980093  0.8318937671742922  1.0000
  C   C50       1.0  0.06047579888877061  0.5130157308485588  0.8090908521275519  1.0000
  C   C51       1.0  0.0767778217952352  0.5316678034497593  0.8063085981185346  1.0000
  C   C52       1.0  0.09384596578593019  0.533911327955155  0.8257510544910391  1.0000
  C   C53       1.0  0.09385530901880978  0.517584327715856  0.8499759946964921  1.0000
  C   C54       1.0  0.07740976565458602  0.49896883333693864  0.8531592497836515  1.0000
  H   H33       1.0  0.047596350241901765  0.5113735015389406  0.7934351716146464  1.0000
  H   H34       1.0  0.0764459906573261  0.5443505055296043  0.7883083611841439  1.0000
  H   H35       1.0  0.10679235330800585  0.5191804783745689  0.8654765400740821  1.0000
  H   H36       1.0  0.07775483168166944  0.48631267109982174  0.8712410656484931  1.0000
  C   C55       1.0  0.48505588391333837  0.5665617730976698  0.8766958043411337  1.0000
  C   C56       1.0  0.46907734794693323  0.5678994374355358  0.8570778253497536  1.0000
  C   C57       1.0  0.44688930012899913  0.5591320119510749  0.8773904778554352  1.0000
  C   C58       1.0  0.44060610498579883  0.5490093792600796  0.9174178491213669  1.0000
  C   C59       1.0  0.45658964618093184  0.5472568853607211  0.936717190749062  1.0000
  C   C60       1.0  0.4788491225393727  0.5561469235845139  0.9164629839017397  1.0000
  H   H37       1.0  0.473852058489327  0.5758494730494403  0.8262130032841601  1.0000
  H   H38       1.0  0.4346148059658079  0.5604233912610262  0.8622597842972847  1.0000
  H   H39       1.0  0.4518292703925977  0.5388244170656069  0.9670321995002334  1.0000
  H   H40       1.0  0.49113564305341695  0.5548475944017284  0.9315787083512423  1.0000
  C   C61       1.0  0.5882959433749647  0.645570662063999  0.9552973155645113  1.0000
  C   C62       1.0  0.6045746680341985  0.6605307429501436  0.9666674539706981  1.0000
  C   C63       1.0  0.59899943351021  0.6701524312159447  0.9981337517579609  1.0000
  C   C64       1.0  0.5770389829705769  0.6654343976270916  0.01713829327093811  1.0000
  C   C65       1.0  0.5606475944081757  0.6504748648192215  0.005890520274378233  1.0000
  C   C66       1.0  0.5663189268165759  0.6402498785823315  0.9755213004545369  1.0000
  H   H41       1.0  0.6215673511911057  0.6646033429746746  0.9511797962806021  1.0000
  H   H42       1.0  0.6117205078543272  0.6815284432677196  0.007020685841573171  1.0000
  H   H43       1.0  0.5436496188221532  0.646708339292515  0.020713238393946915  1.0000
  H   H44       1.0  0.5537029665263329  0.6286307398728399  0.967164259703211  1.0000
  C   C67       1.0  0.5605004498467969  0.48936807055381537  0.8537560044197657  1.0000
  C   C68       1.0  0.5769764940965365  0.4997285837955892  0.8186615941969105  1.0000
  C   C69       1.0  0.5892186195502138  0.519782466126733  0.8158197112053586  1.0000
  C   C70       1.0  0.5850285932206166  0.5294203082037191  0.8481976823466856  1.0000
  C   C71       1.0  0.5695349459772914  0.518763080574482  0.8842367574324052  1.0000
  C   C72       1.0  0.5572825175561558  0.49872619333676427  0.8870416194608219  1.0000
  H   H45       1.0  0.5799885214285756  0.4923777334793089  0.7933929808680448  1.0000
  H   H46       1.0  0.6012331993405029  0.5278911823197806  0.7879090403165214  1.0000
  H   H47       1.0  0.5668352685355995  0.525981688180523  0.9098934820421248  1.0000
  H   H48       1.0  0.544798441352563  0.49064534337767524  0.9144929166742659  1.0000
  C   C73       1.0  0.6391760452387778  0.9194748897674673  0.9894047668239903  1.0000
  C   C74       1.0  0.6193254372459517  0.9153388707309161  0.9782092392455692  1.0000
  C   C75       1.0  0.6180707102464936  0.9266837682493447  0.9441655982841012  1.0000
  C   C76       1.0  0.6368704103956987  0.9417944255784052  0.9201384597958827  1.0000
  C   C77       1.0  0.6567839574166116  0.9459921232314344  0.9312079678241364  1.0000
  C   C78       1.0  0.6578728256393312  0.9350305691935749  0.9661234718456378  1.0000
  H   H49       1.0  0.6048868535030392  0.9033492643172558  0.9954162159548274  1.0000
  H   H50       1.0  0.602631295640275  0.9233682767272484  0.9361029589802764  1.0000
  H   H51       1.0  0.6714103804295094  0.9576859788407979  0.9126688688540274  1.0000
  H   H52       1.0  0.6733090908704703  0.938332429719669  0.9745195068911773  1.0000
  C   C79       1.0  0.5114941338022558  0.8910498428267929  0.8995108059870704  1.0000
  C   C80       1.0  0.5089426814015576  0.9069651189389625  0.9159652720987529  1.0000
  C   C81       1.0  0.4898534274457183  0.9043379433193651  0.9447934889997769  1.0000
  C   C82       1.0  0.47360603510953947  0.8855974216370397  0.9590203675803968  1.0000
  C   C83       1.0  0.4762063521041784  0.8694974307648159  0.9433201508192836  1.0000
  C   C84       1.0  0.49498638710698206  0.8722946906816496  0.9129180967027533  1.0000
  H   H53       1.0  0.5216403679422353  0.921376328436999  0.906516080032421  1.0000
  H   H54       1.0  0.4880330452626924  0.91679910666006  0.9567975889595862  1.0000
  H   H55       1.0  0.4636547091516954  0.854965262404877  0.9542037642572413  1.0000
  H   H56       1.0  0.49691474922731527  0.8598965802860002  0.9004140493475526  1.0000
  C   C85       1.0  0.5932376678173282  0.009905135954948817  0.7650699950477425  1.0000
  C   C86       1.0  0.6092527367554567  0.027705093922918866  0.7433281375254678  1.0000
  C   C87       1.0  0.6112910845662647  0.04515845927670534  0.7583102007938818  1.0000
  C   C88       1.0  0.5974485798880493  0.044808112285021816  0.7951108546644063  1.0000
  C   C89       1.0  0.5811211553863912  0.027034754137837607  0.8163618895835373  1.0000
  C   C90       1.0  0.5790778752099935  0.009585230060720873  0.8014469638092013  1.0000
  H   H57       1.0  0.6203911203008334  0.027923394844856106  0.7154676328310507  1.0000
  H   H58       1.0  0.6238013852090268  0.05878553730417035  0.7415945216885373  1.0000
  H   H59       1.0  0.5701518871373645  0.026687068840366732  0.8445648159871907  1.0000
  H   H60       1.0  0.5665052698149796  0.9958596414864032  0.8181644295107927  1.0000
  C   C91       1.0  0.6069468754081643  0.08534136745769512  0.5484219655073616  1.0000
  C   C92       1.0  0.6248090896613031  0.0797569655544087  0.5399991440437382  1.0000
  C   C93       1.0  0.6406701284080195  0.084880254413074  0.5623434169644805  1.0000
  C   C94       1.0  0.6384879554705183  0.0951856283903659  0.5942492178665896  1.0000
  C   C95       1.0  0.6204519983482653  0.10067927082236333  0.6034775599990929  1.0000
  C   C96       1.0  0.6046889516444064  0.09584117111422491  0.5802697847111411  1.0000
  H   H61       1.0  0.6263337256315038  0.07115575951342246  0.5165553820254268  1.0000
  H   H62       1.0  0.6544872856172435  0.08050932184054185  0.555141837522882  1.0000
  H   H63       1.0  0.6188355470507582  0.10887366175324063  0.6278963379268857  1.0000
  H   H64       1.0  0.5910073668212731  0.10043505362793334  0.5866147000458249  1.0000
  C   C97       1.0  0.5652282215775891  0.9066059631185079  0.22531714071953374  1.0000
  C   C98       1.0  0.5785951536883246  0.8958632622416942  0.21835016262067328  1.0000
  C   C99       1.0  0.5721201909197602  0.8793038226214471  0.19947192340414036  1.0000
  C   C100      1.0  0.5519136537891329  0.8731385117970326  0.1891541936899401  1.0000
  C   C101      1.0  0.5385205522940423  0.8837905971857376  0.19652532519790955  1.0000
  C   C102      1.0  0.5453348310573772  0.9006934205306313  0.21400210936736155  1.0000
  H   H65       1.0  0.5939958740991095  0.9004339107903784  0.22711393031290383  1.0000
  H   H66       1.0  0.5824337653611062  0.8709820642877493  0.19391636899212397  1.0000
  H   H67       1.0  0.5229530063829542  0.8790518626999281  0.1884130226184416  1.0000
  H   H68       1.0  0.534983262342593  0.9089645115023438  0.219447869031896  1.0000
  C   C103      1.0  0.5890331206560718  0.986711551241932  0.03832503044284841  1.0000
  C   C104      1.0  0.5709766756518052  0.9920951342749441  0.04141821102531673  1.0000
  C   C105      1.0  0.5589349514492209  0.9889025357263641  0.011713183710722275  1.0000
  C   C106      1.0  0.5647752101017273  0.9800920100624374  0.9790597439021229  1.0000
  C   C107      1.0  0.5831784586294282  0.9751304775153142  0.9753367349889146  1.0000
  C   C108      1.0  0.595364948738111  0.978493939330435  0.004934712248851447  1.0000
  H   H69       1.0  0.5663875360140286  0.9989155291060915  0.06657084152437376  1.0000
  H   H70       1.0  0.5450081812394308  0.9931337599608651  0.01434275319709255  1.0000
  H   H71       1.0  0.587977994986644  0.9685492644798878  0.9499187756129724  1.0000
  H   H72       1.0  0.609335471022308  0.9742982617109832  0.0024134248979121864  1.0000
  C   C109      1.0  0.4860287883148228  0.9139532404360334  0.15324739439047072  1.0000
  C   C110      1.0  0.4705278203724301  0.9048628986045395  0.1317357751040437  1.0000
  C   C111      1.0  0.46024175564527664  0.8843469967786827  0.1380638026426617  1.0000
  C   C112      1.0  0.4649025840290265  0.8727178628648532  0.16682325921115185  1.0000
  C   C113      1.0  0.480121812360722  0.8817648096068005  0.1889671723513158  1.0000
  C   C114      1.0  0.4908564772409319  0.9023599463929753  0.1818913946120869  1.0000
  H   H73       1.0  0.46632379971289484  0.9136266979340134  0.11018393151903884  1.0000
  H   H74       1.0  0.44839933343034627  0.8775476471537541  0.12110236065778364  1.0000
  H   H75       1.0  0.4836311111347762  0.8728355629033052  0.21155898027780531  1.0000
  H   H76       1.0  0.5026406051162317  0.9092583117069001  0.19888799197989424  1.0000
  C   C115      1.0  0.570533646643712  0.01965543551293874  0.27641828329556556  1.0000
  C   C116      1.0  0.5917221550640657  0.020929046823775752  0.259658102660637  1.0000
  C   C117      1.0  0.6088896595075114  0.030544107197103768  0.27736682219444064  1.0000
  C   C118      1.0  0.6050952222674244  0.039258339644830685  0.3115640322274069  1.0000
  C   C119      1.0  0.5839993727117135  0.03838629848827873  0.32793255961521034  1.0000
  C   C120      1.0  0.5667708823274001  0.028624826566162616  0.3103072593632167  1.0000
  H   H77       1.0  0.5949515349378822  0.014644503623782274  0.23284607920694275  1.0000
  H   H78       1.0  0.6252274665673528  0.031335210806265834  0.2643537869944166  1.0000
  H   H79       1.0  0.5808851902197901  0.0449598828275432  0.3544837533785931  1.0000
  H   H80       1.0  0.5503978726289022  0.027740619516276967  0.3233450314972059  1.0000
  C   C121      1.0  0.16889905034396305  0.669395350483264  0.07046399888112377  1.0000
  C   C122      1.0  0.1731732639771144  0.6884809393359274  0.051827555895880506  1.0000
  C   C123      1.0  0.19470017031829814  0.7023608744027054  0.039625704408710716  1.0000
  C   C124      1.0  0.2120307837573795  0.697043298068318  0.04515847969795095  1.0000
  C   C125      1.0  0.20776093549650063  0.6779224794795439  0.06370470853007949  1.0000
  C   C126      1.0  0.1861822535737135  0.6641095037724688  0.07666299510417028  1.0000
  H   H81       1.0  0.15980312005643252  0.6925826792360029  0.04712495740852707  1.0000
  H   H82       1.0  0.197909522005702  0.7171292695551518  0.025360658301646133  1.0000
  H   H83       1.0  0.22102470381045095  0.6739093969390045  0.0686695952925451  1.0000
  H   H84       1.0  0.18289281391874618  0.6493624907061234  0.09106336839296805  1.0000
  C   C127      1.0  0.10617287257463473  0.5454521888617286  0.09188413618559133  1.0000
  C   C128      1.0  0.1285495867009128  0.5538109032980986  0.07311754894760569  1.0000
  C   C129      1.0  0.1371211152137421  0.5462109887149978  0.04058999798034235  1.0000
  C   C130      1.0  0.12343793995554053  0.529709902647757  0.028264218391810036  1.0000
  C   C131      1.0  0.10133303030987185  0.5207461656385096  0.04847052363992366  1.0000
  C   C132      1.0  0.09264114214799744  0.5287723627375672  0.07996125421827949  1.0000
  H   H85       1.0  0.1391905878391854  0.56629277098322  0.08305605041692377  1.0000
  H   H86       1.0  0.15429685081563224  0.5529941157913578  0.025200935230488053  1.0000
  H   H87       1.0  0.09076335425028598  0.5080282197365492  0.03875641906827343  1.0000
  H   H88       1.0  0.0753410370614459  0.5222207833249954  0.09457978829575153  1.0000
  C   C133      1.0  0.19330213421773293  0.5783076708081046  0.15010973374756745  1.0000
  C   C134      1.0  0.2129503012444306  0.5752973503761684  0.14293147876894938  1.0000
  C   C135      1.0  0.21519555401242135  0.5606707345346005  0.12101312698041425  1.0000
  C   C136      1.0  0.19762183971575026  0.5487184504114336  0.10710267589219741  1.0000
  C   C137      1.0  0.17748480881044712  0.5508369055659352  0.11667710052071972  1.0000
  C   C138      1.0  0.17542051760295513  0.5658188323719657  0.13771357161582107  1.0000
  H   H89       1.0  0.2268265389481774  0.5849071165644283  0.15250262162765674  1.0000
  H   H90       1.0  0.2307575326210889  0.5590430905352964  0.11395767741991138  1.0000
  H   H91       1.0  0.1639355846189438  0.5417343842270275  0.10557211499148787  1.0000
  H   H92       1.0  0.16030621698007827  0.568210927544801  0.1427727665194961  1.0000
  C   C139      1.0  0.06211861553736597  0.5355555895276551  0.3171206086155161  1.0000
  C   C140      1.0  0.06445231885229946  0.5474781786860724  0.3470290816508045  1.0000
  C   C141      1.0  0.07536337412996576  0.5679229770343155  0.33551324140774885  1.0000
  C   C142      1.0  0.08361919285429088  0.5763251456733717  0.29418017943285735  1.0000
  C   C143      1.0  0.07994519138289599  0.5643980940090285  0.2645006274360433  1.0000
  C   C144      1.0  0.06952498930029674  0.5440232947777769  0.2759138991855806  1.0000
  H   H93       1.0  0.05859673142277755  0.5409286598673053  0.3789955094604834  1.0000
  H   H94       1.0  0.07805836238281426  0.577135407077935  0.3585403035767437  1.0000
  H   H95       1.0  0.08510291954707742  0.5708806050688492  0.2326129279916571  1.0000
  H   H96       1.0  0.06696524811006875  0.5348822132549946  0.2527813973613504  1.0000
  C   C145      1.0  0.022596838573480067  0.5217394653964313  0.5515886029549728  1.0000
  C   C146      1.0  0.012530579335153875  0.5154201014800405  0.5931843783605341  1.0000
  C   C147      1.0  0.022505396891199014  0.5075523632893275  0.6188659552103308  1.0000
  C   C148      1.0  0.04275346001966445  0.506492784859392  0.6029529296658709  1.0000
  C   C149      1.0  0.05294404783022089  0.5131005982543625  0.5615145174451062  1.0000
  C   C150      1.0  0.042721258326267164  0.5204948974821721  0.5357259794696642  1.0000
  H   H97       1.0  0.9968690355661597  0.5162467091702554  0.6053199707419307  1.0000
  H   H98       1.0  0.014623098957214071  0.502474086780961  0.6509511953727454  1.0000
  H   H99       1.0  0.06856594352671586  0.5122240200677126  0.5491799978153417  1.0000
  H   H100      1.0  0.05050431893746264  0.5254086964393023  0.5035517420363119  1.0000
  C   C151      1.0  0.5451230533175266  0.5876719737471047  0.12134501968207102  1.0000
  C   C152      1.0  0.5561269591699122  0.594794744566747  0.08030196994807816  1.0000
  C   C153      1.0  0.5528613532792145  0.5822089655376037  0.051545021801650256  1.0000
  C   C154      1.0  0.5387907827755728  0.5624642132816882  0.06396575007593105  1.0000
  C   C155      1.0  0.5280711753579198  0.5553138066317882  0.10507115601502351  1.0000
  C   C156      1.0  0.5311694924520439  0.5679080337784083  0.13369633865417682  1.0000
  H   H101      1.0  0.5668334302428969  0.610114230950964  0.07051983454065261  1.0000
  H   H102      1.0  0.5611403256779576  0.5878425767389468  0.01975385092625075  1.0000
  H   H103      1.0  0.5167086473849524  0.5401805775623403  0.11444367861300875  1.0000
  H   H104      1.0  0.5225281008405019  0.5622918976595155  0.16521384854671875  1.0000
  C   C157      1.0  0.47296151821328286  0.513058337664385  0.2079158643130323  1.0000
  C   C158      1.0  0.47844619759832685  0.5008164837366079  0.1825486175834873  1.0000
  C   C159      1.0  0.47233670334875355  0.49963224830528846  0.14544717627721623  1.0000
  C   C160      1.0  0.4602133835711832  0.5102552650555845  0.1341170691043842  1.0000
  C   C161      1.0  0.4541779879022734  0.5221103724583243  0.1599432030722071  1.0000
  C   C162      1.0  0.4606848811967404  0.5235999374041215  0.1967609553613125  1.0000
  H   H105      1.0  0.4877991340189515  0.49255281643871895  0.19113918013318834  1.0000
  H   H106      1.0  0.477036362519866  0.49047928922448025  0.12542586678987516  1.0000
  H   H107      1.0  0.4446900230570547  0.5302453949194925  0.15146899564013205  1.0000
  H   H108      1.0  0.455839446111235  0.5326081459827748  0.21690713170206158  1.0000
  C   C163      1.0  0.4584279030485317  0.6133434811980165  0.2504423625090815  1.0000
  C   C164      1.0  0.4458783810515088  0.6246246192271636  0.2593352195711264  1.0000
  C   C165      1.0  0.44968573632166936  0.6415582482656829  0.23218299564776032  1.0000
  C   C166      1.0  0.46579012958050775  0.6471089056073484  0.19566211227842825  1.0000
  C   C167      1.0  0.47806537483306205  0.635584398965684  0.18613116904092936  1.0000
  C   C168      1.0  0.4745374115244756  0.6187663034343932  0.21375058456066753  1.0000
  H   H109      1.0  0.4334596680499535  0.6204630176763435  0.2876654324525571  1.0000
  H   H110      1.0  0.4401939878970423  0.6504461917011655  0.23963729009681128  1.0000
  H   H111      1.0  0.49040395642931134  0.63978764059608  0.1579248958332691  1.0000
  H   H112      1.0  0.4841854409301795  0.6099997271488187  0.20676204947267598  1.0000
  C   C169      1.0  0.5800828463406477  0.5472780105298374  0.35164480689008054  1.0000
  C   C170      1.0  0.5690235731415854  0.5491523443804046  0.389437433166356  1.0000
  C   C171      1.0  0.5559412510104269  0.5602649954779757  0.39142428204859797  1.0000
  C   C172      1.0  0.5529609138318242  0.5687128880422545  0.355659279766316  1.0000
  C   C173      1.0  0.564592092949892  0.5674259630861039  0.3177906871228383  1.0000
  C   C174      1.0  0.5783592737550749  0.5568879573026653  0.31578793329494353  1.0000
  H   H113      1.0  0.5706822190428424  0.5421847464830889  0.41722213641903566  1.0000
  H   H114      1.0  0.5476642262213457  0.5618550605434466  0.4207712678159868  1.0000
  H   H115      1.0  0.5633219279609201  0.574852655118344  0.2901410051975363  1.0000
  H   H116      1.0  0.5873363985745481  0.5558647594424738  0.2865805223592021  1.0000
  C   C175      1.0  0.5089330987389676  0.49420499384469085  0.5637891134753378  1.0000
  C   C176      1.0  0.49256997770238764  0.49766161746025833  0.5905092389594953  1.0000
  C   C177      1.0  0.48989201366973567  0.49351994940210914  0.6328132812856603  1.0000
  C   C178      1.0  0.5035250397601672  0.4858618599242901  0.6485782414410515  1.0000
  C   C179      1.0  0.5199984548642004  0.48259132541017813  0.6217493974555655  1.0000
  C   C180      1.0  0.5227283365631674  0.48674393507115965  0.5794430153488518  1.0000
  H   H117      1.0  0.48189954725230943  0.5034873275846247  0.5785446201282612  1.0000
  H   H118      1.0  0.4771547881066634  0.49614733731447686  0.6533425369360224  1.0000
  H   H119      1.0  0.5308415592519427  0.4771497203681097  0.633497375789145  1.0000
  H   H120      1.0  0.5355676645754299  0.4842771945431567  0.5590087208676041  1.0000
  C   C181      1.0  0.7562073970314611  0.15932153669485213  0.6456101840198325  1.0000
  C   C182      1.0  0.7584761354762161  0.146021931897639  0.6748184203509107  1.0000
  C   C183      1.0  0.7427857029291013  0.13841961135701797  0.7123622946779864  1.0000
  C   C184      1.0  0.7245418520022745  0.14367757352330113  0.7200286515416863  1.0000
  C   C185      1.0  0.7223963266498061  0.15686813032780245  0.6907921711367734  1.0000
  C   C186      1.0  0.7383333240733878  0.1649435499662393  0.6542206828487025  1.0000
  H   H121      1.0  0.7723145262275228  0.14164431457341956  0.668479804756424  1.0000
  H   H122      1.0  0.7445245089196759  0.12817893854466136  0.7349808119588438  1.0000
  H   H123      1.0  0.7085679162579149  0.16111834658867602  0.6964900427149342  1.0000
  H   H124      1.0  0.736557071126953  0.1754706031951667  0.6327787904539722  1.0000
  C   C187      1.0  0.7205831462135466  0.17603702008333613  0.4438718591726643  1.0000
  C   C188      1.0  0.7028695417989637  0.16937834554386247  0.42580406024357137  1.0000
  C   C189      1.0  0.6933537560671121  0.14941262929068264  0.4231539738769224  1.0000
  C   C190      1.0  0.7017621597216985  0.13612311751572098  0.43798354020557173  1.0000
  C   C191      1.0  0.7196196441093285  0.14287587856963768  0.4555769507672233  1.0000
  C   C192      1.0  0.7288240040419133  0.16273209757589582  0.45909765961493676  1.0000
  H   H125      1.0  0.6965550966908584  0.17963251207660783  0.4136042475706133  1.0000
  H   H126      1.0  0.6799287291274799  0.1444254672057083  0.40863484270725947  1.0000
  H   H127      1.0  0.7265805025324381  0.13277050622530703  0.4657263183818984  1.0000
  H   H128      1.0  0.7427777813797757  0.1679021867916942  0.4722826192484558  1.0000
  C   C193      1.0  0.9191980673383424  0.4058934417246655  0.5179864448417281  1.0000
  C   C194      1.0  0.9295979343813278  0.4229781486772463  0.48877547673115085  1.0000
  C   C195      1.0  0.9523025987879626  0.43275975337915595  0.4803974136698425  1.0000
  C   C196      1.0  0.9646597478994869  0.42544192908231904  0.5010576568156402  1.0000
  C   C197      1.0  0.9544152437000433  0.40773361004475395  0.528594887947153  1.0000
  C   C198      1.0  0.9316561222502066  0.39793549281373464  0.5369793733568772  1.0000
  H   H129      1.0  0.9201344013303479  0.4288854855000292  0.4731758602422739  1.0000
  H   H130      1.0  0.9601269469793354  0.44609334231996967  0.4582199043825145  1.0000
  H   H131      1.0  0.963915079626752  0.40180605582941936  0.5441445368891696  1.0000
  H   H132      1.0  0.9237627188155595  0.38427724809349323  0.5583591861525529  1.0000
  C   C199      1.0  0.950188669579214  0.3653775136468085  0.6739406057083741  1.0000
  C   C200      1.0  0.9504847929185617  0.38380565019099105  0.6815184662069468  1.0000
  C   C201      1.0  0.9682266202083623  0.3968116083368447  0.6939389729619712  1.0000
  C   C202      1.0  0.9856595326889723  0.39136614990300184  0.6985724269965461  1.0000
  C   C203      1.0  0.9853707426071148  0.3730811474110124  0.6905569311714709  1.0000
  C   C204      1.0  0.9677089305797105  0.36013697742283096  0.6783930877211239  1.0000
  H   H133      1.0  0.9371036477581154  0.38798255683160565  0.6777820237005566  1.0000
  H   H134      1.0  0.9685468115237513  0.41103141427313444  0.6995841825105618  1.0000
  H   H135      1.0  0.9988223644180207  0.36882803545158876  0.6939961704818811  1.0000
  H   H136      1.0  0.9676148213068612  0.34596533939949436  0.6725308630327109  1.0000
  C   C205      1.0  0.8178949166013529  0.29991421793965994  0.6295746308172991  1.0000
  C   C206      1.0  0.8291521233099703  0.3089036223679317  0.5893775586304548  1.0000
  C   C207      1.0  0.8256082286514435  0.29829660780021516  0.5573475617778353  1.0000
  C   C208      1.0  0.8105760515240343  0.2787782140511394  0.5653017161004131  1.0000
  C   C209      1.0  0.7989759707884543  0.26999864909254223  0.6054337440053873  1.0000
  C   C210      1.0  0.8026857981093791  0.28051055982519585  0.637479993221837  1.0000
  H   H137      1.0  0.8406194046227754  0.32398995385767365  0.5829082680195735  1.0000
  H   H138      1.0  0.8344930642410463  0.30523164987373735  0.526311752787813  1.0000
  H   H139      1.0  0.7872519021494085  0.2550800048434577  0.6119045590231116  1.0000
  H   H140      1.0  0.7938304826371178  0.273539623355339  0.668498893156747  1.0000
  C   C211      1.0  0.8505250458125999  0.443629210108865  0.6532115036999934  1.0000
  C   C212      1.0  0.8679696259051244  0.4512173346217321  0.6714848481378121  1.0000
  C   C213      1.0  0.8740662880514967  0.4384328668931003  0.6949973357154979  1.0000
  C   C214      1.0  0.8629266659599973  0.4181137358157194  0.6995975168062621  1.0000
  C   C215      1.0  0.8452611738512251  0.4106287999817257  0.6819780397030782  1.0000
  C   C216      1.0  0.8390589970317557  0.42336219072277187  0.6587829749510388  1.0000
  H   H141      1.0  0.8768831449472433  0.4668855695286792  0.6672747728325658  1.0000
  H   H142      1.0  0.8876695187561571  0.4442587976802897  0.7087697256945104  1.0000
  H   H143      1.0  0.8361424083440918  0.39498112538673874  0.6866819054997062  1.0000
  H   H144      1.0  0.8254472233646238  0.4174626307976489  0.6449906944759484  1.0000
  C   C217      1.0  0.9411001277642005  0.5087741009256174  0.6817900633004476  1.0000
  C   C218      1.0  0.9621256952565632  0.5102882457864729  0.6841201035923776  1.0000
  C   C219      1.0  0.9650053200148089  0.4954247340745866  0.7081413743659464  1.0000
  C   C220      1.0  0.9468128439184446  0.4792046048807984  0.7305498917377918  1.0000
  C   C221      1.0  0.9257307721032096  0.47784634806746196  0.7288954756336077  1.0000
  C   C222      1.0  0.9228629472715251  0.49253953422493923  0.7041813346170557  1.0000
  H   H145      1.0  0.9762332538382806  0.5229729484056223  0.6672348937718693  1.0000
  H   H146      1.0  0.9812891064582298  0.49661705858706084  0.7095202572458128  1.0000
  H   H147      1.0  0.9116147202593857  0.46540902533819933  0.7466387134273792  1.0000
  H   H148      1.0  0.906573706026213  0.49143535367116276  0.7028951557424288  1.0000
  C   C223      1.0  0.914391278410632  0.5269111580929552  0.46340016531062744  1.0000
  C   C224      1.0  0.9105638560814706  0.5225861297064458  0.4256272098972587  1.0000
  C   C225      1.0  0.92099428508429  0.5117188853903482  0.40437513962372995  1.0000
  C   C226      1.0  0.9357965940162956  0.5057989955754543  0.4202998182398984  1.0000
  C   C227      1.0  0.9401347422215625  0.5107118286956386  0.4573797440398426  1.0000
  C   C228      1.0  0.9290762320379141  0.5208786173606057  0.47924738290454605  1.0000
  H   H149      1.0  0.8991819060640567  0.5272723511939157  0.41328886033164497  1.0000
  H   H150      1.0  0.9176030805679699  0.5079500061777179  0.3756577492519882  1.0000
  H   H151      1.0  0.951639780309085  0.5063528467493911  0.46970652786307  1.0000
  H   H152      1.0  0.9320438943065704  0.5242794990669326  0.5081896258084292  1.0000
  C   C229      1.0  0.572905295743435  0.3773227178473276  0.6836801906608326  1.0000
  C   C230      1.0  0.5737593978782762  0.3879541961096703  0.7158151612645283  1.0000
  C   C231      1.0  0.5568601331885548  0.39440354278850254  0.7299507908669988  1.0000
  C   C232      1.0  0.5386039996146111  0.38937837707713596  0.7132839988753868  1.0000
  C   C233      1.0  0.5373497448581382  0.3780408312522599  0.6823101303244101  1.0000
  C   C234      1.0  0.5547588660782898  0.37247941345011165  0.6667175548691283  1.0000
  H   H153      1.0  0.5875979122820366  0.3913901473021042  0.7294474683900601  1.0000
  H   H154      1.0  0.5576217889235735  0.40274079156495624  0.7545800895993016  1.0000
  H   H155      1.0  0.523064629040801  0.3738396151059881  0.6699164958894933  1.0000
  H   H156      1.0  0.5539472649442507  0.36408521255200504  0.6421548841828585  1.0000
  C   C235      1.0  0.543521720507279  0.3871624530581813  0.4788193171118553  1.0000
  C   C236      1.0  0.5250742124724591  0.38332098261557357  0.4629486343326464  1.0000
  C   C237      1.0  0.5228897406497757  0.39832046739052573  0.43810219985949606  1.0000
  C   C238      1.0  0.5388401422027121  0.41734842165743374  0.4300053828724593  1.0000
  C   C239      1.0  0.5573749967110267  0.42124402793213406  0.44582871840716015  1.0000
  C   C240      1.0  0.5599233819942026  0.4060437402225371  0.46964954168952305  1.0000
  H   H157      1.0  0.5123522287264176  0.3687582365301638  0.47006057892962194  1.0000
  H   H158      1.0  0.5085344184037585  0.39531778068796714  0.4260405083374124  1.0000
  H   H159      1.0  0.5697718825772561  0.4359381635954372  0.43954799650458115  1.0000
  H   H160      1.0  0.5743024497643674  0.40906115525672704  0.48163606558285016  1.0000
  C   C241      1.0  0.6775106126263766  0.24717693320114098  0.5710578422246597  1.0000
  C   C242      1.0  0.6629809324219453  0.22860173229307168  0.5921920380518853  1.0000
  C   C243      1.0  0.6706441656050263  0.2164145327172347  0.6134325811032476  1.0000
  C   C244      1.0  0.6929215439412334  0.22251946062520453  0.6120499772079523  1.0000
  C   C245      1.0  0.7073122165964687  0.24133663199070607  0.5920755748311566  1.0000
  C   C246      1.0  0.6995542073527397  0.25378517983527177  0.5718795415302314  1.0000
  H   H161      1.0  0.6458764553586089  0.22356245062382607  0.5919090040601983  1.0000
  H   H162      1.0  0.6594961362257479  0.20201310438102296  0.6295545388767297  1.0000
  H   H163      1.0  0.7244918593657479  0.24624833853598374  0.591855976644745  1.0000
  H   H164      1.0  0.7108012818386514  0.2681817146332957  0.5556222757911461  1.0000
  C   C247      1.0  0.6384928193115598  0.19782006580355962  0.37332336571635766  1.0000
  C   C248      1.0  0.6418188926940502  0.18310663679255595  0.39696182481073766  1.0000
  C   C249      1.0  0.6374533316411436  0.16455789433770762  0.38536987348885643  1.0000
  C   C250      1.0  0.6289037375398053  0.16048084868505702  0.351272868964615  1.0000
  C   C251      1.0  0.6254475281863331  0.17517028129549733  0.3280336641802344  1.0000
  C   C252      1.0  0.6305550532471919  0.19387087219798854  0.3386518525356446  1.0000
  H   H165      1.0  0.6483858161408887  0.18621810956913207  0.42332060670844734  1.0000
  H   H166      1.0  0.6410141451564679  0.15357233139304557  0.4023645176640472  1.0000
  H   H167      1.0  0.6189869916791672  0.1721698800540107  0.30149320927957424  1.0000
  H   H168      1.0  0.6281715363993693  0.20526640209567357  0.320123706615681  1.0000
  C   C253      1.0  0.5996563550990462  0.16588860369483727  0.6118896840909968  1.0000
  C   C254      1.0  0.6078058341688741  0.1820692714278136  0.6307858741104027  1.0000
  C   C255      1.0  0.6142299263371959  0.17972088571775502  0.6671963049985724  1.0000
  C   C256      1.0  0.6130608776268529  0.16129682749389643  0.6841433178560953  1.0000
  C   C257      1.0  0.6049367720275256  0.1451392349004224  0.6651040018871767  1.0000
  C   C258      1.0  0.5981047249428395  0.14739253048058848  0.6291808069075158  1.0000
  H   H169      1.0  0.608878282577026  0.1963418325812433  0.6177492412803344  1.0000
  H   H170      1.0  0.620452127808828  0.1922629411988158  0.6818417682261119  1.0000
  H   H171      1.0  0.6035706374694088  0.13084831677349346  0.6783488975301107  1.0000
  H   H172      1.0  0.5917095640192075  0.13481820588404483  0.614753130379784  1.0000
  C   C259      1.0  0.5863446052520327  0.2749115568137849  0.5000571356109412  1.0000
  C   C260      1.0  0.5796709210640847  0.286090308389863  0.5270089724358127  1.0000
  C   C261      1.0  0.5921409981612644  0.3062548173448091  0.5226309400089039  1.0000
  C   C262      1.0  0.6110243523092652  0.3152256937668681  0.4909311781048809  1.0000
  C   C263      1.0  0.6172323094094558  0.30413876047842126  0.4633733720437291  1.0000
  C   C264      1.0  0.6048850503325818  0.2840447402224495  0.46785944807198315  1.0000
  H   H173      1.0  0.565396437008976  0.2789879161170969  0.552162197668634  1.0000
  H   H174      1.0  0.5875517066386851  0.31464400255206293  0.5445586057653797  1.0000
  H   H175      1.0  0.631769461967946  0.3110530412002338  0.4386740743821426  1.0000
  H   H176      1.0  0.6096717402260906  0.275611772410486  0.44619122169659486  1.0000
  C   C265      1.0  0.6977832677937869  0.4577967108399304  0.5702121054454364  1.0000
  C   C266      1.0  0.6885900372700174  0.43756525518230643  0.570732405536031  1.0000
  C   C267      1.0  0.6734448356701119  0.43004933229071896  0.5473817249567274  1.0000
  C   C268      1.0  0.6673673332379367  0.44271005098468796  0.5236645398909882  1.0000
  C   C269      1.0  0.6769785695421284  0.46296283981574254  0.5224937163968318  1.0000
  C   C270      1.0  0.6921417511177074  0.4704810104876235  0.5456610791225542  1.0000
  H   H177      1.0  0.6930717471254401  0.4277041812070483  0.589352935015818  1.0000
  H   H178      1.0  0.6667464805296288  0.41450614334650354  0.5474797499970698  1.0000
  H   H179      1.0  0.6723345384558278  0.4729014815131551  0.5046050206502413  1.0000
  H   H180      1.0  0.6992993472018065  0.4861291006958206  0.544671672169078  1.0000
  C   C271      1.0  0.6630777689661118  0.5202657331279619  0.5194401042297324  1.0000
  C   C272      1.0  0.6497505411764811  0.5250720453807974  0.49686331283944624  1.0000
  C   C273      1.0  0.6292313493606659  0.5109998646085923  0.4968999821023487  1.0000
  C   C274      1.0  0.6220038725546367  0.4921987436492503  0.5198829770878215  1.0000
  C   C275      1.0  0.6353170915948275  0.4874077431852091  0.5421725936848695  1.0000
  C   C276      1.0  0.655865316407426  0.5013498411345361  0.5416951025170837  1.0000
  H   H181      1.0  0.6554062627379457  0.5396529161736405  0.4791685324815148  1.0000
  H   H182      1.0  0.6191172071848086  0.5147007809771338  0.4791222933447475  1.0000
  H   H183      1.0  0.6298646165421917  0.472765521058463  0.5592446100068162  1.0000
  H   H184      1.0  0.6662649991007645  0.4972951437104638  0.5578847572452016  1.0000
  C   C277      1.0  0.6580127899090022  0.5167245380289598  0.7020762461086757  1.0000
  C   C278      1.0  0.6567122232144214  0.5224141342884394  0.6626064840163886  1.0000
  C   C279      1.0  0.6379733928394445  0.512646760813754  0.6494358402886728  1.0000
  C   C280      1.0  0.620007759164724  0.4978856395256845  0.6763936264634556  1.0000
  C   C281      1.0  0.6203875801554938  0.493424187496278  0.7171316529431266  1.0000
  C   C282      1.0  0.6395776813118061  0.5027107762735243  0.7299222377980652  1.0000
  H   H185      1.0  0.6707701579249257  0.5334788694969244  0.6411774042759968  1.0000
  H   H186      1.0  0.6378377744633331  0.516050530407819  0.6178165189549483  1.0000
  H   H187      1.0  0.6064472579913761  0.48201254572244595  0.738088071397236  1.0000
  H   H188      1.0  0.6405380916926787  0.4980808040648374  0.7603792843933587  1.0000
  C   C283      1.0  0.8005643145074893  0.5563909283745198  0.5998457468493059  1.0000
  C   C284      1.0  0.8217913280180347  0.5580367057061001  0.5817289858791955  1.0000
  C   C285      1.0  0.8346285196989564  0.5532737072245599  0.6055960887312926  1.0000
  C   C286      1.0  0.8264485854809316  0.5473817305629253  0.6477738024173834  1.0000
  C   C287      1.0  0.8055427033627366  0.5464660308961031  0.6661045745406685  1.0000
  C   C288      1.0  0.7924415351259309  0.5506241172479849  0.6420740172026299  1.0000
  H   H189      1.0  0.8281303503391491  0.5625982316354058  0.5490768296734357  1.0000
  H   H190      1.0  0.850849270301362  0.5541869689313591  0.5913435803170887  1.0000
  H   H191      1.0  0.7992901163958834  0.5420903808429108  0.6987900244494036  1.0000
  H   H192      1.0  0.7762065051080671  0.5496910740330729  0.6562228293463885  1.0000
  N   N1        1.0  0.22381327328932893  0.6575324014679808  0.1746355323908506  1.0000
  C   C289      1.0  0.24574703919051288  0.6679072459050592  0.18137571517814854  1.0000
  C   C290      1.0  0.22589286183994173  0.6477514015669988  0.13884593578863647  1.0000
  C   C291      1.0  0.21358335282637855  0.6717898950063489  0.16719953042942604  1.0000
  C   C292      1.0  0.21009414998103837  0.64263308111586  0.2110633777251849  1.0000
  H   H193      1.0  0.2448847199556944  0.6755024867053674  0.20810188837235177  1.0000
  H   H194      1.0  0.25668005361297497  0.6790989404425493  0.15426033893182978  1.0000
  H   H195      1.0  0.25391207623185447  0.6575132121243245  0.18684587268486408  1.0000
  H   H196      1.0  0.20975448035504898  0.6403699063878141  0.13191140837881665  1.0000
  H   H197      1.0  0.2370139801972904  0.6584138162938723  0.11128949470656924  1.0000
  H   H198      1.0  0.23279675130301297  0.6363453678139508  0.14403515741880368  1.0000
  H   H199      1.0  0.19709528452691288  0.6644641554524102  0.16147863128969475  1.0000
  H   H200      1.0  0.2236486288847255  0.6833088991478311  0.14003175007956226  1.0000
  H   H201      1.0  0.21149646507101227  0.679307210135153  0.19374851404476057  1.0000
  H   H202      1.0  0.1934720109148362  0.6344275171337734  0.20702283845540093  1.0000
  H   H203      1.0  0.2081521904403557  0.6493977793726788  0.2387917369724346  1.0000
  H   H204      1.0  0.21724583404667114  0.6314961347896832  0.21707425863530405  1.0000
  N   N2        1.0  0.10180266357512074  0.5137837187686481  0.701803293971618  1.0000
  C   C293      1.0  0.12207701561599085  0.5316515608541214  0.6921258151659813  1.0000
  C   C294      1.0  0.09980863822003068  0.5022707923824506  0.7413296507319128  1.0000
  C   C295      1.0  0.10253739150021803  0.501695659577154  0.6695916686214654  1.0000
  C   C296      1.0  0.0827755024962839  0.5195321690903292  0.7041486335524006  1.0000
  H   H205      1.0  0.1219574759531862  0.5410033311074174  0.7161818393157455  1.0000
  H   H206      1.0  0.12404345941940806  0.5407815071363367  0.6626382742765822  1.0000
  H   H207      1.0  0.13680658874443166  0.5279221933601519  0.6901084704852514  1.0000
  H   H208      1.0  0.11312419721006188  0.49661924561217285  0.7399097956673822  1.0000
  H   H209      1.0  0.10082852827342019  0.5113812084286629  0.7656926391335647  1.0000
  H   H210      1.0  0.08389400054963547  0.48945363931540087  0.7514604319755259  1.0000
  H   H211      1.0  0.08745676460530828  0.48807840704951416  0.6764142178477126  1.0000
  H   H212      1.0  0.11680712248927541  0.4972431284822651  0.6664702940209316  1.0000
  H   H213      1.0  0.10358474252835773  0.5097688229577955  0.6394428450226656  1.0000
  H   H214      1.0  0.06707586726194928  0.5065374067655475  0.7142172713926486  1.0000
  H   H215      1.0  0.08295557622986197  0.5270098999984734  0.6740311292927202  1.0000
  H   H216      1.0  0.08252176460178465  0.529818464356403  0.7259165185174086  1.0000
  N   N3        1.0  0.6014038731208271  0.8846777239959943  0.8666937878485999  1.0000
  C   C297      1.0  0.5775502133332421  0.8785578895477719  0.8712951659495807  1.0000
  C   C298      1.0  0.6058226581186568  0.8805663307001513  0.9068151944526901  1.0000
  C   C299      1.0  0.6123219332826013  0.9059370625510135  0.8503826105631582  1.0000
  C   C300      1.0  0.609895763966108  0.873646949462586  0.8382848720611717  1.0000
  H   H217      1.0  0.56866822160709  0.8625639175591923  0.8833488494932302  1.0000
  H   H218      1.0  0.5734997220809958  0.8817725211888747  0.8418568000327892  1.0000
  H   H219      1.0  0.5704809380382637  0.8863361951986443  0.8931442197652393  1.0000
  H   H220      1.0  0.6236679379374319  0.8858327531720073  0.9051372942197117  1.0000
  H   H221      1.0  0.5986357245141483  0.8878732837175889  0.9294811145062676  1.0000
  H   H222      1.0  0.5984279832654404  0.8645576877756672  0.9194160962002403  1.0000
  H   H223      1.0  0.6301710234298179  0.9114914140331322  0.8488803894106695  1.0000
  H   H224      1.0  0.6053446243962438  0.914566726918733  0.8698694919233447  1.0000
  H   H225      1.0  0.6103335163535217  0.9094436920237433  0.8191933832548971  1.0000
  H   H226      1.0  0.601967597531877  0.8575415330407885  0.8498549570820366  1.0000
  H   H227      1.0  0.6278691798842617  0.8779987008988129  0.8340684653263295  1.0000
  H   H228      1.0  0.6066957017684195  0.8763330040577135  0.8077662376707692  1.0000
  N   N4        1.0  0.5229940735600667  0.8925008837090398  0.046452179543841066  1.0000
  C   C301      1.0  0.5408735859637379  0.8972994662238981  0.009437569361370413  1.0000
  C   C302      1.0  0.5030992940121453  0.8924243612218559  0.034305680474610245  1.0000
  C   C303      1.0  0.5293695511595017  0.9073291051222504  0.07289896525580297  1.0000
  C   C304      1.0  0.5184694782752778  0.8728792969865111  0.06906904937619363  1.0000
  H   H229      1.0  0.5559644799129035  0.8966343159422582  0.01685461073444694  1.0000
  H   H230      1.0  0.5450642712733662  0.9122758744341516  0.992545051555464  1.0000
  H   H231      1.0  0.536211814696862  0.8868691912416905  0.9879979825502052  1.0000
  H   H232      1.0  0.4892080891133187  0.8892096404605747  0.06119933668125288  1.0000
  H   H233      1.0  0.5059670295301921  0.9067328006032548  0.01614180379442942  1.0000
  H   H234      1.0  0.49772163715053075  0.8810639637189719  0.015023993401559688  1.0000
  H   H235      1.0  0.5163297511867835  0.9039064431423355  0.1013430154406838  1.0000
  H   H236      1.0  0.5324879208330268  0.922317098057419  0.05729895480136338  1.0000
  H   H237      1.0  0.5444671618371564  0.9078306224710098  0.0822533605524951  1.0000
  H   H238      1.0  0.5044414345110573  0.8686439505820256  0.09627825667002199  1.0000
  H   H239      1.0  0.5327722188120751  0.8724639014461116  0.08021771539738198  1.0000
  H   H240      1.0  0.5144356045378733  0.8614257705662093  0.04950176808841156  1.0000
  N   N5        1.0  0.8767047996544582  0.44908930511880074  0.5121155246898876  1.0000
  C   C305      1.0  0.8698089976417942  0.43259455688893406  0.48969432355190456  1.0000
  C   C306      1.0  0.898082944909971  0.463947809896303  0.4888329120378038  1.0000
  C   C307      1.0  0.8786328081370178  0.44165157802296945  0.5525139938384557  1.0000
  C   C308      1.0  0.8602742653580738  0.45819282678093914  0.517484201865984  1.0000
  H   H241      1.0  0.8538380301748202  0.42101405658304264  0.5067053070044167  1.0000
  H   H242      1.0  0.8818591666483591  0.4254031156589512  0.48511396412850016  1.0000
  H   H243      1.0  0.8681236880564893  0.437600005030548  0.45906453788111545  1.0000
  H   H244      1.0  0.9036065604165124  0.4766809478645661  0.5047564116099833  1.0000
  H   H245      1.0  0.9110155241012572  0.45774884253714665  0.48423051773600817  1.0000
  H   H246      1.0  0.897257548429375  0.46978304108983215  0.45803562924829816  1.0000
  H   H247      1.0  0.8832228895915559  0.4536140794872592  0.5706898080531916  1.0000
  H   H248      1.0  0.8910314873406814  0.4348293423316712  0.5496310656530571  1.0000
  H   H249      1.0  0.8628257324698694  0.4301889059721684  0.5706381341120484  1.0000
  H   H250      1.0  0.8652037474933193  0.4709496847345813  0.533633197423078  1.0000
  H   H251      1.0  0.8440613620741143  0.4475846230376793  0.5360512334937199  1.0000
  H   H252      1.0  0.8580634270766706  0.4636627965102124  0.4876680787892656  1.0000
  N   N6        1.0  0.356761158145859  0.5941489220258339  0.14648541274129842  1.0000
  C   C309      1.0  0.3526351879233808  0.582759147124532  0.11324146463210684  1.0000
  C   C310      1.0  0.3591618714748597  0.5818904855635806  0.18071356460052038  1.0000
  C   C311      1.0  0.33818313796989863  0.6000530037563919  0.1607075060593533  1.0000
  C   C312      1.0  0.3770221317262852  0.6118947807696803  0.131272688228739  1.0000
  H   H253      1.0  0.33745249242201364  0.5692408771352362  0.12369513890074414  1.0000
  H   H254      1.0  0.36640226114001867  0.5781602050098956  0.10154084142091341  1.0000
  H   H255      1.0  0.350437515775413  0.5914719915829144  0.08711554164601773  1.0000
  H   H256      1.0  0.3624279570505257  0.5900340329543855  0.20627337002031462  1.0000
  H   H257      1.0  0.34415440265924413  0.5683587775063311  0.1928274232018823  1.0000
  H   H258      1.0  0.373027651147659  0.5771429568855764  0.17101693164554413  1.0000
  H   H259      1.0  0.3406485212953803  0.6086449900908837  0.1858381446252896  1.0000
  H   H260      1.0  0.3225689231458925  0.5870016202912676  0.17201675262152114  1.0000
  H   H261      1.0  0.335864926261942  0.6092548423953051  0.13552569946590962  1.0000
  H   H262      1.0  0.39134565076759076  0.6079595759976602  0.12030749907757521  1.0000
  H   H263      1.0  0.3807440757259644  0.6208115882098206  0.15556451915065778  1.0000
  H   H264      1.0  0.3758055162849529  0.6214266120956761  0.10529869931560505  1.0000
  N   N7        1.0  0.4147988199829332  0.7542814355355719  0.9999482385545129  1.0000
  C   C313      1.0  0.43468334235377337  0.7642351068382263  0.9664555812998837  1.0000
  C   C314      1.0  0.4076249439107833  0.7691009024528508  0.017752562136748386  1.0000
  C   C315      1.0  0.41967790309711406  0.7426878836099522  0.03181068709155134  1.0000
  C   C316      1.0  0.3971683247199234  0.7411534234574985  0.983780635593501  1.0000
  H   H265      1.0  0.4316119553609693  0.7731574909402921  0.9418878143289192  1.0000
  H   H266      1.0  0.4406676668925565  0.7534941387725692  0.9525395716467205  1.0000
  H   H267      1.0  0.4482752087788665  0.7743842404084691  0.9775035361003827  1.0000
  H   H268      1.0  0.419701793784571  0.7784037910695863  0.032900868216125076  1.0000
  H   H269      1.0  0.4055425897669357  0.7791487530464837  0.9939631735845137  1.0000
  H   H270      1.0  0.39184618528305853  0.7621310020998208  0.04121696061771837  1.0000
  H   H271      1.0  0.4051084450209689  0.7352376453906118  0.057829623437796275  1.0000
  H   H272      1.0  0.43310693252740523  0.7522465250957139  0.04423687375854428  1.0000
  H   H273      1.0  0.42500123632447306  0.7312360882589005  0.01961288682667906  1.0000
  H   H274      1.0  0.4019152364403662  0.729760603613303  0.9699528695146611  1.0000
  H   H275      1.0  0.3929796684072808  0.7495235700347689  0.9599140834826975  1.0000
  H   H276      1.0  0.38183890320392966  0.7334430489133078  0.008150346629889414  1.0000
  N   N8        1.0  0.621427557427063  0.9392519997525339  0.11116085534325237  1.0000
  C   C317      1.0  0.6157298414156499  0.9508840312480662  0.14137279644157785  1.0000
  C   C318      1.0  0.6317405803731907  0.9269313501262644  0.1287992019197417  1.0000
  C   C319      1.0  0.6367951468050905  0.9526628852061224  0.07398789050688981  1.0000
  C   C320      1.0  0.6013824736240925  0.9265457321220179  0.10059631121015555  1.0000
  H   H277      1.0  0.6078207640568957  0.96028273008948  0.1292874087677034  1.0000
  H   H278      1.0  0.6304462647534179  0.9607158081876107  0.14995786453182136  1.0000
  H   H279      1.0  0.6041334174974933  0.9412062151188028  0.1696612951774279  1.0000
  H   H280      1.0  0.6204540150751878  0.9165768755509783  0.15671109594220667  1.0000
  H   H281      1.0  0.6362825275358619  0.917901239964825  0.10697746101612005  1.0000
  H   H282      1.0  0.6469291912927535  0.9360202072699518  0.1370820941723172  1.0000
  H   H283      1.0  0.6414660153979131  0.9443529695116506  0.050522796105567425  1.0000
  H   H284      1.0  0.652121725307173  0.9625035874990401  0.08069362157524784  1.0000
  H   H285      1.0  0.6294084144796215  0.962142353698744  0.06003697769820926  1.0000
  H   H286      1.0  0.605255445823185  0.9176383631142846  0.0777292707020365  1.0000
  H   H287      1.0  0.5931979772775439  0.9354253546215691  0.08729233282456095  1.0000
  H   H288      1.0  0.5893718909670824  0.9161800954797384  0.127915171604992  1.0000
  N   N9        1.0  0.02668628707322205  0.43886166601749577  0.5834151611510838  1.0000
  C   C321      1.0  0.03664779555289422  0.4329827300995485  0.546552298116795  1.0000
  C   C322      1.0  0.03908960006969588  0.43855013168050466  0.6147557053571564  1.0000
  C   C323      1.0  0.003760745227777588  0.4249511792316595  0.5994296911461102  1.0000
  C   C324      1.0  0.027272745090537998  0.4589235464895571  0.5728503613433197  1.0000
  H   H289      1.0  0.027639183679672517  0.43304396765776043  0.5223052988026444  1.0000
  H   H290      1.0  0.03640286296465415  0.417887383656709  0.5533775968542415  1.0000
  H   H291      1.0  0.05393059972968459  0.4431825015988364  0.5334997731878717  1.0000
  H   H292      1.0  0.032097522541213355  0.44299034416310085  0.6429213530693317  1.0000
  H   H293      1.0  0.03871435947711454  0.42356214633628475  0.6240020001112122  1.0000
  H   H294      1.0  0.05647883129617764  0.44883992484532526  0.6037709306876592  1.0000
  H   H295      1.0  0.0027471437058580275  0.40968102679901064  0.6079336703363718  1.0000
  H   H296      1.0  0.9939480006851475  0.42469385401965937  0.5764851786004994  1.0000
  H   H297      1.0  0.9957322171517968  0.4289083751884984  0.6272210452491557  1.0000
  H   H298      1.0  0.044350819317687966  0.4698144308257602  0.5609345744172468  1.0000
  H   H299      1.0  0.01990388799853591  0.4638909973049621  0.5998601998718837  1.0000
  H   H300      1.0  0.018213065953761674  0.45977447796519194  0.5490508816435172  1.0000
  N   N10       1.0  0.6256004760841989  0.44110364906391425  0.6507418445554635  1.0000
  C   C325      1.0  0.634111288341673  0.42523909358250295  0.6496884162322962  1.0000
  C   C326      1.0  0.6082287640751635  0.43715498875138087  0.6282292563968741  1.0000
  C   C327      1.0  0.6435760135810001  0.46005529216715585  0.6314990751900567  1.0000
  C   C328      1.0  0.6165591295103335  0.4420064986897769  0.6934829312303331  1.0000
  H   H301      1.0  0.6479426821598014  0.4281468574393221  0.6647264791722205  1.0000
  H   H302      1.0  0.6401815701774585  0.42363714599191254  0.6178104661359173  1.0000
  H   H303      1.0  0.6212078151418646  0.41081827954909056  0.6653911109924239  1.0000
  H   H304      1.0  0.6014610210514051  0.4488781158230814  0.6283638497669182  1.0000
  H   H305      1.0  0.6146231813093996  0.43655735549140523  0.5957358395121133  1.0000
  H   H306      1.0  0.5944578872608298  0.4228742427937985  0.6419322933484176  1.0000
  H   H307      1.0  0.6378279193861828  0.47243612945185387  0.6318086686083155  1.0000
  H   H308      1.0  0.6507101452372577  0.45993053757314384  0.5992271907872851  1.0000
  H   H309      1.0  0.6570803083042756  0.4634211627864484  0.6474555394246384  1.0000
  H   H310      1.0  0.610020436022179  0.45383802927604544  0.6951926612654623  1.0000
  H   H311      1.0  0.6292742946424547  0.44505746279765884  0.7112630467871053  1.0000
  H   H312      1.0  0.6028778363280527  0.4280093982399369  0.709032303081632  1.0000
  N   N11       1.0  0.11307425604356348  0.6012026545801801  0.006434783070557337  1.0000
  C   C329      1.0  0.13246573789599264  0.597896624836026  0.013882679683573151  1.0000
  C   C330      1.0  0.10750736656262982  0.6137998611373449  0.03452284118414273  1.0000
  C   C331      1.0  0.09450625329024086  0.5820815160929536  0.01370027927370887  1.0000
  C   C332      1.0  0.11795670971450287  0.6110233911636722  0.963812898014587  1.0000
  H   H313      1.0  0.13743579137550693  0.5887211162247976  0.9928178262183166  1.0000
  H   H314      1.0  0.12904708653015037  0.5901890985263358  0.04544419736907046  1.0000
  H   H315      1.0  0.1467380887617347  0.6120281021119947  0.009457634250135571  1.0000
  H   H316      1.0  0.12121562628139058  0.6283678690542611  0.029689031970013602  1.0000
  H   H317      1.0  0.09284130177313489  0.6165573948229198  0.030124058522913444  1.0000
  H   H318      1.0  0.10408803831842384  0.6069911466908352  0.06699709490476358  1.0000
  H   H319      1.0  0.09039324189046095  0.5743587437748153  0.04573080332458912  1.0000
  H   H320      1.0  0.09837725202349593  0.5721287484573562  0.9934060744618834  1.0000
  H   H321      1.0  0.07956645796812092  0.5839138923284318  0.008038562840909869  1.0000
  H   H322      1.0  0.10371959213012821  0.6138153053930704  0.956974874283848  1.0000
  H   H323      1.0  0.12244575112006653  0.6020054010281481  0.9417836182346617  1.0000
  H   H324      1.0  0.13209141139870384  0.6253967793627182  0.9573473085078776  1.0000
  N   N12       1.0  0.5863064047666853  0.5260549954846077  0.5873619795716212  1.0000
  C   C333      1.0  0.58260646711614  0.505546573568644  0.5826218590581129  1.0000
  C   C334      1.0  0.5665704855001005  0.5299851824831772  0.5844141533718401  1.0000
  C   C335      1.0  0.605231349754368  0.5394530946115785  0.5548373720782025  1.0000
  C   C336      1.0  0.5908873154508908  0.5291346829947786  0.6276200561044756  1.0000
  H   H325      1.0  0.5780896626138294  0.5022809317127404  0.553559150451022  1.0000
  H   H326      1.0  0.5694210008905076  0.4948964598035507  0.6079708082965111  1.0000
  H   H327      1.0  0.5975819100308174  0.5024338398428552  0.5825793586117494  1.0000
  H   H328      1.0  0.5690009801036103  0.5455096200047784  0.5865945069087326  1.0000
  H   H329      1.0  0.5621401363366216  0.5270798937800989  0.5549890492525235  1.0000
  H   H330      1.0  0.552196345731971  0.5204933795683467  0.6093602905057405  1.0000
  H   H331      1.0  0.6085545116412189  0.5551113782076181  0.5572006146853785  1.0000
  H   H332      1.0  0.6024596478809463  0.5372851395377688  0.5240290361149348  1.0000
  H   H333      1.0  0.6203899037495114  0.5368514904817836  0.5565214014101888  1.0000
  H   H334      1.0  0.5934197922691523  0.5443533176343668  0.6327213239905817  1.0000
  H   H335      1.0  0.6058608037553623  0.5265359625845684  0.6304881244248148  1.0000
  H   H336      1.0  0.5772592343642149  0.5187572906343781  0.6528544167867402  1.0000
  N   N13       1.0  0.6634609550096568  0.5561113142090587  0.7988857044384801  1.0000
  C   C337      1.0  0.6587132964218109  0.5670515072991814  0.8314386370966672  1.0000
  C   C338      1.0  0.6536465670917206  0.559822265227491  0.765221970344384  1.0000
  C   C339      1.0  0.6540405328745734  0.5348540411159519  0.8155359416875515  1.0000
  C   C340      1.0  0.6874127730073898  0.5626945825335633  0.7833377804302624  1.0000
  H   H337      1.0  0.6408271009227112  0.5619100812055828  0.8449836631145462  1.0000
  H   H338      1.0  0.6646649612798325  0.5830586813136767  0.8195902878240259  1.0000
  H   H339      1.0  0.6664821777348039  0.565088456274505  0.856704078723917  1.0000
  H   H340      1.0  0.6564051512431642  0.5512719274573951  0.7407222314111019  1.0000
  H   H341      1.0  0.6356675192968224  0.5555914165212725  0.7762234651612814  1.0000
  H   H342      1.0  0.6607446671540854  0.5756207614680668  0.7510988459248766  1.0000
  H   H343      1.0  0.6606558105966368  0.5314699627853527  0.8415858440572638  1.0000
  H   H344      1.0  0.6578455293171015  0.5262366792658505  0.7919939897365394  1.0000
  H   H345      1.0  0.6358840243914143  0.5293259148681518  0.8264500965281493  1.0000
  H   H346      1.0  0.6916070664227651  0.5550973140173328  0.7580454840915924  1.0000
  H   H347      1.0  0.6953145094032124  0.5595658980308278  0.8075663864337457  1.0000
  H   H348      1.0  0.6950801441844942  0.5787347300405941  0.7711943820746002  1.0000
  N   N14       1.0  0.48361778421579815  0.586705618434054  0.0920771874889292  1.0000
  C   C341      1.0  0.4828726038042693  0.5963403967514894  0.05264537671507242  1.0000
  C   C342      1.0  0.4629669211345681  0.5825030146714233  0.1226728726942972  1.0000
  C   C343      1.0  0.502114967236833  0.5999492582156735  0.10598293876229034  1.0000
  C   C344      1.0  0.4866137238135434  0.5681218293457097  0.08696836226322811  1.0000
  H   H349      1.0  0.4980444874970711  0.599321040439562  0.028738101929676244  1.0000
  H   H350      1.0  0.48109537570152106  0.610597327570733  0.05528444978161352  1.0000
  H   H351      1.0  0.4688345570565541  0.5870611899657187  0.04152465893802339  1.0000
  H   H352      1.0  0.4631229050876443  0.5754702347076177  0.1529495508260579  1.0000
  H   H353      1.0  0.4599186242362232  0.5961337475598513  0.12694924865926066  1.0000
  H   H354      1.0  0.4486847367818218  0.5723576182151776  0.11337866989979162  1.0000
  H   H355      1.0  0.5000195372719352  0.6138514386768215  0.11127173526810606  1.0000
  H   H356      1.0  0.5179236559467575  0.603812142285716  0.08318223347855487  1.0000
  H   H357      1.0  0.5036302760933004  0.5930153788828348  0.13506062199091215  1.0000
  H   H358      1.0  0.5017655944803097  0.5706364778247989  0.06341916316788117  1.0000
  H   H359      1.0  0.47279416985158706  0.5575554591377352  0.07725870741342485  1.0000
  H   H360      1.0  0.48771342421776287  0.5606450385395083  0.11593833534521887  1.0000
  N   N15       1.0  0.603777722697703  0.7408118848657359  0.9931773787726934  1.0000
  C   C345      1.0  0.6083505502795243  0.7598160709174037  0.007627354378598072  1.0000
  C   C346      1.0  0.5801174454615394  0.728788981943862  0.006563177595537262  1.0000
  C   C347      1.0  0.6159182294353637  0.7301894005359967  0.010329943139625541  1.0000
  C   C348      1.0  0.6105876815797076  0.7443213713268296  0.9481678040443644  1.0000
  H   H361      1.0  0.625975437195859  0.7695344314899778  0.9972737775714832  1.0000
  H   H362      1.0  0.6038652192907203  0.7577487440997728  0.041521226254967125  1.0000
  H   H363      1.0  0.5988516991092856  0.7679118668036479  0.9962979798712441  1.0000
  H   H364      1.0  0.5762649852500403  0.7142551607146999  0.9966592190952527  1.0000
  H   H365      1.0  0.5742832064479786  0.7259682268612659  0.04035838719863416  1.0000
  H   H366      1.0  0.5703089172307886  0.7360910058654875  0.9937613063546783  1.0000
  H   H367      1.0  0.6108267609955603  0.7270232013284919  0.04426854601184882  1.0000
  H   H368      1.0  0.6338735370354927  0.73879740527144  0.001142226050821371  1.0000
  H   H369      1.0  0.6127317284165053  0.7157609248360476  0.9999870974443726  1.0000
  H   H370      1.0  0.6283951710797708  0.7533161475497243  0.9368576304655954  1.0000
  H   H371      1.0  0.6015920708996852  0.7522540703694879  0.9344402353695138  1.0000
  H   H372      1.0  0.6072255362655568  0.7302357080487694  0.9363106579165202  1.0000
  N   N16       1.0  0.5297039519304146  0.41602387484173825  0.5849738936057538  1.0000
  C   C349      1.0  0.5147276612835455  0.4123100064762431  0.6254691846985132  1.0000
  C   C350      1.0  0.5172893264220167  0.414439225760738  0.5531650505009293  1.0000
  C   C351      1.0  0.5400231722689927  0.40142769612965873  0.5836346345045422  1.0000
  C   C352      1.0  0.5469050505058477  0.4359315762094011  0.5776772145542552  1.0000
  H   H373      1.0  0.5237002032217797  0.4134635657824154  0.6499113272518373  1.0000
  H   H374      1.0  0.5017054824815007  0.39730031117538706  0.6324444442491319  1.0000
  H   H375      1.0  0.506664219440208  0.4230892337093565  0.6278439601211415  1.0000
  H   H376      1.0  0.5281991660933766  0.4175196891432949  0.5221591146147009  1.0000
  H   H377      1.0  0.5045526448501594  0.39942916712779236  0.557144384647754  1.0000
  H   H378      1.0  0.5090477333698712  0.42509384092448027  0.5536824458703555  1.0000
  H   H379      1.0  0.5515259162634621  0.40390083921254877  0.5536186860860857  1.0000
  H   H380      1.0  0.5276769599565991  0.3861519953292511  0.588752481734151  1.0000
  H   H381      1.0  0.5495703783998325  0.4022959069047143  0.6071692928533188  1.0000
  H   H382      1.0  0.5583979223922128  0.439176511837995  0.5472061968306514  1.0000
  H   H383      1.0  0.5568424067624342  0.43759478290667136  0.6007436257608182  1.0000
  H   H384      1.0  0.5398259829695039  0.4474231828711676  0.5789233480037297  1.0000
  N   N17       1.0  0.971268566227722  0.5625206911845045  0.540017434237618  1.0000
  C   C353      1.0  0.9949054610374629  0.5713502388018706  0.5201274210094086  1.0000
  C   C354      1.0  0.9587356383035944  0.5671474439075226  0.5120918905723166  1.0000
  C   C355      1.0  0.967011278940341  0.5704526866421042  0.5778272532547776  1.0000
  C   C356      1.0  0.9644173141517896  0.5410129238212391  0.5501592536574325  1.0000
  H   H385      1.0  0.0008208630525199379  0.5876030198167783  0.5121358565573499  1.0000
  H   H386      1.0  0.9986809535586486  0.5655282407703125  0.491658936897748  1.0000
  H   H387      1.0  0.004699422385588514  0.5678162837427829  0.5403738454278091  1.0000
  H   H388      1.0  0.9407943030502561  0.5606248606723404  0.5262276139113551  1.0000
  H   H389      1.0  0.9634345288923531  0.5832625674029268  0.5037663974038779  1.0000
  H   H390      1.0  0.9614042702547938  0.5612264213055977  0.48336759571793547  1.0000
  H   H391      1.0  0.9492814169576806  0.5641688975493745  0.593440345748555  1.0000
  H   H392      1.0  0.972273600958424  0.5866965080635135  0.5716001895424475  1.0000
  H   H393      1.0  0.9757076336562363  0.5666950052155137  0.6000885141391458  1.0000
  H   H394      1.0  0.9731271172302094  0.5369617093715009  0.5720657189884443  1.0000
  H   H395      1.0  0.9679527963268382  0.5345485674176662  0.5225729724527499  1.0000
  H   H396      1.0  0.9466275333699802  0.5338239748501514  0.564571879887121  1.0000
  N   N18       1.0  0.6214011657962235  0.096003679989536  0.24539191767303872  1.0000
  C   C357      1.0  0.6067123986446302  0.08190849649372207  0.2253502246767649  1.0000
  C   C358      1.0  0.6265822870968072  0.11633641003817273  0.2256665099858339  1.0000
  C   C359      1.0  0.6418506903195003  0.09243080845782974  0.24215884900850523  1.0000
  C   C360      1.0  0.610453271843533  0.09336563704110001  0.2887852987567046  1.0000
  H   H397      1.0  0.6024317162617862  0.06644795592288752  0.23991429243734982  1.0000
  H   H398      1.0  0.6144475314103719  0.08338960395263996  0.19251616676103903  1.0000
  H   H399      1.0  0.5910645177754372  0.08411544968781753  0.22744040981195027  1.0000
  H   H400      1.0  0.6373546166506292  0.1272498085132309  0.24079933658130812  1.0000
  H   H401      1.0  0.6350932543062434  0.11905537718888491  0.19288410708150155  1.0000
  H   H402      1.0  0.6115008874096978  0.11952554946411886  0.22766074690022148  1.0000
  H   H403      1.0  0.6507580203000214  0.09451813724341729  0.20982386895932315  1.0000
  H   H404      1.0  0.6385107000441526  0.07718001847122292  0.2566027360535969  1.0000
  H   H405      1.0  0.6531059410090624  0.10253206917675133  0.2578067539255232  1.0000
  H   H406      1.0  0.6211893085399869  0.10364732427387358  0.3047310739999433  1.0000
  H   H407      1.0  0.6063796012206449  0.0782958889804655  0.3048512217531054  1.0000
  H   H408      1.0  0.5950574553600921  0.09613074502384288  0.2927184652310454  1.0000
  N   N19       1.0  0.6652522219418465  0.16364690230462536  0.5576535498493232  1.0000
  C   C361      1.0  0.6795815685175414  0.18426728533020176  0.5398114869683001  1.0000
  C   C362      1.0  0.6775372429458709  0.15078242614295595  0.5495915889371038  1.0000
  C   C363      1.0  0.6463161438900034  0.15753169902337288  0.5391399244940852  1.0000
  C   C364      1.0  0.6574815042367448  0.16197938970974404  0.6021188536862547  1.0000
  H   H409      1.0  0.6705039848944415  0.19421148883665182  0.5439563767144179  1.0000
  H   H410      1.0  0.6867596493040757  0.18590358081574063  0.5066662564511818  1.0000
  H   H411      1.0  0.6933795841152266  0.18975510297352358  0.5546702814620074  1.0000
  H   H412      1.0  0.6668498159414696  0.13506416506410424  0.5609730312903544  1.0000
  H   H413      1.0  0.6845185014636817  0.15229725427387922  0.5163861938523642  1.0000
  H   H414      1.0  0.6912035094869308  0.15423848581412472  0.5650127033937997  1.0000
  H   H415      1.0  0.6349473907806334  0.14215251735606318  0.5525710129502963  1.0000
  H   H416      1.0  0.6516626800294317  0.15835798401113127  0.5056318452243628  1.0000
  H   H417      1.0  0.636787000573468  0.16707378522451277  0.5443240809914058  1.0000
  H   H418      1.0  0.6471622096027585  0.1465267185428836  0.616928613848058  1.0000
  H   H419      1.0  0.6475459599506072  0.17099276129898222  0.6092056177366599  1.0000
  H   H420      1.0  0.6713838773068965  0.16722293709199265  0.6169250434883505  1.0000
  N   N20       1.0  0.5781237420440665  0.9664620063442361  0.33126499071908116  1.0000
  C   C365      1.0  0.5590109320603932  0.9635506308436551  0.3137732999519121  1.0000
  C   C366      1.0  0.5754696173030119  0.9476165193728593  0.35493294778200235  1.0000
  C   C367      1.0  0.5797306494399712  0.9813109643747394  0.3581748488359287  1.0000
  C   C368      1.0  0.5982496097344683  0.973316578000046  0.2980030672093008  1.0000
  H   H421      1.0  0.5607289046765956  0.9772635632273907  0.29454009333217823  1.0000
  H   H422      1.0  0.5435606575902415  0.9589469822536405  0.3379026470473032  1.0000
  H   H423      1.0  0.5569446715821827  0.9520148584687214  0.294305261811062  1.0000
  H   H424      1.0  0.5602965520671745  0.9418617944011677  0.38000741768380586  1.0000
  H   H425      1.0  0.5743129350046762  0.9361845443407402  0.3351608272864637  1.0000
  H   H426      1.0  0.5895520070204621  0.9492132515336337  0.368741301468741  1.0000
  H   H427      1.0  0.5813334957552547  0.9955625760867893  0.34121453550830927  1.0000
  H   H428      1.0  0.5942384482611524  0.9842371703171119  0.3713203541544771  1.0000
  H   H429      1.0  0.5649213201363494  0.9765437590276757  0.3838815625319028  1.0000
  H   H430      1.0  0.5975337221572445  0.9624775176931792  0.2770318762035682  1.0000
  H   H431      1.0  0.6130179711505851  0.9756814638857286  0.3100802328568911  1.0000
  H   H432      1.0  0.6007202190666274  0.9874368381622064  0.27935890391166496  1.0000
  N   N21       1.0  0.6890110087261632  0.1942591431016581  0.7548279180049903  1.0000
  C   C369      1.0  0.6883319953876079  0.20715324545847277  0.7854503917803184  1.0000
  C   C370      1.0  0.6831660539180003  0.1739862195757342  0.7757030351934185  1.0000
  C   C371      1.0  0.7113121740851429  0.20150943496441712  0.7279479118766078  1.0000
  C   C372      1.0  0.6731860014380905  0.19441411938673994  0.7302730492558948  1.0000
  H   H433      1.0  0.6925151236114693  0.22252350694756032  0.7705522691099104  1.0000
  H   H434      1.0  0.7001586360619397  0.20745195237031702  0.8043930349018927  1.0000
  H   H435      1.0  0.6717427356251225  0.20206428792072556  0.8063449366684518  1.0000
  H   H436      1.0  0.6834594292239975  0.1639041544452613  0.7534269401694956  1.0000
  H   H437      1.0  0.6948399296179095  0.1731234174174987  0.7942258912775646  1.0000
  H   H438      1.0  0.666389537319648  0.1680146773550218  0.7961003771226107  1.0000
  H   H439      1.0  0.7123360170192587  0.19237192537429676  0.703999478558138  1.0000
  H   H440      1.0  0.7236700569309564  0.20127190257157695  0.7452375399546346  1.0000
  H   H441      1.0  0.7162704248427726  0.21677893450423774  0.7116372415264132  1.0000
  H   H442      1.0  0.6776511485917426  0.20923521488772756  0.7122645229479512  1.0000
  H   H443      1.0  0.6563257824873421  0.18987240654268403  0.7497390937461919  1.0000
  H   H444      1.0  0.6724493715624079  0.18409983835600427  0.7081110343316988  1.0000
  N   N22       1.0  0.5117173590628546  0.5121121164303357  0.8265961991007658  1.0000
  C   C373      1.0  0.5355357750566972  0.5220274604791261  0.8090255040407744  1.0000
  C   C374      1.0  0.5021237875338141  0.5270209957398806  0.8338327330660542  1.0000
  C   C375      1.0  0.5077148148781067  0.49926490629193077  0.8656545253425272  1.0000
  C   C376      1.0  0.5015675668859169  0.5000987322170705  0.7979126717519431  1.0000
  H   H445      1.0  0.5432134276738064  0.5111708815186518  0.803103002415525  1.0000
  H   H446      1.0  0.5438333062332285  0.5310566129047501  0.8299965009165556  1.0000
  H   H447      1.0  0.5392371587614467  0.5319328855053352  0.7796314384222519  1.0000
  H   H448      1.0  0.48413616821643735  0.5201301211287434  0.8469410831997849  1.0000
  H   H449      1.0  0.5093417641172456  0.5362210201673686  0.8555731073332203  1.0000
  H   H450      1.0  0.5050702437994933  0.5371845376585617  0.8051564682129615  1.0000
  H   H451      1.0  0.4899356034367164  0.49182796517405786  0.8802958894385357  1.0000
  H   H452      1.0  0.5157174666170639  0.5077146141513682  0.8876552689636581  1.0000
  H   H453      1.0  0.5143346831593426  0.48757741000150845  0.8611561431657414  1.0000
  H   H454      1.0  0.4835654162217616  0.4924517298064108  0.809931172916204  1.0000
  H   H455      1.0  0.5083148289345033  0.48857272590812684  0.7921250451200456  1.0000
  H   H456      1.0  0.5044908029978761  0.5091867111302106  0.7677879518156455  1.0000
  N   N23       1.0  0.8765059000332872  0.2881116816679203  0.63357977618073  1.0000
  C   C377      1.0  0.899761829994299  0.30143374714355003  0.6251787721945593  1.0000
  C   C378      1.0  0.8744099512868544  0.26758274487464767  0.644174036823446  1.0000
  C   C379      1.0  0.8681033046951989  0.2901299822119604  0.5969928218346232  1.0000
  C   C380      1.0  0.8636685688904707  0.2932682742122963  0.6680418318541843  1.0000
  H   H457      1.0  0.9019280862339432  0.3170318985540116  0.6166010458775211  1.0000
  H   H458      1.0  0.9100573730398335  0.29788347541892696  0.599672133688346  1.0000
  H   H459      1.0  0.9065344449273862  0.30070387199924736  0.6524382449440652  1.0000
  H   H460      1.0  0.8805796921462821  0.2655016585401548  0.671676936438398  1.0000
  H   H461      1.0  0.857001357685034  0.25722842860127215  0.650701081422258  1.0000
  H   H462      1.0  0.883813768682764  0.2631497009130355  0.6187609470807948  1.0000
  H   H463      1.0  0.8505073067266274  0.28041848979677714  0.6023809370003762  1.0000
  H   H464      1.0  0.8772690621616187  0.28626436549432377  0.5703291211940869  1.0000
  H   H465      1.0  0.8694296752373334  0.30543727680957317  0.5880485323183665  1.0000
  H   H466      1.0  0.8459064980645062  0.2839062700797039  0.674608661081679  1.0000
  H   H467      1.0  0.8651552697424086  0.3087514289779694  0.6613822881959474  1.0000
  H   H468      1.0  0.8692749921219831  0.29166445175128797  0.6964023835869528  1.0000
  N   N24       1.0  0.5476407086463716  0.6584973023198126  0.17923741855391162  1.0000
  C   C381      1.0  0.5289996084408286  0.6582394926332328  0.2108949484346332  1.0000
  C   C382      1.0  0.5618868870642852  0.6790192838070858  0.16050041990422753  1.0000
  C   C383      1.0  0.5393010910907872  0.6476791541010597  0.14757393067061175  1.0000
  C   C384      1.0  0.5604155602775134  0.6490480508588976  0.19776717661211665  1.0000
  H   H469      1.0  0.5189153969050214  0.665127039999849  0.19773989480887244  1.0000
  H   H470      1.0  0.534609818564729  0.666313179107414  0.23531397131266968  1.0000
  H   H471      1.0  0.5179373813567081  0.6429559331318407  0.22579405829965188  1.0000
  H   H472      1.0  0.5760964050796631  0.6796569857381218  0.13649598208271377  1.0000
  H   H473      1.0  0.5528725932425196  0.6865220524199828  0.14563850031649317  1.0000
  H   H474      1.0  0.5683811600427517  0.6876747169089178  0.18353705099246168  1.0000
  H   H475      1.0  0.5308786598599764  0.6551625700241728  0.1311275029312089  1.0000
  H   H476      1.0  0.5275085525342422  0.6324627298721313  0.16101081943153692  1.0000
  H   H477      1.0  0.552805542680002  0.6465152137816558  0.12441627838641008  1.0000
  H   H478      1.0  0.5746045880787686  0.6490494200752153  0.17457449796166885  1.0000
  H   H479      1.0  0.550349458116623  0.6334232854280707  0.2112626841141641  1.0000
  H   H480      1.0  0.566725078997212  0.6565598228340459  0.22231139894434646  1.0000
  N   N25       1.0  0.6574813035164867  0.48145919357471095  0.4098836564765214  1.0000
  C   C385      1.0  0.6520465969529676  0.4844348282903849  0.37029211452573735  1.0000
  C   C386      1.0  0.6371282014289624  0.47007849922104644  0.44139357728501116  1.0000
  C   C387      1.0  0.6684468675445535  0.5007323084786695  0.42121691651610915  1.0000
  C   C388      1.0  0.672210166925892  0.47058093065510503  0.4066604166360081  1.0000
  H   H481      1.0  0.6669895100667114  0.4930236495639158  0.34570076220298324  1.0000
  H   H482      1.0  0.6408945317072383  0.49258139049783933  0.3717936654581196  1.0000
  H   H483      1.0  0.6436466897514797  0.47013841719155763  0.3610592708504097  1.0000
  H   H484      1.0  0.6403852350460556  0.46830653486586665  0.4721076870362102  1.0000
  H   H485      1.0  0.6252622027102585  0.4774262888099707  0.4433770091174864  1.0000
  H   H486      1.0  0.628906301097566  0.455030237109564  0.43521757108347064  1.0000
  H   H487      1.0  0.6722573745528728  0.4990280536017093  0.4515215755665884  1.0000
  H   H488      1.0  0.6579456653369116  0.5094726444599577  0.42318285615350965  1.0000
  H   H489      1.0  0.6841435744618304  0.5096077945157145  0.39868614926425994  1.0000
  H   H490      1.0  0.6771125461591795  0.46859603992591287  0.4356831276277807  1.0000
  H   H491      1.0  0.6874713932240436  0.47842111058932  0.3823367893072705  1.0000
  H   H492      1.0  0.6640989268037346  0.45558567730914507  0.4000731666188888  1.0000
  N   N26       1.0  0.5811841155765299  0.13349384072201737  0.47939536464126276  1.0000
  C   C389      1.0  0.581025583690371  0.15282222519521665  0.4642911803654295  1.0000
  C   C390      1.0  0.5798493729769777  0.1216309283940699  0.44650167725323814  1.0000
  C   C391      1.0  0.5623183909967582  0.12316681853415291  0.5146165998902121  1.0000
  C   C392      1.0  0.6016159295696468  0.1363180618794516  0.4923143874559727  1.0000
  H   H493      1.0  0.5821608973451947  0.1621899360651532  0.48830715218933274  1.0000
  H   H494      1.0  0.5657640399136727  0.15127588306263934  0.45453305290153717  1.0000
  H   H495      1.0  0.5950407501517291  0.16102118844779306  0.43764762459383133  1.0000
  H   H496      1.0  0.5647301670226978  0.11932332114292833  0.43566591344484973  1.0000
  H   H497      1.0  0.5940141023086023  0.12893639034929186  0.419699339318733  1.0000
  H   H498      1.0  0.5798133336911746  0.10690345164644606  0.4569762669662088  1.0000
  H   H499      1.0  0.562155148202558  0.10859897958352162  0.5268863537187657  1.0000
  H   H500      1.0  0.5465473431269325  0.12065984197655144  0.5061126002947488  1.0000
  H   H501      1.0  0.5628812621597554  0.13183352784318306  0.539923831588393  1.0000
  H   H502      1.0  0.6025350805440872  0.12202636824766958  0.5028285706689648  1.0000
  H   H503      1.0  0.6027694491177615  0.1445344992519124  0.5180137208501461  1.0000
  H   H504      1.0  0.6162260026406781  0.14471763629754852  0.4671312352476219  1.0000
  N   N27       1.0  0.7243806188266732  0.11451699126741831  0.5698652325202644  1.0000
  C   C393      1.0  0.7162329175575537  0.11961514622656322  0.609291799909198  1.0000
  C   C394      1.0  0.7063484691711102  0.10737856958255443  0.549262297722494  1.0000
  C   C395      1.0  0.7328583484158561  0.0989567444189038  0.5772322887679312  1.0000
  C   C396      1.0  0.7421696780125806  0.13208683880364677  0.543792346450834  1.0000
  H   H505      1.0  0.7294176592539228  0.12493542925199919  0.6256607616214378  1.0000
  H   H506      1.0  0.7027565482801914  0.10672325632913549  0.6298260967539645  1.0000
  H   H507      1.0  0.7097914282694817  0.1313993340651563  0.6051210546876744  1.0000
  H   H508      1.0  0.6992418938529551  0.11858689266504013  0.5438949951022265  1.0000
  H   H509      1.0  0.7118981101230729  0.10361112204722588  0.519135074074192  1.0000
  H   H510      1.0  0.6928233013013644  0.09394492106748867  0.5678848413369192  1.0000
  H   H511      1.0  0.7198449846688543  0.08549186428363727  0.5969376570192543  1.0000
  H   H512      1.0  0.7464849884003386  0.1039015934286436  0.5928112310760016  1.0000
  H   H513      1.0  0.7392015379033149  0.09477192460526271  0.5481314448844883  1.0000
  H   H514      1.0  0.748354072773945  0.12899983457202488  0.513343009329782  1.0000
  H   H515      1.0  0.7563467472564231  0.1373789272472546  0.5578003271509397  1.0000
  H   H516      1.0  0.7366589558067256  0.14444432430356216  0.5389929463974824  1.0000
  N   N28       1.0  0.5746868666040703  0.04145670844093218  0.6673165154121453  1.0000
  C   C397      1.0  0.5663293805888973  0.03380211083715254  0.6325115570263266  1.0000
  C   C398      1.0  0.5648657334550454  0.025924550479482996  0.7039462732653774  1.0000
  C   C399      1.0  0.5688431934299445  0.05846004879042893  0.6755260317841453  1.0000
  C   C400      1.0  0.5987460614316653  0.04767828176825944  0.6572346018416183  1.0000
  H   H517      1.0  0.5482166496584546  0.02892050417579445  0.6388961386354309  1.0000
  H   H518      1.0  0.5706112337663315  0.021020427677481003  0.6255039709128131  1.0000
  H   H519      1.0  0.5733950710503297  0.04521646619787807  0.6043416617558  1.0000
  H   H520      1.0  0.5697723571594758  0.013177291742901527  0.6998423486346013  1.0000
  H   H521      1.0  0.5700785669429922  0.031531948981944675  0.7311291266447506  1.0000
  H   H522      1.0  0.5466868687605513  0.02026513260652035  0.7114617822975559  1.0000
  H   H523      1.0  0.5751873856216194  0.06474268499125012  0.7013298158446969  1.0000
  H   H524      1.0  0.5507993205380382  0.054272742079436886  0.6835850874710118  1.0000
  H   H525      1.0  0.5758237571761583  0.07040531006864002  0.6485117433855727  1.0000
  H   H526      1.0  0.6037616281417908  0.03494694001322061  0.6543032399333547  1.0000
  H   H527      1.0  0.6059636913693573  0.055255133893093805  0.6809060253468376  1.0000
  H   H528      1.0  0.6064688891263837  0.0580888010354042  0.6278981991351036  1.0000
  N   N29       1.0  0.9147820209351981  0.4002002664674989  0.7935304245795951  1.0000
  C   C401      1.0  0.9073726157993887  0.3885764879514379  0.8351011754039406  1.0000
  C   C402      1.0  0.9388510885017328  0.41020137310015264  0.7829314547730604  1.0000
  C   C403      1.0  0.9047973205830361  0.4150425086275454  0.7920174276406242  1.0000
  C   C404      1.0  0.9081420301962977  0.38702180015970605  0.7641298583992304  1.0000
  H   H529      1.0  0.889244972487835  0.3808566405566617  0.8440445559648533  1.0000
  H   H530      1.0  0.9121408327720613  0.3981292900881335  0.8579905523314613  1.0000
  H   H531      1.0  0.9146495656844983  0.37726985558994175  0.8373215089962505  1.0000
  H   H532      1.0  0.9449159624670304  0.41938002427263976  0.7520343866729483  1.0000
  H   H533      1.0  0.9443784310626414  0.42024168461922073  0.8046187654046529  1.0000
  H   H534      1.0  0.947088473318306  0.3995489153570441  0.7833246595490739  1.0000
  H   H535      1.0  0.8866012659721625  0.40808670476008196  0.8002040961629255  1.0000
  H   H536      1.0  0.9097803045155307  0.4239256355388405  0.7609142096403699  1.0000
  H   H537      1.0  0.9098728639814436  0.42555896173011776  0.8131017803121973  1.0000
  H   H538      1.0  0.9128599072126659  0.39544431239238403  0.7326697820372131  1.0000
  H   H539      1.0  0.890066858330955  0.37894456599460064  0.771689148644365  1.0000
  H   H540      1.0  0.915846263191668  0.37595841712409833  0.7635269337260991  1.0000
  N   N30       1.0  0.48588058520388305  0.9533248881615094  0.02668480439174359  1.0000
  C   C405      1.0  0.4658913300538245  0.9378984554977635  0.02135765997276562  1.0000
  C   C406      1.0  0.5027923289951692  0.9451194544134898  0.028517577379996162  1.0000
  C   C407      1.0  0.4806454482758465  0.9605983264142978  0.06498538318537617  1.0000
  C   C408      1.0  0.4942694336008579  0.96973618407979  0.9918443614589004  1.0000
  H   H541      1.0  0.45244405624681766  0.9433288199257583  0.021829312958181024  1.0000
  H   H542      1.0  0.45972949881429387  0.9247668780498925  0.04584524463239892  1.0000
  H   H543      1.0  0.4688870695353258  0.9327157063815321  0.991870099349476  1.0000
  H   H544      1.0  0.5077793539715177  0.9402269534160835  0.9994581180157336  1.0000
  H   H545      1.0  0.5178108862380313  0.9562380647641462  0.03377692145425315  1.0000
  H   H546      1.0  0.4969467007777574  0.9324838177131984  0.05394604994011254  1.0000
  H   H547      1.0  0.468703766259403  0.9677403478478783  0.06409218256056692  1.0000
  H   H548      1.0  0.4955741822998759  0.9714604013251366  0.07121819236254412  1.0000
  H   H549      1.0  0.4734010963085972  0.9484302607256344  0.09168887232668799  1.0000
  H   H550      1.0  0.5092985905281073  0.9816510208312441  0.995002366012933  1.0000
  H   H551      1.0  0.48193082320230807  0.9762209171066046  0.9890422676239607  1.0000
  H   H552      1.0  0.4988170400943194  0.9648176129351922  0.9625132772716614  1.0000
  N   N31       1.0  0.3448597670824353  0.5196143691289015  0.9597528795590564  1.0000
  C   C409      1.0  0.350014267400785  0.5047979082288504  0.9834184961806176  1.0000
  C   C410      1.0  0.3524599221179245  0.5383511808086767  0.9751346823150787  1.0000
  C   C411      1.0  0.3209623129159347  0.5126860092807346  0.9642256385525901  1.0000
  C   C412      1.0  0.35601927052456944  0.5226595298912767  0.9162610487818108  1.0000
  H   H553      1.0  0.3445241831919479  0.4904513136614234  0.9727213205467877  1.0000
  H   H554      1.0  0.34182080041720336  0.5020783012692583  0.016347975151121963  1.0000
  H   H555      1.0  0.3679342235823384  0.5096308754927606  0.9808739199513535  1.0000
  H   H556      1.0  0.34466791232069516  0.5364516530174993  0.00813914041045094  1.0000
  H   H557      1.0  0.37052575830724827  0.5442173294971883  0.9714255353321801  1.0000
  H   H558      1.0  0.34845105777903396  0.5497640713803132  0.9585290017964948  1.0000
  H   H559      1.0  0.3164586618723259  0.5233168582494401  0.9461867368900652  1.0000
  H   H560      1.0  0.3121564850345101  0.5107658963379473  0.9965236337206419  1.0000
  H   H561      1.0  0.3144135650908472  0.4982411281879846  0.9542703629978214  1.0000
  H   H562      1.0  0.35264267740081723  0.5338707105363405  0.8975410312190192  1.0000
  H   H563      1.0  0.3506471091599586  0.5088102220151755  0.9036765602064951  1.0000
  H   H564      1.0  0.37410240176533316  0.5278369407910465  0.9118846684136741  1.0000
  N   N32       1.0  0.0013197531139377272  0.5369765374025308  0.2904351592601654  1.0000
  C   C413      1.0  0.0062895802857920735  0.5190328746647523  0.2932921314151051  1.0000
  C   C414      1.0  0.9993154877620651  0.5421594259453214  0.24871555008758772  1.0000
  C   C415      1.0  0.019164482543252426  0.5533502464022589  0.29957081598721713  1.0000
  C   C416      1.0  0.9805000475023602  0.5333670008022666  0.32001062590436563  1.0000
  H   H565      1.0  0.007678247557147522  0.5144990010869942  0.3244123999777089  1.0000
  H   H566      1.0  0.02209927932126976  0.5212949985615195  0.27195746923667263  1.0000
  H   H567      1.0  0.9932357123833612  0.506386547477644  0.28639086837336286  1.0000
  H   H568      1.0  0.9958414487481055  0.5557781561395961  0.2452709407502984  1.0000
  H   H569      1.0  0.014684646085068476  0.5447490261648036  0.22559091323737687  1.0000
  H   H570      1.0  0.9858222478567321  0.5302067294910601  0.2410060108032774  1.0000
  H   H571      1.0  0.015507367609014056  0.56688414849753  0.29965997651076337  1.0000
  H   H572      1.0  0.034875218264952546  0.5571434734254724  0.2766141835138763  1.0000
  H   H573      1.0  0.022030103247538513  0.5495684160926744  0.32989632676733704  1.0000
  H   H574      1.0  0.9758116209010047  0.5463430953507382  0.31796910261515693  1.0000
  H   H575      1.0  0.9816108342747702  0.5299711075968442  0.3518967900869789  1.0000
  H   H576      1.0  0.9667835403012761  0.5206101109043192  0.3150908723624797  1.0000
  N   N33       1.0  0.7079095155884769  0.2440872313359431  0.4213917925534592  1.0000
  C   C417      1.0  0.6958625860700621  0.2226870953447849  0.4259874031888  1.0000
  C   C418      1.0  0.7075129400688036  0.2538135049857688  0.38172991228694325  1.0000
  C   C419      1.0  0.7307866837615853  0.24807779637531036  0.42320448650458464  1.0000
  C   C420      1.0  0.6973996893714862  0.25168239111018087  0.45473651554270683  1.0000
  H   H577      1.0  0.6786195609700431  0.2191453995827707  0.42429401209837814  1.0000
  H   H578      1.0  0.6956936575398479  0.21492268107951668  0.4556940779421845  1.0000
  H   H579      1.0  0.7035405132682377  0.21641180610950175  0.4016225383519798  1.0000
  H   H580      1.0  0.7163420579925907  0.27001032660360075  0.37722642099034087  1.0000
  H   H581      1.0  0.7152616776935666  0.2483433073810214  0.35593243425216137  1.0000
  H   H582      1.0  0.6904036121392059  0.2509239745774828  0.37943440133214557  1.0000
  H   H583      1.0  0.7315742143995158  0.24110050286684476  0.45302207356097696  1.0000
  H   H584      1.0  0.7405403535676163  0.2640946805727791  0.4192866950860651  1.0000
  H   H585      1.0  0.7390774718042967  0.24203464791195214  0.3992082734802518  1.0000
  H   H586      1.0  0.706290701748881  0.26772334881048515  0.4529535315489049  1.0000
  H   H587      1.0  0.6969349948606429  0.24431542018583002  0.48519355185833024  1.0000
  H   H588      1.0  0.68025192560812  0.24931581156738591  0.45382425847835783  1.0000
  N   N34       1.0  0.2898619193963899  0.7670807654911949  0.023645312456873846  1.0000
  C   C421      1.0  0.28510913121063824  0.7540176195338842  0.06278489801476472  1.0000
  C   C422      1.0  0.308703442558601  0.7854552893680404  0.021508085430336  1.0000
  C   C423      1.0  0.27046069204304546  0.7716092902699448  0.02083267457148863  1.0000
  C   C424      1.0  0.29515409288101063  0.7571876776782926  0.9894756732112862  1.0000
  H   H589      1.0  0.27094647932685395  0.7400138195834612  0.06547467317640865  1.0000
  H   H590      1.0  0.2811608131045696  0.7610581211087594  0.08923491578340204  1.0000
  H   H591      1.0  0.2993375127477941  0.7501900951503054  0.06581127077678461  1.0000
  H   H592      1.0  0.32356419267117337  0.7824545841203423  0.023399628922845972  1.0000
  H   H593      1.0  0.31281148695016264  0.7957179682749718  0.9924067796508776  1.0000
  H   H594      1.0  0.30544520082227666  0.7932483712918998  0.0470768686190306  1.0000
  H   H595      1.0  0.25596051646030615  0.7579561975487072  0.022499896212949677  1.0000
  H   H596      1.0  0.27338322593769904  0.7813084988472497  0.9915224780812958  1.0000
  H   H597      1.0  0.2659546784348311  0.7790844731480095  0.046123039816903466  1.0000
  H   H598      1.0  0.299367023164842  0.766765919553411  0.9594315841831531  1.0000
  H   H599      1.0  0.28110881919813313  0.7435158092928891  0.9895907454492152  1.0000
  H   H600      1.0  0.3092937055936077  0.7530039180694119  0.9911777678609293  1.0000
  N   N35       1.0  0.1861527606534657  0.5051333497032672  0.9724965727928622  1.0000
  C   C425      1.0  0.18877799496069939  0.49396017390257874  0.008133475867647792  1.0000
  C   C426      1.0  0.18603088112865437  0.5241733922714803  0.9821737942020013  1.0000
  C   C427      1.0  0.1652565767581466  0.4937974447117852  0.9628189025252907  1.0000
  C   C428      1.0  0.2044743148556285  0.5086674571729031  0.9369125197664809  1.0000
  H   H601      1.0  0.1894758304228638  0.4796707200795614  0.0018253690702117714  1.0000
  H   H602      1.0  0.17501205138348838  0.4909309964380042  0.0352419801353607  1.0000
  H   H603      1.0  0.20395916426682859  0.5023439192396293  0.017232018827923648  1.0000
  H   H604      1.0  0.18258353145590006  0.5323732280241911  0.9570730347431484  1.0000
  H   H605      1.0  0.17321185787448876  0.5221533097659884  0.010294709679277248  1.0000
  H   H606      1.0  0.2019951576126777  0.5335819660121479  0.9873493036104575  1.0000
  H   H607      1.0  0.16234914665326367  0.5020572912827724  0.9368663034976322  1.0000
  H   H608      1.0  0.15110752908322478  0.49068661956780274  0.9892373167530011  1.0000
  H   H609      1.0  0.16488808383952527  0.47948512370986307  0.9545978592464405  1.0000
  H   H610      1.0  0.2029556431744775  0.5172401499589339  0.9096839231555381  1.0000
  H   H611      1.0  0.20508297906972012  0.49464623885226794  0.9285094164488137  1.0000
  H   H612      1.0  0.22051347814494923  0.5171608868573483  0.9431602847484752  1.0000
  N   N36       1.0  0.6235984015676191  0.031889293677106516  0.8964254425198034  1.0000
  C   C429      1.0  0.6324111288939305  0.03432183938158548  0.8519902053620311  1.0000
  C   C430      1.0  0.599569569158711  0.02592039525336556  0.9055987747298984  1.0000
  C   C431      1.0  0.6333836935544724  0.050757133421783805  0.9102161506239802  1.0000
  C   C432      1.0  0.6290504500266386  0.01667463696324121  0.9179618030312559  1.0000
  H   H613      1.0  0.6502933739446378  0.03764760480720581  0.8442165798175014  1.0000
  H   H614      1.0  0.6298996018071646  0.046607337150673105  0.8351014460858278  1.0000
  H   H615      1.0  0.6243030318582742  0.020871695139327812  0.8397308097756239  1.0000
  H   H616      1.0  0.5923136952677636  0.02343318709355188  0.9389606810792045  1.0000
  H   H617      1.0  0.5949279457892599  0.03734345639459363  0.8906933714604203  1.0000
  H   H618      1.0  0.591545591613161  0.01200674402435598  0.894693492766602  1.0000
  H   H619      1.0  0.6271333186821687  0.04948469616895751  0.9436258645378206  1.0000
  H   H620      1.0  0.6294425911286106  0.06251274150911491  0.8945357224954334  1.0000
  H   H621      1.0  0.6515259837223303  0.05581864408788902  0.903557039781558  1.0000
  H   H622      1.0  0.6218168488434489  0.0022237757879806108  0.9084047929186558  1.0000
  H   H623      1.0  0.6227297967946406  0.01455296653597054  0.951577298314967  1.0000
  H   H624      1.0  0.6470372145293715  0.020605954754642337  0.9116484132796765  1.0000
  N   N37       1.0  0.558857959943897  0.5313857577100689  0.18516347063218355  1.0000
  C   C433      1.0  0.5351092711808889  0.5236371085081961  0.18765123661738722  1.0000
  C   C434      1.0  0.5690121216837093  0.551870909218266  0.16298306378361063  1.0000
  C   C435      1.0  0.5688059344340839  0.5191598188886073  0.1631049272197844  1.0000
  C   C436      1.0  0.562498247602644  0.5308221179290522  0.22677690194708855  1.0000
  H   H625      1.0  0.52665031147726  0.5085555214483789  0.20588429341450334  1.0000
  H   H626      1.0  0.5317138113007333  0.522995937340992  0.1568990230089816  1.0000
  H   H627      1.0  0.5271484933605357  0.532973392976668  0.2023511821724185  1.0000
  H   H628      1.0  0.5665074272666543  0.55283958461861  0.1314741817672046  1.0000
  H   H629      1.0  0.5619087014075148  0.5615663756186776  0.17868660369500663  1.0000
  H   H630      1.0  0.586947340688002  0.5582004717836795  0.16040778008324552  1.0000
  H   H631      1.0  0.5867211275153345  0.5244852191855136  0.16080381619422202  1.0000
  H   H632      1.0  0.5664524272389935  0.5193805501257818  0.1314756937459111  1.0000
  H   H633      1.0  0.5613716749636056  0.50356424105592  0.17880292478827425  1.0000
  H   H634      1.0  0.5802517600433822  0.5365589383758534  0.22612814694286518  1.0000
  H   H635      1.0  0.5550315763880005  0.5155909581490897  0.24444740491724332  1.0000
  H   H636      1.0  0.5551739737770017  0.5398570209532338  0.24435009536018554  1.0000
  N   N38       1.0  0.22299855374819494  0.6063008007049461  0.021787640440996903  1.0000
  C   C437      1.0  0.20913638501058063  0.5852375147527558  0.027423350207408603  1.0000
  C   C438      1.0  0.24086939812001865  0.6114935561713715  0.9847104197695277  1.0000
  C   C439      1.0  0.2324468074101434  0.6104479942487503  0.05736749856805945  1.0000
  C   C440      1.0  0.20944883068554776  0.6179452862539911  0.01754336150282243  1.0000
  H   H637      1.0  0.19497173586237695  0.5810502531234282  0.05408583926201049  1.0000
  H   H638      1.0  0.21845799411727654  0.5758202929785973  0.032332568496159064  1.0000
  H   H639      1.0  0.20239473756817836  0.5815473452644219  0.00043067990565770486  1.0000
  H   H640      1.0  0.2515743055553623  0.6273476757800144  0.979298000568848  1.0000
  H   H641      1.0  0.25136447048310245  0.6029489357347259  0.9872156106887602  1.0000
  H   H642      1.0  0.23431770194395088  0.608484324630194  0.9573058957917869  1.0000
  H   H643      1.0  0.24394453291566617  0.6259964690407835  0.05301518851079301  1.0000
  H   H644      1.0  0.2416728575239904  0.6010227417972138  0.06313784355978003  1.0000
  H   H645      1.0  0.2195229272051385  0.607841887963323  0.08548817850651358  1.0000
  H   H646      1.0  0.21939367675207044  0.6339688578878384  0.011238209140159494  1.0000
  H   H647      1.0  0.19634397502476458  0.6149090605341946  0.0457347062588338  1.0000
  H   H648      1.0  0.20125426859318046  0.6144467915337908  0.9921737825475783  1.0000
  N   N39       1.0  0.5522904095222273  0.3217523607154383  0.4603537827232107  1.0000
  C   C441      1.0  0.5733273261994564  0.3387113011871136  0.45233701439018975  1.0000
  C   C442      1.0  0.5426469390628534  0.31595238932839564  0.5047931695083039  1.0000
  C   C443      1.0  0.5560692637909241  0.3051078515329654  0.44380601924959606  1.0000
  C   C444      1.0  0.5371271568633044  0.32732427994625013  0.4404987255467828  1.0000
  H   H649      1.0  0.5814811183819192  0.34309235329282756  0.4192393472592697  1.0000
  H   H650      1.0  0.5849306842611177  0.33542525860034306  0.46818505746722133  1.0000
  H   H651      1.0  0.5709478916083324  0.3517259668590142  0.4630601883741274  1.0000
  H   H652      1.0  0.5266848476813011  0.30326604289790465  0.5119564062285716  1.0000
  H   H653      1.0  0.5535804986720566  0.31165906125465964  0.5208626778475882  1.0000
  H   H654      1.0  0.5397634124602304  0.3282232040371668  0.5183662195706152  1.0000
  H   H655      1.0  0.5678718013911599  0.3009091181224358  0.45752792185961133  1.0000
  H   H656      1.0  0.5629921241321573  0.30883873226983943  0.410228590737113  1.0000
  H   H657      1.0  0.5406575724741821  0.2918462933202148  0.4501585155373438  1.0000
  H   H658      1.0  0.5339151110238302  0.33980875363848534  0.4526842249571736  1.0000
  H   H659      1.0  0.5210765332183203  0.3148821036651011  0.44569683318667686  1.0000
  H   H660      1.0  0.5439737519744327  0.33205879763778495  0.40699595630963126  1.0000
  N   N40       1.0  0.4884825396440715  0.8072277614249892  0.15388510990425502  1.0000
  C   C445      1.0  0.49460958316312736  0.8247733888107712  0.12267069835789499  1.0000
  C   C446      1.0  0.48391080806552067  0.8123778553436038  0.19486504917234274  1.0000
  C   C447      1.0  0.506674129395236  0.8002378118050781  0.1494105890939946  1.0000
  C   C448      1.0  0.46872221136726827  0.7916214038878631  0.14843872040396505  1.0000
  H   H661      1.0  0.5097681573527466  0.8366219159368766  0.12531959110148033  1.0000
  H   H662      1.0  0.48147882865140673  0.830730759137673  0.12609366588240084  1.0000
  H   H663      1.0  0.4975827623841109  0.8213751809829057  0.09131551652515404  1.0000
  H   H664      1.0  0.47939779627106355  0.7995699847111116  0.2193439792503162  1.0000
  H   H665      1.0  0.4984237693872075  0.8243484581303896  0.19970470440464116  1.0000
  H   H666      1.0  0.47023528722730024  0.8177127106999664  0.19917073571542976  1.0000
  H   H667      1.0  0.5217191494633974  0.8115650918114832  0.15418106039723956  1.0000
  H   H668      1.0  0.5109148800452037  0.7967512658717738  0.11837167066599631  1.0000
  H   H669      1.0  0.5024940379851534  0.7867720768028047  0.17196264443106807  1.0000
  H   H670      1.0  0.4634295131350271  0.7781859847176102  0.17172602506587703  1.0000
  H   H671      1.0  0.4716976457168976  0.7873573929189143  0.11784464268465508  1.0000
  H   H672      1.0  0.4548191161717619  0.7965905442471743  0.15100557795536118  1.0000
  N   N41       1.0  0.7839122764235962  0.48784961498356777  0.6408585000262332  1.0000
  C   C449      1.0  0.7615238930514314  0.47525397014425635  0.6395500847322373  1.0000
  C   C450      1.0  0.7976711135078755  0.4760618807466228  0.639435258674941  1.0000
  C   C451      1.0  0.7831648903742937  0.49606535455269885  0.6789819265738424  1.0000
  C   C452      1.0  0.7932608472127319  0.5040705875286844  0.6055211332021557  1.0000
  H   H673      1.0  0.75390295949062  0.4626913007966763  0.6654019131738168  1.0000
  H   H674      1.0  0.7613309667082174  0.4691443137538033  0.6107488937094976  1.0000
  H   H675      1.0  0.7506791338608053  0.48366446827926096  0.6411832183343494  1.0000
  H   H676      1.0  0.8144391271641584  0.48494458384987144  0.642013986724871  1.0000
  H   H677      1.0  0.7907459403566833  0.46333549541093993  0.6649472946459134  1.0000
  H   H678      1.0  0.7993727274665305  0.4702290581267087  0.610402568321471  1.0000
  H   H679      1.0  0.7998815048013501  0.5054200032894329  0.6811951578210129  1.0000
  H   H680      1.0  0.7758656743779744  0.48427983728648805  0.7063366010729696  1.0000
  H   H681      1.0  0.7733266275192262  0.5054288022395719  0.6806460934967195  1.0000
  H   H682      1.0  0.7940761774188673  0.4985105218978492  0.5761193652896357  1.0000
  H   H683      1.0  0.8101165003324869  0.5139163705068491  0.6055907750527015  1.0000
  H   H684      1.0  0.7833069677750316  0.5133176018275253  0.6057353950673053  1.0000
  N   N42       1.0  0.5231399809635555  0.6332082697369281  0.8853186541147945  1.0000
  C   C453      1.0  0.5438818903498701  0.6303701052724012  0.8717974060488195  1.0000
  C   C454      1.0  0.5116163318460253  0.6311213254691537  0.8521088902353513  1.0000
  C   C455      1.0  0.5279353883775597  0.6530405161388728  0.8958417395914102  1.0000
  C   C456      1.0  0.5090754132007114  0.6182761594857729  0.9214907037499189  1.0000
  H   H685      1.0  0.5531223721158056  0.631914847050989  0.8959272326092538  1.0000
  H   H686      1.0  0.5548445782229586  0.6412971236215046  0.844413474242065  1.0000
  H   H687      1.0  0.5409116721870058  0.615550319219227  0.8637204099465666  1.0000
  H   H688      1.0  0.49583895928683636  0.6331022357527489  0.8613850362594491  1.0000
  H   H689      1.0  0.5216917700283477  0.6420958916834488  0.8242126069282913  1.0000
  H   H690      1.0  0.5077657617752191  0.6162505860970036  0.8436030369604246  1.0000
  H   H691      1.0  0.5358847652553064  0.6548037483481555  0.9219009988850171  1.0000
  H   H692      1.0  0.5127189938308496  0.655952173273309  0.904883562059426  1.0000
  H   H693      1.0  0.5390543320824898  0.6646644328192522  0.8696580395443192  1.0000
  H   H694      1.0  0.4932003163852201  0.6199196172117283  0.9320823424303666  1.0000
  H   H695      1.0  0.5170447974403406  0.6195497080515507  0.9474276988028496  1.0000
  H   H696      1.0  0.5052757385664021  0.6031134094023739  0.914694558081905  1.0000
  N   N43       1.0  0.9401715874154288  0.45368855008972653  0.6179895209099943  1.0000
  C   C457      1.0  0.9320512582762847  0.4407246568231983  0.6582497253167494  1.0000
  C   C458      1.0  0.9625434433419363  0.4680830602186379  0.6144431185880381  1.0000
  C   C459      1.0  0.9255403347061378  0.46424458776204786  0.6137552645411152  1.0000
  C   C460      1.0  0.9404886907881733  0.44168426785622583  0.5855104038008625  1.0000
  H   H697      1.0  0.9317028354153694  0.44927767155830634  0.6835081690237266  1.0000
  H   H698      1.0  0.9425651315426777  0.4323850921068622  0.6624622273408485  1.0000
  H   H699      1.0  0.915060461134275  0.42987656182459516  0.6621640508124925  1.0000
  H   H700      1.0  0.9691789868401204  0.47816292972829016  0.5844464371067597  1.0000
  H   H701      1.0  0.9628394349805532  0.477404115842547  0.6384876485213434  1.0000
  H   H702      1.0  0.9740580186670842  0.46068752440299326  0.6175851875882634  1.0000
  H   H703      1.0  0.9249716666595568  0.47349603203517976  0.6377350849849855  1.0000
  H   H704      1.0  0.9084814634694741  0.45382046845700175  0.6167687497133105  1.0000
  H   H705      1.0  0.9311191111443378  0.47414939872210693  0.5837123831618555  1.0000
  H   H706      1.0  0.9466500777429715  0.45092107823960437  0.5546502626694311  1.0000
  H   H707      1.0  0.9238517867570616  0.4307269348410776  0.5870438280649706  1.0000
  H   H708      1.0  0.9512622762405831  0.43340109109024394  0.5878630249937233  1.0000
  N   N44       1.0  0.3968925450969138  0.4584004926701101  0.15407757289490248  1.0000
  C   C461      1.0  0.39709890773394085  0.4764184258806464  0.1698726480583891  1.0000
  C   C462      1.0  0.3764410112453274  0.4418022666994119  0.17551050560504516  1.0000
  C   C463      1.0  0.4160096345588766  0.4543016566166848  0.1608691516739389  1.0000
  C   C464      1.0  0.39801437143602836  0.4611990750775308  0.10992951022548685  1.0000
  H   H709      1.0  0.41233429891630907  0.4892091745282457  0.15438671008624819  1.0000
  H   H710      1.0  0.39629074432329014  0.4749019811243559  0.2031062735090409  1.0000
  H   H711      1.0  0.38295952549602075  0.4800427515322128  0.1649983202505633  1.0000
  H   H712      1.0  0.37564283599874226  0.42793286397307195  0.16431036873652702  1.0000
  H   H713      1.0  0.37497560938391156  0.43931534822436497  0.2089556710940806  1.0000
  H   H714      1.0  0.36181578991013563  0.44464982451970286  0.17070722084219236  1.0000
  H   H715      1.0  0.4163724921987701  0.44073841885862236  0.1495427540325252  1.0000
  H   H716      1.0  0.41597686809211204  0.45247850265047274  0.19378680451700517  1.0000
  H   H717      1.0  0.4316277357967618  0.46659148430297953  0.1445225750810213  1.0000
  H   H718      1.0  0.39764843229210817  0.44782789673067186  0.09698533038160706  1.0000
  H   H719      1.0  0.4133855667180438  0.4734824753372785  0.09275433975503655  1.0000
  H   H720      1.0  0.3840379499447571  0.4646902452614187  0.10359040169504102  1.0000
  N   N45       1.0  0.4916133412749182  0.5177421403420459  0.4111877542607205  1.0000
  C   C465      1.0  0.5032554034456626  0.5298823998793099  0.4380959389483205  1.0000
  C   C466      1.0  0.5061267704895469  0.522667240926862  0.3697564306272256  1.0000
  C   C467      1.0  0.47179207904824433  0.5217346585498872  0.4094665802878215  1.0000
  C   C468      1.0  0.48529956499971294  0.4967444045017152  0.42755616443895156  1.0000
  H   H721      1.0  0.49307961657117627  0.5262033337316724  0.4699335984598047  1.0000
  H   H722      1.0  0.5078791496295095  0.5458252045090646  0.4271658145468089  1.0000
  H   H723      1.0  0.5185428101185653  0.5275230250810302  0.43946946676443777  1.0000
  H   H724      1.0  0.49803863530395115  0.5135866195255266  0.3486462859674977  1.0000
  H   H725      1.0  0.510839995036509  0.5383259759469577  0.35634136741575867  1.0000
  H   H726      1.0  0.5215666230696812  0.5203800543766111  0.3701529781054478  1.0000
  H   H727      1.0  0.46309272759851966  0.5135329820818676  0.38793049495734755  1.0000
  H   H728      1.0  0.47599291525835247  0.5376547911551331  0.3990794844592022  1.0000
  H   H729      1.0  0.4601537082067548  0.5175082613637204  0.4399909397078159  1.0000
  H   H730      1.0  0.47642034479468487  0.4870894731651774  0.4081341719033345  1.0000
  H   H731      1.0  0.4746680013089112  0.4926106083569184  0.4590953237883294  1.0000
  H   H732      1.0  0.49989699763034995  0.49331011756997334  0.4294384064514782  1.0000
  N   N46       1.0  0.3019871152696495  0.6243570747076019  0.8524367064939734  1.0000
  C   C469      1.0  0.2822462967932575  0.612067812470891  0.8845399832682221  1.0000
  C   C470      1.0  0.31103567913772856  0.6115573865168851  0.8304738585097882  1.0000
  C   C471      1.0  0.3184632345597525  0.6371488302965955  0.8714201691165557  1.0000
  C   C472      1.0  0.29617387589570826  0.6365904368775138  0.8233669457858266  1.0000
  H   H733      1.0  0.2753254716745783  0.6212327859237591  0.9023682835425338  1.0000
  H   H734      1.0  0.28601083624303  0.6024121927948067  0.9065363845970524  1.0000
  H   H735      1.0  0.2692436760190374  0.6024735290574375  0.871330822563682  1.0000
  H   H736      1.0  0.3146962990963988  0.6014626692361493  0.8517606395863829  1.0000
  H   H737      1.0  0.2992446585997939  0.6022649022133372  0.8146106401174505  1.0000
  H   H738      1.0  0.32642379638317665  0.6202796077309426  0.8070230559534979  1.0000
  H   H739      1.0  0.3120567618963823  0.6469501567810084  0.8883695432542384  1.0000
  H   H740      1.0  0.3335726932397448  0.6467373634074868  0.8481523728613802  1.0000
  H   H741      1.0  0.3231719001253363  0.6283268412656181  0.8935147455947406  1.0000
  H   H742      1.0  0.28320468355496314  0.6273978966626983  0.8095398782887168  1.0000
  H   H743      1.0  0.3105771874493858  0.645686950954476  0.7981540898032913  1.0000
  H   H744      1.0  0.2898617716030078  0.6468524567995245  0.8385881457637608  1.0000
  N   N47       1.0  0.6451847477291391  0.3032633316534858  0.5736865177095488  1.0000
  C   C473      1.0  0.63634856597061  0.3180820855313476  0.5862811526285591  1.0000
  C   C474      1.0  0.6595574240061532  0.3105427603068475  0.532050211936818  1.0000
  C   C475      1.0  0.6269427023714591  0.28470726360888254  0.5741115112496988  1.0000
  C   C476      1.0  0.6579135462577178  0.2997189877246061  0.6022848005837568  1.0000
  H   H745      1.0  0.6496705295380881  0.3324128669849861  0.5854660179143099  1.0000
  H   H746      1.0  0.6256061396396408  0.3132202734437484  0.6177217627741352  1.0000
  H   H747      1.0  0.626441423481276  0.32092979945755207  0.5656620481775894  1.0000
  H   H748      1.0  0.6735771394390012  0.3244732759819743  0.5305469583913849  1.0000
  H   H749      1.0  0.6663095953557205  0.2996243615349832  0.5213865773833051  1.0000
  H   H750      1.0  0.6505347412687088  0.31353402807677727  0.5097298813644563  1.0000
  H   H751      1.0  0.615332866946962  0.2790349500982282  0.6046595217295019  1.0000
  H   H752      1.0  0.6329683993781889  0.273043450286357  0.5658151350287748  1.0000
  H   H753      1.0  0.6175296779949513  0.2866617660244661  0.5517596194428365  1.0000
  H   H754      1.0  0.6649653831998324  0.2887142734567823  0.593465133590996  1.0000
  H   H755      1.0  0.6475149913803371  0.29399435636095284  0.6339116040709529  1.0000
  H   H756      1.0  0.6717737771510607  0.3134248501129215  0.6028479550857375  1.0000
  N   N48       1.0  0.11576017059714205  0.5189302761602781  0.2265751423052921  1.0000
  C   C477      1.0  0.12434945168954167  0.5336542313992259  0.25207108439481724  1.0000
  C   C478      1.0  0.095708225063602  0.5028440636362332  0.2513668803775724  1.0000
  C   C479      1.0  0.1324517629713779  0.510984130753015  0.21096204568954055  1.0000
  C   C480      1.0  0.11049826718505588  0.528273259098566  0.19185165928935557  1.0000
  H   H757      1.0  0.13966039469220265  0.5459090074388881  0.23451131558500485  1.0000
  H   H758      1.0  0.1281373678468376  0.527031350357307  0.2789690387063762  1.0000
  H   H759      1.0  0.112263345885467  0.5401708547920825  0.26390943359943897  1.0000
  H   H760      1.0  0.08277642880168083  0.508407767351731  0.2632922005531583  1.0000
  H   H761      1.0  0.08874196405936866  0.49140696680366475  0.2332432619143684  1.0000
  H   H762      1.0  0.09889236250858202  0.49557253013970476  0.2782600615346744  1.0000
  H   H763      1.0  0.1478356966904612  0.5228351488503602  0.19233488494022238  1.0000
  H   H764      1.0  0.1266057485289343  0.4999996878542309  0.19117826180995462  1.0000
  H   H765      1.0  0.13673953380992504  0.5036883220496272  0.23630362802516128  1.0000
  H   H766      1.0  0.09832392284798933  0.5348496057168728  0.20240209618928656  1.0000
  H   H767      1.0  0.10349378981362314  0.517568967537753  0.1723249796509303  1.0000
  H   H768      1.0  0.12524268605281538  0.5402526672813782  0.17190364011123652  1.0000
