data_image0
_chemical_formula_structural       FeS2FeS2FeSFeS3FeS2FeS2FeSFeS3FeS2FeS2FeSFeS3FeS2FeS2FeSFeS3FeS2FeS2FeSFeS3FeS2FeS2FeSFeS3FeS2FeS2FeSFeS3FeS2FeS2FeSFeS3FeS2FeS2FeSFeS3FeS2FeS2FeSFeS3FeS2FeS2FeSFeS3FeS2FeS2FeSFeS3FeS2FeS2FeSFeS3FeS2FeS2FeSFeS3FeS2FeS2FeSFeS3FeS2FeS2FeSFeS3FeS2FeS2FeSFeS3FeS2FeS2FeSFeS3FeS2FeS2FeSFeS3FeS2FeS2FeSFeS3C6H4C6H4C6H4C6H4C6H4C6H4C6H4C6H4C6H4C6H4C6H4C6H4C6H4C6H4C6H4C6H4C6H4C6H4C6H4C6H4C6H4C6H4C6H4C6H4C6H4C6H4C6H4C6H4C6H4C6H4C6H4C6H4C6H4C6H4C6H4C6H4C6H4C6H4C6H4C6H4NC4H12NC4H12NC4H12NC4H12NC4H12NC4H12NC4H12NC4H12NC4H12NC4H12NC4H12NC4H12NC4H12NC4H12NC4H12NC4H12NC4H12NC4H12NC4H12NC4H12NC4H12NC4H12NC4H12NC4H12NC4H12NC4H12NC4H12NC4H12NC4H12NC4H12NC4H12NC4H12NC4H12NC4H12NC4H12NC4H12NC4H12NC4H12NC4H12NC4H12
_chemical_formula_sum              "Fe80 S160 C400 H640 N40"
_cell_length_a       44.500935439339735
_cell_length_b       37.249675240402304
_cell_length_c       35.54948546555989
_cell_angle_alpha    89.77941918544546
_cell_angle_beta     103.54265062602047
_cell_angle_gamma    89.87487315369029

_space_group_name_H-M_alt    "P 1"
_space_group_IT_number       1

loop_
  _space_group_symop_operation_xyz
  'x, y, z'

loop_
  _atom_site_type_symbol
  _atom_site_label
  _atom_site_symmetry_multiplicity
  _atom_site_fract_x
  _atom_site_fract_y
  _atom_site_fract_z
  _atom_site_occupancy
  Fe  Fe1       1.0  0.5394613959106064  0.0564611603448733  0.20326855138460764  1.0000
  S   S1        1.0  0.5116795458092955  0.08561318035648197  0.23865346785657326  1.0000
  S   S2        1.0  0.5438906160378991  0.07666645571220541  0.14483108176238163  1.0000
  Fe  Fe2       1.0  0.556933120497311  0.9962410657303343  0.26295565978184005  1.0000
  S   S3        1.0  0.5314924279789323  0.021304446457140806  0.30362758919070165  1.0000
  S   S4        1.0  0.5803098555264544  0.9428914661685771  0.27843748475909647  1.0000
  Fe  Fe3       1.0  0.49444695770461333  0.030923227583862456  0.24959201341889084  1.0000
  S   S5        1.0  0.44522258306771334  0.01562216001721084  0.24690829635010902  1.0000
  Fe  Fe4       1.0  0.5516908653524152  0.07310509610378452  0.2887091443869792  1.0000
  S   S6        1.0  0.5754217631150019  0.11696781076487195  0.3280869781181289  1.0000
  S   S7        1.0  0.5187459480858259  0.002511924682710776  0.2098914422095997  1.0000
  S   S8        1.0  0.5806146969945483  0.047152260603173436  0.2523946678915626  1.0000
  Fe  Fe5       1.0  0.12202451152655189  0.07005835581273724  0.8710933602811515  1.0000
  S   S9        1.0  0.1529728483590429  0.104143328253872  0.8447859476914872  1.0000
  S   S10       1.0  0.0985002566516245  0.08841429937530698  0.9173866498216317  1.0000
  Fe  Fe6       1.0  0.12255073270820718  0.009052633259464704  0.8142969216608249  1.0000
  S   S11       1.0  0.1526956493834507  0.03870067654488836  0.7821512637754334  1.0000
  S   S12       1.0  0.10309564441383458  0.9539246035724526  0.7992436579110848  1.0000
  Fe  Fe7       1.0  0.17937865803099923  0.053313503448379554  0.8418299616005148  1.0000
  S   S13       1.0  0.23122126699836054  0.05383055310732424  0.8583486647945068  1.0000
  Fe  Fe8       1.0  0.12349647575840583  0.08677645341127156  0.7877617430867241  1.0000
  S   S14       1.0  0.10519660214197388  0.13265376073000917  0.7473552734466609  1.0000
  S   S15       1.0  0.15124764079421277  0.020406540720503408  0.8737943990221817  1.0000
  S   S16       1.0  0.09062894331375237  0.055732308660254026  0.8142659565104267  1.0000
  Fe  Fe9       1.0  0.1391874546575339  0.744609247747755  0.08513389495251365  1.0000
  S   S17       1.0  0.0892623592226103  0.7276073580699703  0.07000571318152643  1.0000
  S   S18       1.0  0.15377361174063367  0.7878666248060876  0.04831042162679644  1.0000
  Fe  Fe10      1.0  0.1562128553375506  0.691257844864538  0.15184141298719878  1.0000
  S   S19       1.0  0.10816867072870127  0.6697921848988495  0.1417080552874807  1.0000
  S   S20       1.0  0.1929276127685362  0.6666902723054807  0.1993989121860444  1.0000
  Fe  Fe11      1.0  0.1083774147587502  0.671431591085662  0.07876232575584945  1.0000
  S   S21       1.0  0.09513875549344138  0.6217113658170383  0.04227888757439269  1.0000
  Fe  Fe12      1.0  0.09402203680281933  0.7276966843857642  0.13438998597483173  1.0000
  S   S22       1.0  0.06124169617988961  0.7491742672036127  0.16840796372874223  1.0000
  S   S23       1.0  0.15798775732825904  0.688406867882887  0.08936488167475252  1.0000
  S   S24       1.0  0.1423065793364293  0.749198271449767  0.14895942081554803  1.0000
  Fe  Fe13      1.0  0.522051382460887  0.6417283004113311  0.9604550952277541  1.0000
  S   S25       1.0  0.5666311528692538  0.6718195679993905  0.9701809671065064  1.0000
  S   S26       1.0  0.5217947745884332  0.5812245131971399  0.9598044543256301  1.0000
  Fe  Fe14      1.0  0.4835608844605423  0.7100481503950975  0.9542963695280138  1.0000
  S   S27       1.0  0.5249852016948737  0.7460539290040634  0.962694658809714  1.0000
  S   S28       1.0  0.4347487602133277  0.7305661744077669  0.9466516633460187  1.0000
  Fe  Fe15      1.0  0.5411694537504065  0.7080838187563456  0.9226285290735594  1.0000
  S   S29       1.0  0.5671199161456375  0.7230493164027558  0.8775757542628999  1.0000
  Fe  Fe16      1.0  0.5465696042163161  0.7066881715106007  0.009210295204353347  1.0000
  S   S30       1.0  0.5729964219234585  0.7249981642216966  0.06779531719835244  1.0000
  S   S31       1.0  0.4978291238803358  0.6751946258430059  0.9097649150703824  1.0000
  S   S32       1.0  0.5039403428462063  0.6734317589418494  0.003986385367506617  1.0000
  Fe  Fe17      1.0  0.3081304603441446  0.8871496688210281  0.07452226762740219  1.0000
  S   S33       1.0  0.32154476652144365  0.8556799991505775  0.027183668666674654  1.0000
  S   S34       1.0  0.28280093636860065  0.8618340553195982  0.11582920710845498  1.0000
  Fe  Fe18      1.0  0.3434194864038319  0.9535788983968693  0.05972805755053456  1.0000
  S   S35       1.0  0.35904135416693145  0.927812673311255  0.010784035465213782  1.0000
  S   S36       1.0  0.36305717080505456  0.00845837799617244  0.07615693918693574  1.0000
  Fe  Fe19      1.0  0.31058930219633896  0.907061327477282  0.9931243198108921  1.0000
  S   S37       1.0  0.2841013665985696  0.9045042576131905  0.93074095975297  1.0000
  Fe  Fe20      1.0  0.36866830291115943  0.879414591329809  0.049291832689288606  1.0000
  S   S38       1.0  0.4159871011892845  0.8539832776667803  0.060742284069544406  1.0000
  S   S39       1.0  0.29365925850598507  0.9370213159106202  0.038916879663146275  1.0000
  S   S40       1.0  0.3563326168231182  0.9066738868863483  0.0996010548113405  1.0000
  Fe  Fe21      1.0  0.6873718412250586  0.5674598127071573  0.29442243055263334  1.0000
  S   S41       1.0  0.6419950673546265  0.550614940369528  0.30634919759699303  1.0000
  S   S42       1.0  0.7346061706174324  0.5621681844535047  0.33512348286034227  1.0000
  Fe  Fe22      1.0  0.6578995374366887  0.5893539379309993  0.21141001563209397  1.0000
  S   S43       1.0  0.6103234562305925  0.5743957229894728  0.21633407171704724  1.0000
  S   S44       1.0  0.6662760638427598  0.6069646440473897  0.15422019086824684  1.0000
  Fe  Fe23      1.0  0.6235239373533555  0.6012108969969  0.2744809140156061  1.0000
  S   S45       1.0  0.5877119359873535  0.6383925248709021  0.28891920594486237  1.0000
  Fe  Fe24      1.0  0.6330186484919037  0.5255196815309505  0.24726772095949176  1.0000
  S   S46       1.0  0.613458907035654  0.4697789708385081  0.23591375085874464  1.0000
  S   S47       1.0  0.6695903295825456  0.6203588129693643  0.2668562330135605  1.0000
  S   S48       1.0  0.6797950530568516  0.5382157999935673  0.23796731633104443  1.0000
  Fe  Fe25      1.0  0.609903436815274  0.15398155125261345  0.5446142853441592  1.0000
  S   S49       1.0  0.6615728752569942  0.15885748619106652  0.5614860542836457  1.0000
  S   S50       1.0  0.585304981189341  0.1081281853555254  0.5086021251066805  1.0000
  Fe  Fe26      1.0  0.6007224321023713  0.21514225906364348  0.5986229608762038  1.0000
  S   S51       1.0  0.6516248055716917  0.2244879376548458  0.6202283699691532  1.0000
  S   S52       1.0  0.5633436956667491  0.24787677502256963  0.6158643534732376  1.0000
  Fe  Fe27      1.0  0.6532773754419268  0.2184924359942217  0.5580185418069611  1.0000
  S   S53       1.0  0.6759501400326098  0.2595351542117285  0.5268857117237388  1.0000
  Fe  Fe28      1.0  0.6551350631204153  0.16429180028175205  0.6220447893935915  1.0000
  S   S54       1.0  0.6855732281950749  0.13211203610117936  0.6699382608192284  1.0000
  S   S55       1.0  0.6017933653750267  0.21316431115620865  0.5358841127394621  1.0000
  S   S56       1.0  0.6040098816313306  0.1553745037225396  0.6054668646087875  1.0000
  Fe  Fe29      1.0  0.08619433262242518  0.17478473227489366  0.5333879360890036  1.0000
  S   S57       1.0  0.0344729449125456  0.17496184334344234  0.5213789269567483  1.0000
  S   S58       1.0  0.11497996578648954  0.13333083772197962  0.572630388322336  1.0000
  Fe  Fe30      1.0  0.08715117735436721  0.23294275343867984  0.47205811959413996  1.0000
  S   S59       1.0  0.0353557757294265  0.2368878472027291  0.4543365419649373  1.0000
  S   S60       1.0  0.1217987237687323  0.26717797377507685  0.4507011534055871  1.0000
  Fe  Fe31      1.0  0.03813144839045646  0.23496583818304245  0.5182599979366134  1.0000
  S   S61       1.0  0.014876178489293457  0.27525577020865977  0.5494090047039338  1.0000
  Fe  Fe32      1.0  0.03657933496699872  0.1766214533493528  0.4589008370788625  1.0000
  S   S62       1.0  0.005791110698096569  0.13842969659634435  0.4184629577502346  1.0000
  S   S63       1.0  0.0900064165952661  0.2347135943460807  0.5359065601011908  1.0000
  S   S64       1.0  0.08816914996440905  0.17262605253228988  0.47103345678853753  1.0000
  Fe  Fe33      1.0  0.8574451279355311  0.4330937516831182  0.545738387728571  1.0000
  S   S65       1.0  0.8462258266602658  0.4235823642857761  0.4813912916351196  1.0000
  S   S66       1.0  0.888894688359283  0.4803011499632639  0.5649035541415753  1.0000
  Fe  Fe34      1.0  0.8201115202038194  0.3684435049561098  0.5608436264035296  1.0000
  S   S67       1.0  0.8063943195972385  0.3546811178250097  0.49805698766635265  1.0000
  S   S68       1.0  0.8048570386934617  0.33088738437297727  0.6026362900126064  1.0000
  Fe  Fe35      1.0  0.8558144232109466  0.3657386344897595  0.49804321057793344  1.0000
  S   S69       1.0  0.8791085523228267  0.3253037365002526  0.4670511398084642  1.0000
  Fe  Fe36      1.0  0.7981877113838856  0.413643650799918  0.4884601975803545  1.0000
  S   S70       1.0  0.7519796286749302  0.43173191463055893  0.45248093274909656  1.0000
  S   S71       1.0  0.8704043242369729  0.37584556006819775  0.5618381782865307  1.0000
  S   S72       1.0  0.8085664115404138  0.42701292608831526  0.5517068681047909  1.0000
  Fe  Fe37      1.0  0.004887439780871583  0.5978533777699521  0.8335694242068885  1.0000
  S   S73       1.0  0.04996777584524592  0.5761010115210263  0.8261638370595452  1.0000
  S   S74       1.0  0.0019444429385635509  0.6387637120471922  0.879184736262375  1.0000
  Fe  Fe38      1.0  0.9680201946289781  0.555632414112707  0.7646347147931449  1.0000
  S   S75       1.0  0.010689677382724971  0.5318071530584857  0.7511797190201304  1.0000
  S   S76       1.0  0.9198391379675332  0.5361208569350565  0.7375937270578735  1.0000
  Fe  Fe39      1.0  0.02562444828778232  0.523243459974575  0.8153196781422669  1.0000
  S   S77       1.0  0.048455096267290276  0.4711463616201785  0.8389129354901124  1.0000
  Fe  Fe40      1.0  0.030620857632479348  0.5871299675957756  0.7631431425857811  1.0000
  S   S78       1.0  0.06514523166346864  0.613204300277705  0.734543729955358  1.0000
  S   S79       1.0  0.9820293598462628  0.5440586618372265  0.8283936760292965  1.0000
  S   S80       1.0  0.986534611897314  0.6120893192557437  0.770893725813603  1.0000
  Fe  Fe41      1.0  0.12316497182078928  0.4341441643113237  0.3217772972012181  1.0000
  S   S81       1.0  0.15977191508705618  0.4088026694040732  0.29621605292038933  1.0000
  S   S82       1.0  0.08568259481584287  0.4026280272344708  0.3406176841743188  1.0000
  Fe  Fe42      1.0  0.14113743051988076  0.5105370055901103  0.30343509175217265  1.0000
  S   S83       1.0  0.17851750666327643  0.49085888328080823  0.2763945769593201  1.0000
  S   S84       1.0  0.13041520218720376  0.5695822713223414  0.30566675224644285  1.0000
  Fe  Fe43      1.0  0.14464423563576467  0.44910099446879836  0.24815214778732045  1.0000
  S   S85       1.0  0.13384179072239255  0.4428791886659743  0.18312181195291338  1.0000
  Fe  Fe44      1.0  0.1900028724614534  0.45338137226598507  0.3273201433331513  1.0000
  S   S86       1.0  0.24058370383425054  0.45069575740243767  0.35778292118805066  1.0000
  S   S87       1.0  0.10614234137452978  0.47160286448612937  0.2715834805585625  1.0000
  S   S88       1.0  0.15433044200712548  0.47575082873373975  0.3563738092501682  1.0000
  Fe  Fe45      1.0  0.4979795448107458  0.43223822312059657  0.7272116437006019  1.0000
  S   S89       1.0  0.5452480761622739  0.45393542593513686  0.7286515766785304  1.0000
  S   S90       1.0  0.46126503286729936  0.43937741567401156  0.6719038913933237  1.0000
  Fe  Fe46      1.0  0.518266251235866  0.4008296252369688  0.8082855206502993  1.0000
  S   S91       1.0  0.5668643842818796  0.420228550839826  0.8162669197970225  1.0000
  S   S92       1.0  0.5040695944090025  0.370742967672533  0.8562660027647315  1.0000
  Fe  Fe47      1.0  0.5448677043803548  0.47094523944583744  0.7890516827499523  1.0000
  S   S93       1.0  0.5618950441276328  0.5254949569987118  0.8108525633345142  1.0000
  Fe  Fe48      1.0  0.5624553494246477  0.4009625851825305  0.7554124519581946  1.0000
  S   S94       1.0  0.6017515190911367  0.3688467204830192  0.7421841556034725  1.0000
  S   S95       1.0  0.4961844436711175  0.4534244638173697  0.7856811656435518  1.0000
  S   S96       1.0  0.5152527108188492  0.37751036133666627  0.7494840328693015  1.0000
  Fe  Fe49      1.0  0.5275914323038859  0.781813834839984  0.4880968849335599  1.0000
  S   S97       1.0  0.5787558457623295  0.7869515135647072  0.5114739265369731  1.0000
  S   S98       1.0  0.49684341372369184  0.7658033354300094  0.527389798927992  1.0000
  Fe  Fe50      1.0  0.5296695212474315  0.8186797548238446  0.41205537777631  1.0000
  S   S99       1.0  0.5808204490817186  0.8274087267769179  0.4295789987700323  1.0000
  S   S100      1.0  0.4996714957549502  0.8405910596437656  0.35681841413315074  1.0000
  Fe  Fe51      1.0  0.5818004346424879  0.7705565936153755  0.45139928604666213  1.0000
  S   S101      1.0  0.6186119643238414  0.7322586319693014  0.44148328843375184  1.0000
  Fe  Fe52      1.0  0.5728520139431852  0.8429570099657127  0.48741614625218616  1.0000
  S   S102      1.0  0.5893174861073086  0.8943221258712157  0.5193779653563428  1.0000
  S   S103      1.0  0.5307487184761813  0.7607488705453082  0.4300660673283523  1.0000
  S   S104      1.0  0.5214574171522479  0.8388951384913457  0.46789133181167564  1.0000
  Fe  Fe53      1.0  0.14122834856867578  0.8262849338586529  0.6526604796079244  1.0000
  S   S105      1.0  0.09209008141227099  0.8433933247876476  0.6289816074717813  1.0000
  S   S106      1.0  0.17287664906445246  0.8559360065056407  0.7014290479300044  1.0000
  Fe  Fe54      1.0  0.13776351856605054  0.7674197543692189  0.5921570227161141  1.0000
  S   S107      1.0  0.08824355573903994  0.7801332042156536  0.5642395448117931  1.0000
  S   S108      1.0  0.1570154745857471  0.7200065825316699  0.5659036684859657  1.0000
  Fe  Fe55      1.0  0.10296216146862817  0.8377069072324543  0.5706385785955015  1.0000
  S   S109      1.0  0.09429265017644962  0.8817642180095805  0.5252776628742134  1.0000
  Fe  Fe56      1.0  0.08240734414896295  0.7840385681122276  0.6252889782266285  1.0000
  S   S110      1.0  0.04083897271827275  0.7586333202374199  0.6413205207809111  1.0000
  S   S111      1.0  0.15304435898297114  0.824750892642355  0.5946931072733546  1.0000
  S   S112      1.0  0.13105047923401938  0.7671776514452724  0.6527411972324989  1.0000
  Fe  Fe57      1.0  0.30935810159795485  0.5896096519252665  0.5226122797736368  1.0000
  S   S113      1.0  0.3098446252272652  0.6143952706104607  0.5802421701770217  1.0000
  S   S114      1.0  0.2693236720474077  0.5511574309841406  0.5048078458104248  1.0000
  Fe  Fe58      1.0  0.3663506400663067  0.6313908919271534  0.5149660923222362  1.0000
  S   S115      1.0  0.3711588030426613  0.6586513211481556  0.5722113143112718  1.0000
  S   S116      1.0  0.39985013031893546  0.6406387587335118  0.4768449970057873  1.0000
  Fe  Fe59      1.0  0.3609818913948789  0.6044838861364638  0.5938490000727641  1.0000
  S   S117      1.0  0.38368673143942134  0.5836361785168467  0.6537195700598147  1.0000
  Fe  Fe60      1.0  0.3196883145117168  0.6659217034892627  0.5530886319941433  1.0000
  S   S118      1.0  0.29831570858716705  0.7194945598332826  0.5611758927654303  1.0000
  S   S119      1.0  0.3599615793217262  0.5761155141082475  0.5379997732048842  1.0000
  S   S120      1.0  0.3153079434468076  0.6422261685270119  0.49411767426283987  1.0000
  Fe  Fe61      1.0  0.044577536961053266  0.9321338899903013  0.24034629963164894  1.0000
  S   S121      1.0  0.0022129431023838464  0.9048433154829689  0.25028427803944336  1.0000
  S   S122      1.0  0.06311232637180919  0.9173936115948531  0.18868443272759913  1.0000
  Fe  Fe62      1.0  0.05078268878525982  0.9796491643620812  0.3108642709106013  1.0000
  S   S123      1.0  0.009235221309910724  0.9559536558532676  0.32685450304913655  1.0000
  S   S124      1.0  0.0791516345714971  0.024395431890495978  0.343630410553038  1.0000
  Fe  Fe63      1.0  0.028224127984187497  0.9032777889641609  0.3126766689564543  1.0000
  S   S125      1.0  0.02945199114529906  0.8533504714897451  0.3492649863489123  1.0000
  Fe  Fe64      1.0  0.987306523132101  0.9600694907360705  0.2633174368604164  1.0000
  S   S126      1.0  0.9387879816254071  0.9823368820859099  0.2457264799375376  1.0000
  S   S127      1.0  0.0718401327709497  0.9264675785983393  0.3016707936799301  1.0000
  S   S128      1.0  0.027599991269217528  0.9877343927362598  0.2482433388391061  1.0000
  Fe  Fe65      1.0  0.6208715608154317  0.974587777322711  0.7636663239994906  1.0000
  S   S129      1.0  0.666488594563387  0.9516432355630642  0.7589939904349611  1.0000
  S   S130      1.0  0.6025936600851571  0.029398218825670286  0.7433750035697708  1.0000
  Fe  Fe66      1.0  0.6021429844155146  0.9078835266918427  0.8015922546673386  1.0000
  S   S131      1.0  0.6460280560133  0.8790760771092757  0.8003395524309348  1.0000
  S   S132      1.0  0.5641358876066399  0.8865153689257594  0.8277602927168228  1.0000
  Fe  Fe67      1.0  0.6694925742803147  0.9313292705577845  0.819179777332472  1.0000
  S   S133      1.0  0.7138680902448928  0.9284377077514776  0.8650848798487648  1.0000
  Fe  Fe68      1.0  0.6395957425884391  0.9014713680250975  0.74029730123236  1.0000
  S   S134      1.0  0.6525395662247424  0.8654453444142377  0.6958482833349862  1.0000
  S   S135      1.0  0.6261661476645185  0.9586291474816638  0.8258000202334026  1.0000
  S   S136      1.0  0.5933460611769255  0.9258733793136859  0.739507440455307  1.0000
  Fe  Fe69      1.0  0.6107315503594417  0.2751857087530576  0.019004229536072836  1.0000
  S   S137      1.0  0.6535917147183238  0.30503198880398075  0.047356299929477874  1.0000
  S   S138      1.0  0.6049151268542083  0.2668533712795997  0.9551356058517484  1.0000
  Fe  Fe70      1.0  0.5911652203709808  0.2655639777833227  0.09433161909890662  1.0000
  S   S139      1.0  0.6323789334797283  0.29540246450249064  0.12853989445363673  1.0000
  S   S140      1.0  0.558478183422056  0.24456356920484068  0.12893075950592023  1.0000
  Fe  Fe71      1.0  0.6229961273050756  0.33444033159325137  0.07891427712006296  1.0000
  S   S141      1.0  0.6267368834849637  0.3950499329479104  0.08067715715088292  1.0000
  Fe  Fe72      1.0  0.6588398934724277  0.2632164060904072  0.09384879149392943  1.0000
  S   S142      1.0  0.7057483345603017  0.24055915250426732  0.12259292148713381  1.0000
  S   S143      1.0  0.5794340677702604  0.307393758093322  0.04719610657758011  1.0000
  S   S144      1.0  0.6183154397650619  0.23062132405584004  0.06300164112393032  1.0000
  Fe  Fe73      1.0  0.06114165304239156  0.27354898624915763  0.9794609727884858  1.0000
  S   S145      1.0  0.012798150902560979  0.2840508368528159  0.9454757571714233  1.0000
  S   S146      1.0  0.10064279713565666  0.25472801763014996  0.954676083991607  1.0000
  Fe  Fe74      1.0  0.04710399196924929  0.29422533745904494  0.05578766365449961  1.0000
  S   S147      1.0  0.9968725682599932  0.30522549430684076  0.02934451797379345  1.0000
  S   S148      1.0  0.07164047434249186  0.29593361979755634  0.11901481937355045  1.0000
  Fe  Fe75      1.0  0.9985245363810358  0.2555556911519802  0.9942500912685897  1.0000
  S   S149      1.0  0.9636669329371789  0.21137125525150305  0.9767488214714898  1.0000
  Fe  Fe76      1.0  0.01468304402979026  0.3329773995604811  0.9825507370291098  1.0000
  S   S150      1.0  0.9922624036168983  0.3855122336384283  0.9596941696931424  1.0000
  S   S151      1.0  0.04683104371860768  0.24142890451511811  0.025575292389822923  1.0000
  S   S152      1.0  0.0648174312499512  0.3257111320907092  0.011722495463871496  1.0000
  Fe  Fe77      1.0  0.8490498919203933  0.06475852525857646  0.052166129307337626  1.0000
  S   S153      1.0  0.8497637000783796  0.10195418746925006  0.0024698460863776805  1.0000
  S   S154      1.0  0.8933983360018305  0.033220265448254294  0.07132725266788946  1.0000
  Fe  Fe78      1.0  0.7847160933306626  0.08845311540221776  0.05611699450755061  1.0000
  S   S155      1.0  0.7809771673763595  0.1279563080087547  0.007851380338650626  1.0000
  S   S156      1.0  0.7407225826817981  0.084902274607629  0.07643046228156836  1.0000
  Fe  Fe79      1.0  0.8010398454605993  0.08395232087057142  0.9785085392028829  1.0000
  S   S157      1.0  0.7785720825529848  0.07732462032610421  0.9151246530599787  1.0000
  Fe  Fe80      1.0  0.8296850276228289  0.14221097146558678  0.03635908111662789  1.0000
  S   S158      1.0  0.8462748606922778  0.19924352497184597  0.046358216713543676  1.0000
  S   S159      1.0  0.8017401719720288  0.04304513998525976  0.02511588785454988  1.0000
  S   S160      1.0  0.8320432189409473  0.10642688233848818  0.087839741726108  1.0000
  C   C1        1.0  0.9297393172552686  0.212906340519793  0.9938200338163766  1.0000
  C   C2        1.0  0.9044073187372198  0.19238599380776736  0.9749266977302206  1.0000
  C   C3        1.0  0.8783539820092372  0.18920213634204525  0.9903920479650709  1.0000
  C   C4        1.0  0.8773997450625654  0.20667766669512402  0.02477395256860926  1.0000
  C   C5        1.0  0.9021114297172528  0.22862105395101676  0.042840539920971255  1.0000
  C   C6        1.0  0.9284031344457866  0.23160976772544614  0.027458051280486506  1.0000
  H   H1        1.0  0.9050824284545202  0.17846980594348738  0.9484660134677871  1.0000
  H   H2        1.0  0.8589503721582161  0.17325361387280488  0.9755671135162041  1.0000
  H   H3        1.0  0.9013693558663365  0.24233105298835866  0.06937790138598494  1.0000
  H   H4        1.0  0.9479089808651853  0.2475044905085677  0.042164233869925516  1.0000
  C   C7        1.0  0.7145751669401699  0.19647508712061984  0.11108750279080486  1.0000
  C   C8        1.0  0.6919267256861287  0.17374160392292487  0.08980058145490255  1.0000
  C   C9        1.0  0.6998303250948104  0.13898794922833924  0.08033096492789649  1.0000
  C   C10       1.0  0.7306555537720385  0.1274553448425396  0.0905900597760255  1.0000
  C   C11       1.0  0.7533812094029952  0.15033362443058365  0.11136240832721012  1.0000
  C   C12       1.0  0.7452041729404999  0.18440233453393728  0.12244556277773355  1.0000
  H   H5        1.0  0.6683167951452504  0.18271473891303378  0.08065307172477754  1.0000
  H   H6        1.0  0.682140177667133  0.1213249383477586  0.06439172035289387  1.0000
  H   H7        1.0  0.7772002830755899  0.1414476608805406  0.1195907583266664  1.0000
  H   H8        1.0  0.7628149198054355  0.20165495092133157  0.13928598950444454  1.0000
  C   C13       1.0  0.7326410596653203  0.9695569482630038  0.8777694442505216  1.0000
  C   C14       1.0  0.7248943806082313  0.9998986685106425  0.8541872776194503  1.0000
  C   C15       1.0  0.7401676406900562  0.032530342123874734  0.8650579416231798  1.0000
  C   C16       1.0  0.7625395250090095  0.03517560957051691  0.9000298147804909  1.0000
  C   C17       1.0  0.7705871481226508  0.004658959025245046  0.92323737238268  1.0000
  C   C18       1.0  0.7558188438808193  0.9718491274647726  0.9119623926890595  1.0000
  H   H9        1.0  0.7071127594624212  0.9983271302341541  0.8276514070357438  1.0000
  H   H10       1.0  0.7340058666410537  0.05604607365019579  0.8468600213648693  1.0000
  H   H11       1.0  0.7882435477826331  0.006274591328643941  0.9498282421597096  1.0000
  H   H12       1.0  0.762091305183687  0.9483183924620737  0.9300800409141033  1.0000
  C   C19       1.0  0.9260080583249911  0.9955154436492999  0.19695746245835813  1.0000
  C   C20       1.0  0.8964809571480494  0.010734040191352712  0.1840700276791514  1.0000
  C   C21       1.0  0.8862712711421068  0.02273848501881104  0.14563790642307417  1.0000
  C   C22       1.0  0.9054229950373649  0.01903757733918332  0.1198188284162637  1.0000
  C   C23       1.0  0.9348862115661297  0.00369468438997389  0.13268418382087543  1.0000
  C   C24       1.0  0.9452374711420962  0.9921223319943496  0.17121203854010547  1.0000
  H   H13       1.0  0.8814514894598493  0.013233010105608178  0.20384843854826468  1.0000
  H   H14       1.0  0.8634417990568155  0.034313008094126074  0.1358445927324025  1.0000
  H   H15       1.0  0.9496909780042325  0.00048349220634569257  0.11274002968702208  1.0000
  H   H16       1.0  0.9679510758978144  0.9802155568658598  0.1808252379212351  1.0000
  C   C25       1.0  0.0750700572036472  0.8732146145826889  0.4769330301666957  1.0000
  C   C26       1.0  0.07323371993462846  0.9008009775754687  0.449542342169555  1.0000
  C   C27       1.0  0.05932835564918304  0.8947678476625716  0.4104021964527509  1.0000
  C   C28       1.0  0.047014588055809936  0.8610865769491752  0.3983630942027363  1.0000
  C   C29       1.0  0.04892484649059914  0.8333646221796215  0.42568857307194513  1.0000
  C   C30       1.0  0.06289294355748108  0.8394128331609471  0.46494863134727243  1.0000
  H   H17       1.0  0.08278580114904131  0.9269064644191832  0.4585658713168253  1.0000
  H   H18       1.0  0.05816016430591553  0.9162433201190084  0.3895461229217992  1.0000
  H   H19       1.0  0.03931715121883328  0.8073054142737882  0.41655521714284094  1.0000
  H   H20       1.0  0.06396215909020352  0.818068691003617  0.48590409223640907  1.0000
  C   C31       1.0  0.19641886824751856  0.7201661298594701  0.5653313839382947  1.0000
  C   C32       1.0  0.21473117272292686  0.7504905885578885  0.5764968158029737  1.0000
  C   C33       1.0  0.24597873599319142  0.7500916037601336  0.5749036179704015  1.0000
  C   C34       1.0  0.25913960292677723  0.7192097086596682  0.5628302493083988  1.0000
  C   C35       1.0  0.2408057314825671  0.6888643027240765  0.5517454817788071  1.0000
  C   C36       1.0  0.20943851225419893  0.6894594246972857  0.5527375158459424  1.0000
  H   H21       1.0  0.2049771118073742  0.7741356161462439  0.5866176922001245  1.0000
  H   H22       1.0  0.2601919138297306  0.7735187342895723  0.5837071858595726  1.0000
  H   H23       1.0  0.25082169107445634  0.6650044613507241  0.5423467123642424  1.0000
  H   H24       1.0  0.1953551244516693  0.665938953775556  0.5440605239715631  1.0000
  C   C37       1.0  0.6075831683345365  0.8869030537534566  0.5683104280070583  1.0000
  C   C38       1.0  0.624231728353364  0.8552873908097797  0.5797815242547627  1.0000
  C   C39       1.0  0.6384042668310921  0.8493682717092577  0.6189226070048967  1.0000
  C   C40       1.0  0.6355582897039173  0.8746973997638884  0.6469200482307574  1.0000
  C   C41       1.0  0.6186529391252  0.9062349493768778  0.6356104805679691  1.0000
  C   C42       1.0  0.6049733278114725  0.9124951694912772  0.5962562376124977  1.0000
  H   H25       1.0  0.6266920208309699  0.8356340297855296  0.558378159846923  1.0000
  H   H26       1.0  0.6514677343156894  0.824942258318816  0.6275291686702139  1.0000
  H   H27       1.0  0.6161546712403996  0.9257090447235322  0.6571835071468534  1.0000
  H   H28       1.0  0.591756755400378  0.9367244662506831  0.5875387204554408  1.0000
  C   C43       1.0  0.47133652057536596  0.7295066309691617  0.5146969678563629  1.0000
  C   C44       1.0  0.4447644789784715  0.7282958386410507  0.5293507583008158  1.0000
  C   C45       1.0  0.4228877670758262  0.7010063729918066  0.5180204114255343  1.0000
  C   C46       1.0  0.42771362939667207  0.674265156283319  0.4925786600874776  1.0000
  C   C47       1.0  0.4545268465585645  0.6752368332763701  0.4782240230976206  1.0000
  C   C48       1.0  0.4762939613960506  0.7028843924305526  0.4891619772384393  1.0000
  H   H29       1.0  0.44063977638172225  0.7489999303975102  0.5488286454530142  1.0000
  H   H30       1.0  0.40193703997766517  0.7012543479167284  0.5283001077989442  1.0000
  H   H31       1.0  0.4584934178004664  0.6544707260537947  0.45871646504165037  1.0000
  H   H32       1.0  0.49697877218515946  0.703399852711082  0.47813157900399705  1.0000
  C   C49       1.0  0.5320662364894263  0.3414659734627705  0.8830848113395406  1.0000
  C   C50       1.0  0.5263729501958764  0.3240759156065444  0.9157167851619116  1.0000
  C   C51       1.0  0.5487452244692511  0.30122060264991035  0.9381069916123521  1.0000
  C   C52       1.0  0.5766867705088612  0.29527491239138437  0.9275304131936719  1.0000
  C   C53       1.0  0.582300841475368  0.31243223584180707  0.8947434106386568  1.0000
  C   C54       1.0  0.5601282115559253  0.33574379334312765  0.8727202603384977  1.0000
  H   H33       1.0  0.5046675396476269  0.3284059252355113  0.9238161313753315  1.0000
  H   H34       1.0  0.5442156857070519  0.28783892657168736  0.9632699132562427  1.0000
  H   H35       1.0  0.604098785897989  0.3082006418737108  0.8868755045730049  1.0000
  H   H36       1.0  0.5646842619669157  0.3490295497120717  0.8476070527288091  1.0000
  C   C55       1.0  0.4408489377781377  0.4802058758700115  0.6672439182966907  1.0000
  C   C56       1.0  0.43263897167742327  0.4974559875102661  0.6311249639260699  1.0000
  C   C57       1.0  0.41539135175512315  0.5294940050837241  0.6266615544393418  1.0000
  C   C58       1.0  0.4057296188751345  0.5439248685328252  0.6581419780177923  1.0000
  C   C59       1.0  0.41359020175100053  0.5263882234340626  0.6940759499375545  1.0000
  C   C60       1.0  0.43132932071778085  0.49477828396270024  0.6987299592690911  1.0000
  H   H37       1.0  0.44000967542818326  0.48624172577602814  0.6066996232455508  1.0000
  H   H38       1.0  0.4098805787781408  0.5431484700987489  0.5990140253782295  1.0000
  H   H39       1.0  0.4056194189424403  0.5370684291299412  0.7182906303167202  1.0000
  H   H40       1.0  0.4369712913721907  0.4811266357502636  0.72641398106855  1.0000
  C   C61       1.0  0.1175017630407786  0.4016887857115058  0.16514314620585258  1.0000
  C   C62       1.0  0.12289913857000054  0.3705288251245344  0.18778924596204516  1.0000
  C   C63       1.0  0.10923603710970257  0.3380114015871866  0.17302276244940246  1.0000
  C   C64       1.0  0.08971208376784193  0.3366494330180522  0.1358573875486314  1.0000
  C   C65       1.0  0.08448873040353903  0.3677508581011851  0.11310903618270947  1.0000
  C   C66       1.0  0.09862629399298324  0.4001299364472148  0.12760352863246308  1.0000
  H   H41       1.0  0.1378485919022773  0.3714361041602801  0.21654335101732256  1.0000
  H   H42       1.0  0.1137059961684908  0.3138982566344114  0.190541956699677  1.0000
  H   H43       1.0  0.06923415031919837  0.36703318314944033  0.0845666136961244  1.0000
  H   H44       1.0  0.09442623267812467  0.4241788519878376  0.10997601446312552  1.0000
  C   C67       1.0  0.25034791251134203  0.47608697258887867  0.40056667099586024  1.0000
  C   C68       1.0  0.2784374280035088  0.4949060196019445  0.41013137488008217  1.0000
  C   C69       1.0  0.28509020413213565  0.5177195045781599  0.44254502672763657  1.0000
  C   C70       1.0  0.26382974858835967  0.5211441088341463  0.465743466555859  1.0000
  C   C71       1.0  0.23646944336138004  0.5011431671939096  0.45708105357671075  1.0000
  C   C72       1.0  0.22966616534871717  0.4788816339338516  0.4245292325908592  1.0000
  H   H45       1.0  0.294601319268858  0.4926472528241466  0.39175216402990676  1.0000
  H   H46       1.0  0.3063333038101342  0.5329771675740238  0.449123539638896  1.0000
  H   H47       1.0  0.22009193660820775  0.5033983510039469  0.4751658924624849  1.0000
  H   H48       1.0  0.20844773224510926  0.4636797367529991  0.41806647727968216  1.0000
  C   C73       1.0  0.0069151731924494975  0.4064927306368759  0.9235664145732296  1.0000
  C   C74       1.0  0.03602081815658864  0.3975361155692703  0.9178287199724333  1.0000
  C   C75       1.0  0.04835654256370936  0.41710139986680667  0.89113171682649  1.0000
  C   C76       1.0  0.03165106715303678  0.4456059836207454  0.8702082500331719  1.0000
  C   C77       1.0  0.002094944836704027  0.45361669137834176  0.875035233822505  1.0000
  C   C78       1.0  0.9897709138231232  0.43412916044357586  0.9016561889982938  1.0000
  H   H49       1.0  0.04930354384757486  0.37607818402676035  0.9345351753425035  1.0000
  H   H50       1.0  0.07114991570853522  0.41056835956653925  0.8872427010451768  1.0000
  H   H51       1.0  0.9887845882202064  0.47495609176812786  0.8585801793508647  1.0000
  H   H52       1.0  0.9670106625115099  0.44067824168311515  0.9056188616804066  1.0000
  C   C79       1.0  0.05690398593891999  0.6561916398964575  0.7144189035016278  1.0000
  C   C80       1.0  0.02692251060013295  0.6661234059285301  0.6951380219417315  1.0000
  C   C81       1.0  0.02194418613280759  0.6984816537613171  0.6740229171867873  1.0000
  C   C82       1.0  0.04685868018899718  0.7209774575220598  0.6723403153631712  1.0000
  C   C83       1.0  0.07643405078546865  0.7120056835641048  0.6937756668977867  1.0000
  C   C84       1.0  0.08150815619827356  0.6795346250760376  0.7144063294895586  1.0000
  H   H53       1.0  0.00783049621026998  0.6480748905893999  0.6947892198323273  1.0000
  H   H54       1.0  0.9989290609395425  0.7054136477562833  0.6576849995528916  1.0000
  H   H55       1.0  0.09552788392035305  0.7297734892541767  0.6939863010150379  1.0000
  H   H56       1.0  0.10470779000665886  0.6720951361575506  0.7296591864230457  1.0000
  C   C85       1.0  0.898237856554829  0.4933331621407315  0.6137716668219657  1.0000
  C   C86       1.0  0.8790176249460029  0.48487859593571253  0.6385081264318264  1.0000
  C   C87       1.0  0.8857755431845357  0.4983310096415221  0.6764567611302071  1.0000
  C   C88       1.0  0.9121933706361284  0.5193688740039547  0.6901057764334748  1.0000
  C   C89       1.0  0.9318847881347582  0.5268634475520512  0.6657399704930048  1.0000
  C   C90       1.0  0.9246440291484617  0.5143135234241867  0.6274778276571044  1.0000
  H   H57       1.0  0.8585465164365592  0.46882432271237745  0.6281108245547995  1.0000
  H   H58       1.0  0.8704324003595709  0.4925544414375883  0.6952337134693486  1.0000
  H   H59       1.0  0.9522120120730717  0.5431889852140502  0.6759982804880034  1.0000
  H   H60       1.0  0.9394952307696045  0.5210394536179629  0.6083614568341628  1.0000
  C   C91       1.0  0.11133374352168862  0.3032534132168782  0.41791682589243595  1.0000
  C   C92       1.0  0.13458277595044113  0.32582941394065995  0.4106870967635937  1.0000
  C   C93       1.0  0.12704011997801473  0.3561245271525661  0.3865731997291862  1.0000
  C   C94       1.0  0.09611391331970574  0.36424683594200014  0.36993685757867273  1.0000
  C   C95       1.0  0.07283270059012097  0.34155649639006647  0.376927822588938  1.0000
  C   C96       1.0  0.08043793354112305  0.31081408255754306  0.40031380681615825  1.0000
  H   H61       1.0  0.1585674334127414  0.31999739724708104  0.42401634413929973  1.0000
  H   H62       1.0  0.1451635615654017  0.3734010688368713  0.381292836821655  1.0000
  H   H63       1.0  0.04884034106058333  0.34769179148117807  0.364181900258082  1.0000
  H   H64       1.0  0.06240960781792647  0.2930994674006002  0.40491112811830104  1.0000
  C   C97       1.0  0.9772615594296141  0.2889518558576514  0.5259755052884619  1.0000
  C   C98       1.0  0.9630439706225422  0.3166203771350394  0.5421276819674103  1.0000
  C   C99       1.0  0.9330861549679458  0.32821592515714304  0.5240213763225376  1.0000
  C   C100      1.0  0.9170765269959572  0.3120279540011558  0.48977728515645796  1.0000
  C   C101      1.0  0.9313429227094977  0.28440181676428383  0.47353620454194595  1.0000
  C   C102      1.0  0.9614177566311203  0.2729152370992356  0.49153419951180666  1.0000
  H   H65       1.0  0.9752572944248121  0.329211023369589  0.5686791932564241  1.0000
  H   H66       1.0  0.9225924011494888  0.349915850121215  0.5364134941748383  1.0000
  H   H67       1.0  0.919117691173658  0.2718342948362455  0.4469757493730982  1.0000
  H   H68       1.0  0.9722035514833836  0.25148749542816606  0.478926511824837  1.0000
  C   C103      1.0  0.05873957876356495  0.05574607450684485  0.36477171663949237  1.0000
  C   C104      1.0  0.030599798943679035  0.046798818047147465  0.37339939776396075  1.0000
  C   C105      1.0  0.014663229977102787  0.07218021606846062  0.3904012576118532  1.0000
  C   C106      1.0  0.026684620151111282  0.10672108854900637  0.39854822371990317  1.0000
  C   C107      1.0  0.05478728695609969  0.11574079745004023  0.38989444677133506  1.0000
  C   C108      1.0  0.07090636674662054  0.0901842860870396  0.3732995405928276  1.0000
  H   H69       1.0  0.02137622441179743  0.02013773367320737  0.3677264639027333  1.0000
  H   H70       1.0  0.9930640521057498  0.06497606975463417  0.397433802049479  1.0000
  H   H71       1.0  0.06385116733820351  0.14261289193623664  0.3952086380366831  1.0000
  H   H72       1.0  0.09264593172992504  0.09727822439673384  0.3665589975043757  1.0000
  C   C109      1.0  0.5747437681076348  0.2821618682804263  0.6499953111492117  1.0000
  C   C110      1.0  0.6043786193759063  0.2825896023513762  0.6743349147679116  1.0000
  C   C111      1.0  0.6127418424538912  0.30990261486737025  0.701879005713548  1.0000
  C   C112      1.0  0.5913679897145012  0.3365804300994001  0.7055873822983787  1.0000
  C   C113      1.0  0.5618214810157589  0.336362349661784  0.6810344288726509  1.0000
  C   C114      1.0  0.5535470012986259  0.3091957619674745  0.6532729478972228  1.0000
  H   H73       1.0  0.6206492991468271  0.26147302412559553  0.6725455189033637  1.0000
  H   H74       1.0  0.6356013544871417  0.30990911369249696  0.7209638317385662  1.0000
  H   H75       1.0  0.5453177944526472  0.35711629906238007  0.6833874982503051  1.0000
  H   H76       1.0  0.530597991122363  0.30903960282332404  0.6343974023625051  1.0000
  C   C115      1.0  0.7112232955775597  0.27955503513320784  0.5498371353925138  1.0000
  C   C116      1.0  0.7213976369230477  0.3092938415886227  0.532087867954186  1.0000
  C   C117      1.0  0.7494259433723571  0.326025234513834  0.5491343231133347  1.0000
  C   C118      1.0  0.7678765305134101  0.3127056923832792  0.5837155473208916  1.0000
  C   C119      1.0  0.7574499331812042  0.2833617928020795  0.6020230364813988  1.0000
  C   C120      1.0  0.7290726472257328  0.2668367297989436  0.5851682372788776  1.0000
  H   H77       1.0  0.7075552701610026  0.3194586399175771  0.5049409298689087  1.0000
  H   H78       1.0  0.7567006960584469  0.34925128517915716  0.5353505580724193  1.0000
  H   H79       1.0  0.7715537796922592  0.27301265006955217  0.6289039077143632  1.0000
  H   H80       1.0  0.7212824048434011  0.24395789251303998  0.5991351404620522  1.0000
  C   C121      1.0  0.6277218765948155  0.05993591626242825  0.7288731921061384  1.0000
  C   C122      1.0  0.6585017436101929  0.05097709258375493  0.7301423509455189  1.0000
  C   C123      1.0  0.6767836116995233  0.07411579406640742  0.7136114704245425  1.0000
  C   C124      1.0  0.6643441426877712  0.1062733122346931  0.6959846847353701  1.0000
  C   C125      1.0  0.6341907786547296  0.11611518856416259  0.6968040781648582  1.0000
  C   C126      1.0  0.6158802360249869  0.0929373877073584  0.7130644776179439  1.0000
  H   H81       1.0  0.6680214656100676  0.025959300612482528  0.7429571327706932  1.0000
  H   H82       1.0  0.7002617171610696  0.06663551337692186  0.713454256210971  1.0000
  H   H83       1.0  0.6249204405077927  0.14158710273719832  0.6848361089788471  1.0000
  H   H84       1.0  0.5922329683099681  0.1002366653493505  0.7125455067226866  1.0000
  C   C127      1.0  0.6164038359641592  0.44976157417638885  0.19211517060211164  1.0000
  C   C128      1.0  0.6280700608711319  0.46881499027644524  0.16468908659677298  1.0000
  C   C129      1.0  0.6309515198250784  0.4518927233803124  0.13040539963848907  1.0000
  C   C130      1.0  0.6227005705513966  0.41571448125216703  0.12373308668598691  1.0000
  C   C131      1.0  0.6111643101338056  0.3966729757649782  0.1512487427292115  1.0000
  C   C132      1.0  0.6078616633864258  0.41373686628441797  0.18523843873739748  1.0000
  H   H85       1.0  0.6349927625224574  0.4965048965460903  0.16997829563362235  1.0000
  H   H86       1.0  0.6400687865059393  0.4666805851069413  0.10931601749050203  1.0000
  H   H87       1.0  0.6044499500387843  0.3688952891797655  0.1461752678226132  1.0000
  H   H88       1.0  0.598762891246559  0.3989097491996789  0.20633402780798427  1.0000
  C   C133      1.0  0.7397312500779444  0.5276129578626654  0.3698603078247089  1.0000
  C   C134      1.0  0.7143757857112879  0.5123873648270659  0.3807309856646786  1.0000
  C   C135      1.0  0.7186807121372835  0.48352712404955145  0.40690573711522726  1.0000
  C   C136      1.0  0.7482712472941033  0.46946195016402104  0.4220430339569719  1.0000
  C   C137      1.0  0.7738188249784586  0.48505028508645986  0.41185416591684154  1.0000
  C   C138      1.0  0.769547028893743  0.5143342204121847  0.38600805862418885  1.0000
  H   H89       1.0  0.691421973910856  0.5228587464389972  0.36903008830769685  1.0000
  H   H90       1.0  0.6989091614672511  0.47180174612471065  0.4151550290080614  1.0000
  H   H91       1.0  0.796684848557879  0.4740644244548253  0.423163306665783  1.0000
  H   H92       1.0  0.7892239760177101  0.526018977285417  0.3775255846124214  1.0000
  C   C139      1.0  0.5958963122461698  0.6616175991842408  0.3332553061468404  1.0000
  C   C140      1.0  0.624723253342239  0.6588777627325487  0.3593321704954135  1.0000
  C   C141      1.0  0.6313905957911243  0.6803893287871282  0.39271484711752025  1.0000
  C   C142      1.0  0.6093376874300681  0.704714195510127  0.4001282865207444  1.0000
  C   C143      1.0  0.5805012226069565  0.70719818014025  0.3741010944460692  1.0000
  C   C144      1.0  0.5737262807073188  0.6855007081627611  0.3410041996587619  1.0000
  H   H93       1.0  0.6419740827298778  0.6405168595074378  0.35358546915517686  1.0000
  H   H94       1.0  0.6537336601420648  0.6783022287905534  0.4127879755663992  1.0000
  H   H95       1.0  0.5634481428369372  0.7259561662599782  0.37931571603992936  1.0000
  H   H96       1.0  0.5513746470844044  0.6876795146614352  0.3209655049618027  1.0000
  C   C145      1.0  0.5651386653766652  0.7680991289735399  0.8624378747150199  1.0000
  C   C146      1.0  0.5426428322362563  0.7913599420070656  0.8701220645734656  1.0000
  C   C147      1.0  0.5423835597670413  0.827628123785576  0.8590295507744182  1.0000
  C   C148      1.0  0.5645748372500953  0.8407353817323265  0.8402382825909182  1.0000
  C   C149      1.0  0.5868166124922545  0.8173014943799286  0.832188198119222  1.0000
  C   C150      1.0  0.5870493727754305  0.7810529290584937  0.8431993655730781  1.0000
  H   H97       1.0  0.5253778358911211  0.7814205775780626  0.8844410344411558  1.0000
  H   H98       1.0  0.524966666240782  0.8456068418050948  0.8650385360561672  1.0000
  H   H99       1.0  0.603744097804162  0.8269964140834316  0.8173360897210432  1.0000
  H   H100      1.0  0.6043700627826207  0.7630488115284495  0.8369917862996603  1.0000
  C   C151      1.0  0.598985652692614  0.6922998738597096  0.09178088367484745  1.0000
  C   C152      1.0  0.6178831768703873  0.6736519576888425  0.0721261729731072  1.0000
  C   C153      1.0  0.6389925239426022  0.6479979796859102  0.09175379423555914  1.0000
  C   C154      1.0  0.6408287290007632  0.6404362337701281  0.1308402998486827  1.0000
  C   C155      1.0  0.6215431411947755  0.6585931596631968  0.15035597732443937  1.0000
  C   C156      1.0  0.6009313547137317  0.68490244128997  0.1309545693972728  1.0000
  H   H101      1.0  0.6166916220511003  0.6794669127040518  0.04200913451790678  1.0000
  H   H102      1.0  0.6538096361647611  0.6338210982225946  0.07658407050813165  1.0000
  H   H103      1.0  0.6226000864628937  0.652310527742592  0.1803638225521493  1.0000
  H   H104      1.0  0.5859652904413992  0.6989669739601504  0.14595840003033875  1.0000
  C   C157      1.0  0.42994576461118167  0.7624918095859365  0.9811487157436065  1.0000
  C   C158      1.0  0.4000802141878375  0.7715054877030664  0.9844857760280867  1.0000
  C   C159      1.0  0.39555234749923984  0.7992277730914664  0.009318510451726603  1.0000
  C   C160      1.0  0.42094883882539225  0.8178130963716563  0.031113424664464207  1.0000
  C   C161      1.0  0.4508717888714804  0.8078266760485442  0.02895409907955737  1.0000
  C   C162      1.0  0.4553736731391752  0.7802506825981843  0.0039965854724224315  1.0000
  H   H105      1.0  0.3804663165826977  0.7570584321838715  0.9676389976206988  1.0000
  H   H106      1.0  0.3724973159906377  0.8060903574575995  0.01181913181197869  1.0000
  H   H107      1.0  0.4706194607731368  0.8218543726976445  0.04609105500699684  1.0000
  H   H108      1.0  0.4784909632460033  0.7731808034299844  0.00202705925866864  1.0000
  C   C163      1.0  0.5514260178232029  0.5398588771998584  0.8530684114083187  1.0000
  C   C164      1.0  0.5361969010808807  0.5169620408705932  0.873792722770235  1.0000
  C   C165      1.0  0.5273872998964395  0.5295983317857716  0.9068901281302245  1.0000
  C   C166      1.0  0.533255690668413  0.5652719743384406  0.9188087705702502  1.0000
  C   C167      1.0  0.5482274676284821  0.5881158962773222  0.8978380514230657  1.0000
  C   C168      1.0  0.5575828671308235  0.575321183875666  0.8653273859604704  1.0000
  H   H109      1.0  0.5310884674779848  0.4896545406472692  0.8642026736983716  1.0000
  H   H110      1.0  0.5153728288296049  0.5120678049484735  0.9227222610855145  1.0000
  H   H111      1.0  0.552856618499509  0.6156602035252466  0.9067797156087833  1.0000
  H   H112      1.0  0.5694237510461935  0.593112975651589  0.8494827591553915  1.0000
  C   C169      1.0  0.06344527946134007  0.8706944020217704  0.18308258626995733  1.0000
  C   C170      1.0  0.06540156520927733  0.8481391079833426  0.21508093218537397  1.0000
  C   C171      1.0  0.06604016901649776  0.8108041932100811  0.21054660502462802  1.0000
  C   C172      1.0  0.06414201176047837  0.7958731996763533  0.17401777552115152  1.0000
  C   C173      1.0  0.06292024793629059  0.8183912628140293  0.14213135584974507  1.0000
  C   C174      1.0  0.06251335773238154  0.8558292779547916  0.1466633989756685  1.0000
  H   H113      1.0  0.06674722439613141  0.8595057131536518  0.24338910014827175  1.0000
  H   H114      1.0  0.06823729938743758  0.793408819035447  0.23537370391896684  1.0000
  H   H115      1.0  0.06132593515657314  0.8069196314046622  0.11379958093482476  1.0000
  H   H116      1.0  0.06081705464668197  0.8732427048692208  0.12181562500158796  1.0000
  C   C175      1.0  0.02999223221942726  0.6362893509529554  0.9231779323486599  1.0000
  C   C176      1.0  0.0537346325809284  0.610793782247187  0.9288703994051748  1.0000
  C   C177      1.0  0.07443320405271248  0.6073958224592784  0.9651936229716322  1.0000
  C   C178      1.0  0.0717283052674961  0.6297949389286742  0.9958251249772795  1.0000
  C   C179      1.0  0.048806385562908616  0.6563348670724329  0.9896785863342265  1.0000
  C   C180      1.0  0.02790266615086945  0.659466648501083  0.9534404736981424  1.0000
  H   H117      1.0  0.0557633390971359  0.5931132652195622  0.9056446483247315  1.0000
  H   H118      1.0  0.0924286525590745  0.5871740300667858  0.9696726894663631  1.0000
  H   H119      1.0  0.04648108068412293  0.6736255267213345  0.013226623854312392  1.0000
  H   H120      1.0  0.009635759259168264  0.6793545932456151  0.9491877578579255  1.0000
  C   C181      1.0  0.19082241593944121  0.8060982791139846  0.06587875944202173  1.0000
  C   C182      1.0  0.208701420154323  0.7963317675822785  0.10228984247226182  1.0000
  C   C183      1.0  0.23717404763047925  0.8132213726907996  0.11707589911481962  1.0000
  C   C184      1.0  0.2481557793559961  0.8394291487434168  0.09528068534198923  1.0000
  C   C185      1.0  0.23066083191606163  0.8485509349178945  0.058408331284308695  1.0000
  C   C186      1.0  0.20189568697154275  0.8321049909912568  0.04389078925664536  1.0000
  H   H121      1.0  0.20047862681854603  0.7760309154469739  0.11924699481955188  1.0000
  H   H122      1.0  0.2507951382169826  0.8059162541250108  0.14547484623384666  1.0000
  H   H123      1.0  0.23905785702502216  0.8687726863826601  0.041518446120692554  1.0000
  H   H124      1.0  0.18814669826971828  0.8395801125644297  0.015675472820095404  1.0000
  C   C187      1.0  0.1766675690309735  0.6416906466680398  0.23154620367600037  1.0000
  C   C188      1.0  0.1479889885691343  0.6511556125683158  0.23842363425111343  1.0000
  C   C189      1.0  0.13416474671724582  0.6292135356237133  0.2617924627544127  1.0000
  C   C190      1.0  0.14855579550128312  0.597261138912322  0.2774615574589487  1.0000
  C   C191      1.0  0.1775551671848376  0.5883009329955298  0.2712498599127791  1.0000
  C   C192      1.0  0.19181510323819148  0.6107789329572342  0.24890620398606786  1.0000
  H   H125      1.0  0.13645885497441987  0.6754464271865728  0.2257903088872939  1.0000
  H   H126      1.0  0.11193346460840016  0.6366069623214687  0.2669217426065811  1.0000
  H   H127      1.0  0.1892358238571955  0.5642831924052488  0.28390504843057807  1.0000
  H   H128      1.0  0.21416535162472639  0.6035981393377574  0.24398859148155214  1.0000
  C   C193      1.0  0.12278747251653925  0.9271964285764873  0.7720092238529424  1.0000
  C   C194      1.0  0.10774286149473496  0.8975675349689907  0.7518965512391393  1.0000
  C   C195      1.0  0.12292639371957742  0.875779841252236  0.7299781882008206  1.0000
  C   C196      1.0  0.1534713969923664  0.8831126334842302  0.7286603404428705  1.0000
  C   C197      1.0  0.16883498901248364  0.9122236578303775  0.7496389524542079  1.0000
  C   C198      1.0  0.1534242399806514  0.9344852772697897  0.770957800486422  1.0000
  H   H129      1.0  0.08412035144287498  0.891712915808682  0.7528054653730454  1.0000
  H   H130      1.0  0.11108663633116547  0.8530576308579317  0.7144519379327949  1.0000
  H   H131      1.0  0.19253506438252366  0.9178177644485875  0.7489027718632053  1.0000
  H   H132      1.0  0.1653136919458745  0.9570335183114342  0.7867626239160472  1.0000
  C   C199      1.0  0.10731727673509582  0.131521106816845  0.6985956848238892  1.0000
  C   C200      1.0  0.09456650194371449  0.16007157604612335  0.6741817710475654  1.0000
  C   C201      1.0  0.09642396282447702  0.1605605892940146  0.6353089886354963  1.0000
  C   C202      1.0  0.11146321539358511  0.13270428209446242  0.6208520475249131  1.0000
  C   C203      1.0  0.12422494935699142  0.1040679583779056  0.6452362345831703  1.0000
  C   C204      1.0  0.12191679818959432  0.10329037732435639  0.6840029558571905  1.0000
  H   H133      1.0  0.0832301606671754  0.18196092975412126  0.6853280150037427  1.0000
  H   H134      1.0  0.08652675543073185  0.18270427782083945  0.6166529793101584  1.0000
  H   H135      1.0  0.13569560120834312  0.08234472055770727  0.6340313376719818  1.0000
  H   H136      1.0  0.13133234900238827  0.0808948420294095  0.7024758806600695  1.0000
  C   C205      1.0  0.2461273709384048  0.012389626789752084  0.878354296879276  1.0000
  C   C206      1.0  0.2679279187608661  0.01130305095419404  0.9138927104138541  1.0000
  C   C207      1.0  0.27971804337160616  0.9782590444145527  0.9302131679822188  1.0000
  C   C208      1.0  0.2705021408387918  0.9462987717230669  0.9103794928755056  1.0000
  C   C209      1.0  0.24938806524416451  0.9474863950263986  0.8742602343049675  1.0000
  C   C210      1.0  0.23669197871229425  0.9803831609659805  0.8586806269466827  1.0000
  H   H137      1.0  0.27533048198130794  0.03599892173684816  0.9291785831269742  1.0000
  H   H138      1.0  0.2960768243332633  0.977611655210591  0.9580383246947768  1.0000
  H   H139      1.0  0.2424905780990567  0.9229230148909358  0.8584811376334903  1.0000
  H   H140      1.0  0.2201117366443581  0.9810656466836906  0.8310334469634667  1.0000
  C   C211      1.0  0.10047233737246594  0.1343314601216992  0.9292354883237233  1.0000
  C   C212      1.0  0.0774955649798631  0.14930063009520872  0.9454309418840479  1.0000
  C   C213      1.0  0.07721203347220765  0.1862633260190842  0.952850103073829  1.0000
  C   C214      1.0  0.10049826630876948  0.20833811892703155  0.9452858649162337  1.0000
  C   C215      1.0  0.12395497817673017  0.1932624333996695  0.9299867836144451  1.0000
  C   C216      1.0  0.12387780828288059  0.15634437548976723  0.9218087342085894  1.0000
  H   H141      1.0  0.05939829539999246  0.1323874104166295  0.9513817142292816  1.0000
  H   H142      1.0  0.0588001376871424  0.197606007270686  0.9641539313858936  1.0000
  H   H143      1.0  0.14211025851209136  0.21017142849117681  0.9242028552225202  1.0000
  H   H144      1.0  0.14204626645079257  0.14493582092908072  0.910081151651688  1.0000
  C   C217      1.0  0.556843238434659  0.9129048993978638  0.2967772424047348  1.0000
  C   C218      1.0  0.5694816116166103  0.8807935394303564  0.31424827860354093  1.0000
  C   C219      1.0  0.5516711090648874  0.8579074689574201  0.3317214494102044  1.0000
  C   C220      1.0  0.5211575710208805  0.8670725160403333  0.3317077658498734  1.0000
  C   C221      1.0  0.5081430093818148  0.8985014634833693  0.31293783844005557  1.0000
  C   C222      1.0  0.5259935801528951  0.9214682030068786  0.29560645586769285  1.0000
  H   H145      1.0  0.5932811407715812  0.8740238618618642  0.31504321380067973  1.0000
  H   H146      1.0  0.5616188350501354  0.8332776118161604  0.3454077356383  1.0000
  H   H147      1.0  0.48454743175994963  0.9056803041205523  0.3128666944098465  1.0000
  H   H148      1.0  0.5159524154753742  0.9459891450362353  0.28175387672295577  1.0000
  C   C223      1.0  0.5778047825437304  0.11403786767636573  0.3781557003353864  1.0000
  C   C224      1.0  0.5627489103311808  0.08680318171053808  0.393739736887589  1.0000
  C   C225      1.0  0.564984924072064  0.08535741034696112  0.43383208431635367  1.0000
  C   C226      1.0  0.5823818562981421  0.11100424676446853  0.45845245470949936  1.0000
  C   C227      1.0  0.5973993068499049  0.13821014261067124  0.44288089864913316  1.0000
  C   C228      1.0  0.5950614299258685  0.13972344561650402  0.4028091590804381  1.0000
  H   H149      1.0  0.5489348292666143  0.06741403281885684  0.37479354491467015  1.0000
  H   H150      1.0  0.5527512262641953  0.06482994514283086  0.4457331317680279  1.0000
  H   H151      1.0  0.6107810173286422  0.15813753261599003  0.46166506573109134  1.0000
  H   H152      1.0  0.6066253488529492  0.16093017349192673  0.39086455094727907  1.0000
  C   C229      1.0  0.42248606689072543  0.013458319095379203  0.1994351584521323  1.0000
  C   C230      1.0  0.3922299511680221  0.0003027604564616037  0.19262723501639706  1.0000
  C   C231      1.0  0.37403437829273606  0.9979699194241709  0.15468071768603894  1.0000
  C   C232      1.0  0.3859106385049558  0.009431970199151207  0.12356719370501242  1.0000
  C   C233      1.0  0.4162811626407347  0.02216149134360501  0.13036962822292017  1.0000
  C   C234      1.0  0.4346177096127044  0.023930905805500613  0.16821878077313618  1.0000
  H   H153      1.0  0.3828207020145839  0.9919822014707835  0.21671825952513157  1.0000
  H   H154      1.0  0.3505966724026543  0.9880086166890546  0.14953050854098945  1.0000
  H   H155      1.0  0.4258069933069344  0.029820144451187636  0.1062389212399883  1.0000
  H   H156      1.0  0.45811742725336563  0.0334120772286326  0.1732900774380581  1.0000
  C   C235      1.0  0.5549046454873785  0.19783939661503586  0.13285895098393574  1.0000
  C   C236      1.0  0.5583620693017118  0.17484867743370605  0.10312939085791943  1.0000
  C   C237      1.0  0.5554216325285901  0.13756111807768345  0.10725942827731093  1.0000
  C   C238      1.0  0.5493135009349309  0.1231637275403926  0.14121266092417503  1.0000
  C   C239      1.0  0.5462371263152025  0.14618818933498837  0.17104224826682637  1.0000
  C   C240      1.0  0.5485514572915919  0.18343755230641973  0.16661970877224225  1.0000
  H   H157      1.0  0.5629266013201576  0.1858192045084016  0.07680634813219034  1.0000
  H   H158      1.0  0.5577035540587947  0.11984479193679093  0.08401881866612884  1.0000
  H   H159      1.0  0.5419090477738697  0.13541065219536622  0.19750892200213133  1.0000
  H   H160      1.0  0.5458509654836506  0.20113485825423186  0.1897106999933041  1.0000
  N   N1        1.0  0.04054538006624697  0.35765490003252465  0.2348997296701796  1.0000
  C   C241      1.0  0.06595454430374303  0.38385102379290575  0.23837398913896218  1.0000
  C   C242      1.0  0.03964432538428597  0.3441567036589579  0.273770352943957  1.0000
  C   C243      1.0  0.0456862048654032  0.3273034970010881  0.21047692396609607  1.0000
  C   C244      1.0  0.010873408407984897  0.37540423579829946  0.21700892288948626  1.0000
  H   H161      1.0  0.06761161539404492  0.3944604383622147  0.20961173537354508  1.0000
  H   H162      1.0  0.08872749554761761  0.3716523494098584  0.252386319524243  1.0000
  H   H163      1.0  0.06262272959889525  0.4071779188747653  0.2564763624627567  1.0000
  H   H164      1.0  0.0622549919913129  0.33215841934117846  0.28886558635160503  1.0000
  H   H165      1.0  0.034685148524542964  0.36624542893833784  0.29247251547112585  1.0000
  H   H166      1.0  0.021549302022569217  0.3233397267412848  0.27237297548217265  1.0000
  H   H167      1.0  0.027284842086726435  0.30666336598266186  0.20775595762039598  1.0000
  H   H168      1.0  0.06823379642766003  0.3138063905518972  0.22265041720414602  1.0000
  H   H169      1.0  0.04577740003631936  0.33641394053928636  0.1806473781232064  1.0000
  H   H170      1.0  0.99114724433373  0.35646646907864776  0.21399634347848517  1.0000
  H   H171      1.0  0.01087241471899314  0.3859064235152468  0.1876207926869503  1.0000
  H   H172      1.0  0.006368961648171467  0.3985295568214556  0.2347315447613288  1.0000
  N   N2        1.0  0.04690836891385942  0.7091639032000471  0.8200684401862522  1.0000
  C   C245      1.0  0.06420037788952188  0.6749042847766874  0.8269001587517564  1.0000
  C   C246      1.0  0.015216975336762592  0.7024082465125752  0.7970242879180552  1.0000
  C   C247      1.0  0.0626882525771996  0.7341604111975448  0.798671089204646  1.0000
  C   C248      1.0  0.045474089642339344  0.7250903627572265  0.8576513080593986  1.0000
  H   H173      1.0  0.08833035182079246  0.6789070595352776  0.8438836990820934  1.0000
  H   H174      1.0  0.06539599121421519  0.6617647199683485  0.7992185178373852  1.0000
  H   H175      1.0  0.053032833818790835  0.6556279971280613  0.843336569815431  1.0000
  H   H176      1.0  0.0016003865384990373  0.7277087661486953  0.7907737575492207  1.0000
  H   H177      1.0  0.015477188312972283  0.6897292909847079  0.7687774462915895  1.0000
  H   H178      1.0  0.0024426385687747864  0.6840810739019972  0.812566504705511  1.0000
  H   H179      1.0  0.08687540487797484  0.7394419084001551  0.8147995657228426  1.0000
  H   H180      1.0  0.050423732968467125  0.7604363291926761  0.7932851744829422  1.0000
  H   H181      1.0  0.0636406680088124  0.7231092401548636  0.7699356751366044  1.0000
  H   H182      1.0  0.03252096674008097  0.7509435343768031  0.8537014678168977  1.0000
  H   H183      1.0  0.068999856364689  0.7302845107328739  0.8759425848148558  1.0000
  H   H184      1.0  0.03360589886826971  0.7068288714193217  0.8744276862781216  1.0000
  N   N3        1.0  0.08051583491581416  0.04757658747170823  0.5025312793001504  1.0000
  C   C249      1.0  0.05446236623815359  0.07116720840328705  0.5057289556787614  1.0000
  C   C250      1.0  0.06869847641709637  0.016404349046445388  0.477891825383206  1.0000
  C   C251      1.0  0.09663302827055231  0.03480131190411506  0.5414804320196738  1.0000
  C   C252      1.0  0.10230271920945855  0.06797508759993365  0.48503486953883795  1.0000
  H   H185      1.0  0.04192577250544871  0.08163380716764879  0.47694565789335586  1.0000
  H   H186      1.0  0.06265980148319983  0.09488538705870742  0.5242611022249344  1.0000
  H   H187      1.0  0.03743212909740734  0.05675142900138508  0.5186566207285491  1.0000
  H   H188      1.0  0.05644991712501901  0.025056098509872227  0.4483031971170386  1.0000
  H   H189      1.0  0.0877883867075202  0.9981418302199435  0.4747209373855809  1.0000
  H   H190      1.0  0.05219705851393397  0.00030446407881590254  0.4901822250368373  1.0000
  H   H191      1.0  0.10581910291412955  0.057651608275382404  0.5608593565303086  1.0000
  H   H192      1.0  0.11649465267322712  0.017017665081805022  0.5401993240684307  1.0000
  H   H193      1.0  0.0808418734285945  0.019336612209835735  0.5555458500214127  1.0000
  H   H194      1.0  0.09078906655894992  0.07824464194795833  0.45577567158920684  1.0000
  H   H195      1.0  0.12218909342693207  0.05107174581827989  0.4818616314379195  1.0000
  H   H196      1.0  0.11177150253104617  0.09164568358551328  0.5029553103805637  1.0000
  N   N4        1.0  0.9575465711242821  0.1076240162118766  0.04166531171488774  1.0000
  C   C253      1.0  0.932847535986691  0.12166766455687038  0.059115544586094214  1.0000
  C   C254      1.0  0.9841932262003269  0.13236766407157186  0.0502092204761031  1.0000
  C   C255      1.0  0.9457545479177414  0.10477091069942382  0.9993101643643453  1.0000
  C   C256      1.0  0.9673169819555438  0.07170392185721872  0.057920923279483914  1.0000
  H   H197      1.0  0.9408626457476472  0.12439015868895716  0.09101725826507495  1.0000
  H   H198      1.0  0.9125102053667097  0.10350080122862237  0.05356040795555025  1.0000
  H   H199      1.0  0.9245994944203173  0.14849779018091985  0.04707313042670758  1.0000
  H   H200      1.0  0.9942266012536886  0.13440111155686288  0.08186207502891887  1.0000
  H   H201      1.0  0.002821285129534168  0.12344216498330371  0.03619789356450198  1.0000
  H   H202      1.0  0.9772922598474914  0.15996318373935092  0.03926931121239652  1.0000
  H   H203      1.0  0.9245606292480554  0.08786581179606684  0.9918606673193919  1.0000
  H   H204      1.0  0.9632844851673066  0.09274193844382075  0.9853407012112143  1.0000
  H   H205      1.0  0.9397444281843486  0.13160666072040475  0.9858274941434813  1.0000
  H   H206      1.0  0.9481244736477982  0.05197293064351909  0.050075616027501324  1.0000
  H   H207      1.0  0.9745324231563935  0.07223481422592008  0.09007473532439204  1.0000
  H   H208      1.0  0.9869569030757113  0.061020847277201175  0.04684950365225293  1.0000
  N   N5        1.0  0.6149232431688252  0.7936458195816634  0.9797355120220229  1.0000
  C   C257      1.0  0.6137760432040699  0.7576065328770863  0.9622466402168878  1.0000
  C   C258      1.0  0.6055319309175252  0.791154340921296  0.016904134421871442  1.0000
  C   C259      1.0  0.5936000714374156  0.8180316740839104  0.9531928450836733  1.0000
  C   C260      1.0  0.6467504948631261  0.8077150286321674  0.986492080365093  1.0000
  H   H209      1.0  0.6204053295543308  0.7583554385062395  0.9339027341681416  1.0000
  H   H210      1.0  0.590081335310699  0.746313080582723  0.9566131257928346  1.0000
  H   H211      1.0  0.629369573999999  0.738272989423526  0.9814421958302658  1.0000
  H   H212      1.0  0.6204495836506937  0.7720632262939645  0.03732353833153246  1.0000
  H   H213      1.0  0.6066026561610933  0.8176802063751856  0.03139885802897524  1.0000
  H   H214      1.0  0.581374827697664  0.7812662306840283  0.012664007635995178  1.0000
  H   H215      1.0  0.593941641924367  0.8456096137532705  0.9651719134506564  1.0000
  H   H216      1.0  0.569331932152748  0.8082747338000784  0.9476308762294225  1.0000
  H   H217      1.0  0.5997156585589841  0.820175900656841  0.924600840380603  1.0000
  H   H218      1.0  0.64847657963768  0.8349429796645318  0.9996075919849128  1.0000
  H   H219      1.0  0.6544074919259795  0.80986907641075  0.9588774586323661  1.0000
  H   H220      1.0  0.6634333794549081  0.789875637375645  0.006352819301926216  1.0000
  N   N6        1.0  0.6988793747269652  0.4317405212114236  0.2959996587004027  1.0000
  C   C261      1.0  0.7065322115798313  0.3954311029778102  0.3124235075941345  1.0000
  C   C262      1.0  0.6879334913284113  0.42939112256729894  0.2534905683641088  1.0000
  C   C263      1.0  0.7267085610405457  0.45461039921855373  0.3057070728800321  1.0000
  C   C264      1.0  0.6742858499860663  0.44751342263394966  0.3124537726156258  1.0000
  H   H221      1.0  0.685935340234471  0.377584501451038  0.3057601336628407  1.0000
  H   H222      1.0  0.714891126453972  0.3963747371097023  0.3445490633399103  1.0000
  H   H223      1.0  0.7250062385133492  0.38265499972503497  0.30065983309687494  1.0000
  H   H224      1.0  0.6817151672370352  0.45636277677137826  0.24031052046008355  1.0000
  H   H225      1.0  0.7057881899695561  0.4176862326797685  0.23986855461934256  1.0000
  H   H226      1.0  0.6668350817641873  0.4124728763086629  0.24514622086172355  1.0000
  H   H227      1.0  0.7214330192903556  0.4828262747400752  0.29568550779554903  1.0000
  H   H228      1.0  0.7452534234973704  0.4445285973069003  0.29224172005933396  1.0000
  H   H229      1.0  0.7364284397452611  0.45544621802749113  0.3374807100009175  1.0000
  H   H230      1.0  0.6687576838948649  0.47548094219375336  0.3019424826450971  1.0000
  H   H231      1.0  0.6811186204008296  0.4482920718608726  0.34455735549737015  1.0000
  H   H232      1.0  0.6524149096029782  0.43191954729474236  0.3041172145295113  1.0000
  N   N7        1.0  0.3542062361098789  0.8446680416601052  0.900704361382211  1.0000
  C   C265      1.0  0.3327259543907346  0.8211519020487547  0.9153703836124548  1.0000
  C   C266      1.0  0.36785309018218176  0.8711175316404177  0.9307091999384115  1.0000
  C   C267      1.0  0.3370124083733455  0.8638061420174045  0.8657033761130501  1.0000
  C   C268      1.0  0.3791008254198299  0.8227492955334563  0.8910362016568061  1.0000
  H   H233      1.0  0.32205153197608943  0.8007346458721568  0.8935829168145143  1.0000
  H   H234      1.0  0.3136692800190798  0.8368878758726263  0.9229180927000603  1.0000
  H   H235      1.0  0.3447310792156877  0.8065667660462247  0.941965599042767  1.0000
  H   H236      1.0  0.3844881739225919  0.8890834374789457  0.920938475244382  1.0000
  H   H237      1.0  0.3496577797573582  0.8884038662001544  0.9380889054406885  1.0000
  H   H238      1.0  0.3805291155933572  0.8577628226944656  0.957913448528999  1.0000
  H   H239      1.0  0.3523812388291119  0.8820814185266226  0.8539737420632385  1.0000
  H   H240      1.0  0.31800236774151214  0.8805275869257312  0.8721193363229672  1.0000
  H   H241      1.0  0.3263578632270955  0.8447023476182776  0.8424074996619931  1.0000
  H   H242      1.0  0.3953834701042307  0.839550537668028  0.8791571347095218  1.0000
  H   H243      1.0  0.3696622546231841  0.8017634354793938  0.8692912641462625  1.0000
  H   H244      1.0  0.39306133731245746  0.8086819063190784  0.916995660969944  1.0000
  N   N8        1.0  0.5646663474384063  0.5668152644865793  0.08187180512138878  1.0000
  C   C269      1.0  0.5592048216168237  0.603605058999593  0.0658992531195764  1.0000
  C   C270      1.0  0.5442422484513013  0.5599620634545156  0.10846549896783975  1.0000
  C   C271      1.0  0.5972337751519657  0.5630199140588381  0.10333599699895418  1.0000
  C   C272      1.0  0.5579682002928349  0.5406591177440421  0.04986050368049333  1.0000
  H   H245      1.0  0.5744108764200458  0.6098551222442364  0.0459233452416723  1.0000
  H   H246      1.0  0.5637597285951961  0.624133613788324  0.08920728818824819  1.0000
  H   H247      1.0  0.5349160052031826  0.607169727061694  0.04903066177190096  1.0000
  H   H248      1.0  0.5487027500549551  0.5793767886621767  0.13291719686753486  1.0000
  H   H249      1.0  0.519426941245778  0.5625275770097456  0.09326640011916398  1.0000
  H   H250      1.0  0.5479412879885249  0.5325027927704985  0.12129333539248784  1.0000
  H   H251      1.0  0.602516950992752  0.535286841819144  0.1147561847769473  1.0000
  H   H252      1.0  0.6026102041777119  0.5813599344257602  0.12859823310380358  1.0000
  H   H253      1.0  0.6135451167672493  0.5695777559980186  0.08486685210902364  1.0000
  H   H254      1.0  0.5723352286757665  0.545911934311374  0.028637930397624523  1.0000
  H   H255      1.0  0.5333574093438956  0.5424029648995994  0.0335321011037617  1.0000
  H   H256      1.0  0.5624695419484854  0.5126404979151312  0.06072286319742109  1.0000
  N   N9        1.0  0.8380567284261399  0.2487176392405423  0.5298905534763142  1.0000
  C   C273      1.0  0.850019272016136  0.21282358526359346  0.5437539124641334  1.0000
  C   C274      1.0  0.8069467917196999  0.2537848050659916  0.5371867668808487  1.0000
  C   C275      1.0  0.836198929933135  0.25187132206749424  0.48793266910061106  1.0000
  C   C276      1.0  0.8591305898235142  0.27649000240624416  0.5507395357798388  1.0000
  H   H257      1.0  0.8517612344621909  0.2097290122510931  0.5753689746528087  1.0000
  H   H258      1.0  0.8734812337044036  0.20821271185409793  0.5386228791878379  1.0000
  H   H259      1.0  0.834629493733963  0.19118180505194707  0.5287025138164408  1.0000
  H   H260      1.0  0.7903247750430711  0.23322273527955456  0.5222272939121579  1.0000
  H   H261      1.0  0.8075512805248841  0.252287372183639  0.5686600811181308  1.0000
  H   H262      1.0  0.797188985337795  0.280560261981477  0.5268792072555862  1.0000
  H   H263      1.0  0.8270411497387052  0.27863637691209125  0.4765401189615775  1.0000
  H   H264      1.0  0.8207654281555221  0.23114610291218413  0.47118468730388835  1.0000
  H   H265      1.0  0.8594220373022857  0.2490958068672795  0.48145955889403386  1.0000
  H   H266      1.0  0.8510317917355185  0.3037178055853501  0.5403547854213421  1.0000
  H   H267      1.0  0.8829363975847686  0.27347623666998966  0.5461602912491647  1.0000
  H   H268      1.0  0.8604662386139297  0.2757772580757606  0.5824098632938527  1.0000
  N   N10       1.0  0.6213589969247312  0.7426733815016546  0.265218774181357  1.0000
  C   C277      1.0  0.6206130090329406  0.7300248342127852  0.22563939087815385  1.0000
  C   C278      1.0  0.5898611132921472  0.7409807635945506  0.2720075378585746  1.0000
  C   C279      1.0  0.632511746959566  0.7801164883850416  0.26972762807197775  1.0000
  C   C280      1.0  0.6423821845655964  0.7194365715572951  0.29353494503439337  1.0000
  H   H269      1.0  0.6118536177404567  0.7019470645294327  0.22151483581681883  1.0000
  H   H270      1.0  0.6440463698842408  0.7301900861020326  0.2195641544047579  1.0000
  H   H271      1.0  0.6051800723332118  0.7470028646876977  0.20333277898367888  1.0000
  H   H272      1.0  0.5735288773505343  0.7588547762599802  0.2517926711785039  1.0000
  H   H273      1.0  0.5803843707285692  0.7132628894999192  0.2677403456725989  1.0000
  H   H274      1.0  0.5896380181790396  0.7490778445614052  0.3020848221381315  1.0000
  H   H275      1.0  0.6170940447463148  0.7984668085229246  0.24894588329919795  1.0000
  H   H276      1.0  0.6561855081916887  0.7824610570212395  0.26465639192094675  1.0000
  H   H277      1.0  0.6333640299457958  0.7902006857601095  0.29944328010604215  1.0000
  H   H278      1.0  0.6421957701320925  0.7266854241703229  0.3238747507740011  1.0000
  H   H279      1.0  0.6666342370181094  0.721194348162811  0.29042558196759477  1.0000
  H   H280      1.0  0.6355329531016686  0.6907457740851605  0.2895505162980701  1.0000
  N   N11       1.0  0.8075556034005629  0.5408931070920601  0.5179378977956884  1.0000
  C   C281      1.0  0.8051071100140994  0.5801312554129463  0.5115762300517505  1.0000
  C   C282      1.0  0.8203921380490553  0.5333131193397127  0.559478073308167  1.0000
  C   C283      1.0  0.8282528496042234  0.5255580202992592  0.4951212605025823  1.0000
  C   C284      1.0  0.7765477619588484  0.5245832298822702  0.5054894335418908  1.0000
  H   H281      1.0  0.7895876282237907  0.5925977408122519  0.5283115891134595  1.0000
  H   H282      1.0  0.795557851904099  0.5867396812947288  0.48044904078566747  1.0000
  H   H283      1.0  0.8281246922393769  0.5932481744052511  0.5206326220130171  1.0000
  H   H284      1.0  0.8226471896541055  0.5039452014578705  0.56524201817611  1.0000
  H   H285      1.0  0.844004428701028  0.5447816962237474  0.5696845565091202  1.0000
  H   H286      1.0  0.8055484852333241  0.5445359781412682  0.5777915097351045  1.0000
  H   H287      1.0  0.8302387090623077  0.49595527583422566  0.4989194206626014  1.0000
  H   H288      1.0  0.8521271905800188  0.5364632189907482  0.5044308010251499  1.0000
  H   H289      1.0  0.8196416101551308  0.5311782997546972  0.4636592306467153  1.0000
  H   H290      1.0  0.7775966018835715  0.4947824458428618  0.5084429835948814  1.0000
  H   H291      1.0  0.765822539226179  0.5307408181223218  0.4745619640101996  1.0000
  H   H292      1.0  0.7605191987754946  0.5345992848292479  0.5228846075194691  1.0000
  N   N12       1.0  0.21837835663348923  0.10529123517694991  0.7486344292285809  1.0000
  C   C285      1.0  0.2126836962931257  0.12347552241698607  0.710556567669499  1.0000
  C   C286      1.0  0.2143788580608725  0.06613346681121049  0.7429455727057322  1.0000
  C   C287      1.0  0.1962175653082192  0.1188375068271852  0.7703921790079267  1.0000
  C   C288      1.0  0.2502220376722087  0.11265318147838793  0.7708546481864048  1.0000
  H   H293      1.0  0.2155774381041589  0.153068313331531  0.7137481641221703  1.0000
  H   H294      1.0  0.18868076688742091  0.11864065049443749  0.6933511724981974  1.0000
  H   H295      1.0  0.2288015694395356  0.11373415675288809  0.6931269757851698  1.0000
  H   H296      1.0  0.21820499890502548  0.05162531684647218  0.7711957983101244  1.0000
  H   H297      1.0  0.19068071244753562  0.05950500292707413  0.7260302690110249  1.0000
  H   H298      1.0  0.2310252458131577  0.05489883728774017  0.7270833242601153  1.0000
  H   H299      1.0  0.2002903559886502  0.10610311000581166  0.7995192772523677  1.0000
  H   H300      1.0  0.17190866864043738  0.11323578117947927  0.7549921982605797  1.0000
  H   H301      1.0  0.19819837993868408  0.1483750124315347  0.7747585929636011  1.0000
  H   H302      1.0  0.2676712451595945  0.1028351741976277  0.7554069289737935  1.0000
  H   H303      1.0  0.25507489494526275  0.09904300376551489  0.799709363811065  1.0000
  H   H304      1.0  0.25405166374714894  0.14190103720855604  0.7761189628836794  1.0000
  N   N13       1.0  0.7570390651401585  0.24460109518449133  0.02536598901197573  1.0000
  C   C289      1.0  0.7771258828969754  0.23882999923196988  0.06437941519852686  1.0000
  C   C290      1.0  0.7743362867686446  0.235482877807916  0.9958761708004367  1.0000
  C   C291      1.0  0.7472682571412571  0.2826472201267076  0.02098297536826843  1.0000
  C   C292      1.0  0.7294191754542854  0.22149375850966474  0.020354952745894606  1.0000
  H   H305      1.0  0.7651235468096056  0.24647903256153258  0.08737071746096481  1.0000
  H   H306      1.0  0.7987508440323557  0.2548603760530538  0.06871604895229577  1.0000
  H   H307      1.0  0.7843250700474659  0.21016454805252835  0.06908118257440288  1.0000
  H   H308      1.0  0.7601316897010936  0.23981122329941415  0.9660022647525813  1.0000
  H   H309      1.0  0.7957249026918518  0.25187682823048474  0.999364998631697  1.0000
  H   H310      1.0  0.7819164305833666  0.20691655978255918  0.9983660632724861  1.0000
  H   H311      1.0  0.7318736570512527  0.2879392761679251  0.9919541369044009  1.0000
  H   H312      1.0  0.767537805494183  0.3008548622406665  0.024568368766065607  1.0000
  H   H313      1.0  0.7342385833889212  0.2903360285869134  0.04300735902563613  1.0000
  H   H314      1.0  0.7150718574490686  0.22902633678358675  0.040905082131975634  1.0000
  H   H315      1.0  0.735924807060556  0.19269729522678067  0.025675363426884035  1.0000
  H   H316      1.0  0.7143850146947602  0.22393151960431218  0.9906606032745842  1.0000
  N   N14       1.0  0.5496881572115802  0.8059503691844434  0.6303235584138841  1.0000
  C   C293      1.0  0.5684400507709237  0.7791492613718326  0.6153160327500031  1.0000
  C   C294      1.0  0.5676724013026351  0.8200838480303969  0.6676476429658194  1.0000
  C   C295      1.0  0.5211546620978913  0.7888370137407819  0.6361325557402346  1.0000
  C   C296      1.0  0.541478525097578  0.8357153319479492  0.6021208423148532  1.0000
  H   H317      1.0  0.5553434593632879  0.7676212814651643  0.5873927884134797  1.0000
  H   H318      1.0  0.5754004479675671  0.7564366022757139  0.6359527786224103  1.0000
  H   H319      1.0  0.5899029467128175  0.7913276971431816  0.6099564316802283  1.0000
  H   H320      1.0  0.5544678421477722  0.8408442480438243  0.67957171180925  1.0000
  H   H321      1.0  0.5740449393351885  0.7984247227314893  0.6897673634939208  1.0000
  H   H322      1.0  0.5895632067998772  0.8327052934331689  0.6644738986053373  1.0000
  H   H323      1.0  0.5264795856838494  0.766074348445099  0.6570253696611903  1.0000
  H   H324      1.0  0.5069729955530117  0.777929855568426  0.6085135119139252  1.0000
  H   H325      1.0  0.5064268244419804  0.808301319255819  0.6473994544296432  1.0000
  H   H326      1.0  0.5624684385565843  0.8492027062606806  0.5971002446607236  1.0000
  H   H327      1.0  0.5272193278574061  0.8564510488193378  0.6122827254405174  1.0000
  H   H328      1.0  0.5280783124974437  0.8259005258300104  0.5735337305310199  1.0000
  N   N15       1.0  0.15501294771674393  0.279929881613235  0.06536423066182495  1.0000
  C   C297      1.0  0.14681118653362757  0.30861176898883114  0.08985565520879323  1.0000
  C   C298      1.0  0.1581069178089522  0.29542606724754983  0.028093472633341054  1.0000
  C   C299      1.0  0.13040542241169675  0.25254458800861235  0.05800115880337962  1.0000
  C   C300      1.0  0.18453385354628934  0.2630533473401421  0.08540613876067925  1.0000
  H   H329      1.0  0.1437893339692736  0.29775941307663745  0.11798812391544379  1.0000
  H   H330      1.0  0.12459745548788127  0.3218328742968039  0.07551717532640403  1.0000
  H   H331      1.0  0.16481917108342087  0.32983425176605613  0.0962571528608944  1.0000
  H   H332      1.0  0.1635453260832342  0.2743301424161626  0.008513494726821946  1.0000
  H   H333      1.0  0.13615549800931268  0.3084080793171299  0.01227420567734172  1.0000
  H   H334      1.0  0.17661843862666404  0.3160431912072622  0.03227651634295636  1.0000
  H   H335      1.0  0.12666811565644082  0.24075823514000813  0.08537207448463056  1.0000
  H   H336      1.0  0.13564938199523988  0.23033359073343568  0.03958436447992608  1.0000
  H   H337      1.0  0.10814625880131884  0.26450248951933564  0.04232273603204395  1.0000
  H   H338      1.0  0.19128700173934216  0.24125287357399525  0.067621231068978  1.0000
  H   H339      1.0  0.182830783113842  0.2509858420061187  0.11355047180135375  1.0000
  H   H340      1.0  0.20364693189428626  0.28298576199660047  0.0915039624845149  1.0000
  N   N16       1.0  0.7490178969878437  0.8928539429995486  0.7716181679958102  1.0000
  C   C301      1.0  0.7340065024449784  0.8978979778620569  0.7301735298444718  1.0000
  C   C302      1.0  0.7281476349421833  0.8725046858051618  0.7905457144314469  1.0000
  C   C303      1.0  0.7556877405841836  0.9282424969782929  0.7904576164896412  1.0000
  C   C304      1.0  0.7781929232816969  0.8726333224591273  0.7754041280310829  1.0000
  H   H341      1.0  0.7490393781757649  0.9130505837964399  0.7147583970845134  1.0000
  H   H342      1.0  0.7118575557105995  0.9129609230429611  0.7262592429991146  1.0000
  H   H343      1.0  0.7281647141193109  0.871698934513643  0.7152392933221375  1.0000
  H   H344      1.0  0.7061679513585203  0.887286017591988  0.7884765741659903  1.0000
  H   H345      1.0  0.7220891157467035  0.8458486323135187  0.7768315520149887  1.0000
  H   H346      1.0  0.7385129555155058  0.8682362590123225  0.8219483628178883  1.0000
  H   H347      1.0  0.7666049895469039  0.9253708779687092  0.8219242666720645  1.0000
  H   H348      1.0  0.7341816033823387  0.944183354359528  0.7884128957219901  1.0000
  H   H349      1.0  0.7714180380114253  0.9444795014288815  0.7770915458607773  1.0000
  H   H350      1.0  0.7739513571532446  0.8457557509146248  0.7615874338121139  1.0000
  H   H351      1.0  0.7899853295540707  0.8683223820967879  0.8063795185984018  1.0000
  H   H352      1.0  0.7945459606610721  0.8872314015247187  0.7614636340346763  1.0000
  N   N17       1.0  0.6491160931371311  0.1827732367553392  0.19745450856672442  1.0000
  C   C305      1.0  0.6433658574556944  0.1792018320348078  0.15502124044515875  1.0000
  C   C306      1.0  0.6360353773483619  0.1514338594122504  0.21365758342174604  1.0000
  C   C307      1.0  0.6342859324468766  0.21602112736540052  0.2069450037644305  1.0000
  C   C308      1.0  0.6828125179082699  0.18454486381019278  0.21394781496650012  1.0000
  H   H353      1.0  0.6526210571924191  0.20266467301269614  0.14195590747326578  1.0000
  H   H354      1.0  0.6182726403543163  0.1776255172359557  0.14149738683001398  1.0000
  H   H355      1.0  0.654425114550445  0.15458897147085776  0.14667599987062263  1.0000
  H   H356      1.0  0.6397389392194817  0.1532521168016258  0.2456841275053693  1.0000
  H   H357      1.0  0.6106583458806878  0.1493345246210272  0.20155306010839236  1.0000
  H   H358      1.0  0.6465699251264119  0.12582005448923425  0.20693324330729734  1.0000
  H   H359      1.0  0.6377441644303149  0.21942357134959078  0.2387555667208066  1.0000
  H   H360      1.0  0.6089060675107513  0.2158817742050575  0.1943217044623323  1.0000
  H   H361      1.0  0.6436959456916311  0.24021941440366443  0.1952964320157829  1.0000
  H   H362      1.0  0.6946933380150402  0.1598470942932049  0.20726186671344454  1.0000
  H   H363      1.0  0.6881536458986007  0.18755525356386787  0.24595745734257737  1.0000
  H   H364      1.0  0.6933255286092023  0.2077122568249446  0.20174920878245542  1.0000
  N   N18       1.0  0.1032708492351546  0.6505652105315463  0.6093558739754791  1.0000
  C   C309      1.0  0.08474142736216243  0.681942150287488  0.5917341247888814  1.0000
  C   C310      1.0  0.11551175929722285  0.6317469764075209  0.5795529368226643  1.0000
  C   C311      1.0  0.08350024038489309  0.6258493070531667  0.6254848828607829  1.0000
  C   C312      1.0  0.12934861399432837  0.6627246425848001  0.6405899890349752  1.0000
  H   H365      1.0  0.0758100680721143  0.6973990405639005  0.6135504420447894  1.0000
  H   H366      1.0  0.06444714887809821  0.673828531060252  0.5686478818739237  1.0000
  H   H367      1.0  0.09871637992991279  0.7007949024525904  0.578587311051824  1.0000
  H   H368      1.0  0.1295090154040258  0.6078562440254328  0.5918653738533728  1.0000
  H   H369      1.0  0.09654637749016774  0.6225953276228461  0.5552369360490715  1.0000
  H   H370      1.0  0.13075288193372273  0.649645539661622  0.5670667652239957  1.0000
  H   H371      1.0  0.09691563863117848  0.6027026558505377  0.6408396907264713  1.0000
  H   H372      1.0  0.06424954804037421  0.6150854051825179  0.6025228741562015  1.0000
  H   H373      1.0  0.07276890587101596  0.6397034160712235  0.6466868463605854  1.0000
  H   H374      1.0  0.14364206496348972  0.6397639826393287  0.6548920046169597  1.0000
  H   H375      1.0  0.12111173162195046  0.6775698896703525  0.6632667742588791  1.0000
  H   H376      1.0  0.1448839841215722  0.681189380648266  0.6293717347475885  1.0000
  N   N19       1.0  0.2163781270413767  0.6012700571910792  0.39119979766295615  1.0000
  C   C313      1.0  0.24845622767338557  0.612816012319967  0.4081350346001816  1.0000
  C   C314      1.0  0.199774968211871  0.6297594718792786  0.3653916991387663  1.0000
  C   C315      1.0  0.20038823950859594  0.5942777283797603  0.42254319811251045  1.0000
  C   C316      1.0  0.21681422707784256  0.5680861254382191  0.3687038773427174  1.0000
  H   H377      1.0  0.2615749316556267  0.5918488047367932  0.4277653979999375  1.0000
  H   H378      1.0  0.24907199210244793  0.637653105284065  0.42561414690140925  1.0000
  H   H379      1.0  0.26127576358503635  0.6181913387741415  0.38532477162053913  1.0000
  H   H380      1.0  0.19972099204675617  0.6555311986565202  0.38106044146978907  1.0000
  H   H381      1.0  0.21047337832594346  0.634757922341686  0.34048767347811426  1.0000
  H   H382      1.0  0.17522813452150524  0.6222076211030566  0.3531468939957357  1.0000
  H   H383      1.0  0.21253572625619999  0.5731694693370105  0.4427762635692526  1.0000
  H   H384      1.0  0.17627314326287563  0.5848815507260334  0.4107400859709022  1.0000
  H   H385      1.0  0.19941564993353594  0.6187852659061855  0.4400217416620353  1.0000
  H   H386      1.0  0.22911792059539926  0.546123275641357  0.3871995250639928  1.0000
  H   H387      1.0  0.2287828688637786  0.5721549543364698  0.34483701701182623  1.0000
  H   H388      1.0  0.19300338575722295  0.5583499609845861  0.35578407697318737  1.0000
  N   N20       1.0  0.9892967107238739  0.7876512638441541  0.25444054642612857  1.0000
  C   C317      1.0  0.9708948985863151  0.812274249872467  0.2727559735988721  1.0000
  C   C318      1.0  0.020920526404416547  0.7846108661308634  0.279165353654539  1.0000
  C   C319      1.0  0.9907342574451453  0.8017949935246179  0.21596097722501642  1.0000
  C   C320      1.0  0.9746920460762581  0.7518396441872732  0.24993797474583285  1.0000
  H   H389      1.0  0.9692264926043316  0.8023447472928525  0.30178559675380795  1.0000
  H   H390      1.0  0.9470470460482663  0.8159629490517617  0.25467098376715974  1.0000
  H   H391      1.0  0.9817434773303769  0.8392318145563321  0.2774885561261997  1.0000
  H   H392      1.0  0.03325523085394266  0.8108108082315668  0.28130996621772403  1.0000
  H   H393      1.0  0.020664041606210937  0.7764416004447439  0.30925593939800683  1.0000
  H   H394      1.0  0.03491947727149869  0.7645205290952269  0.2675698075725145  1.0000
  H   H395      1.0  0.0044052398597431725  0.7837456362450167  0.20127850527570618  1.0000
  H   H396      1.0  0.0018740032422899248  0.8286933286384778  0.21822775526571803  1.0000
  H   H397      1.0  0.967300792489156  0.8047548331553143  0.19655814271042552  1.0000
  H   H398      1.0  0.9879176264372636  0.7327300885825762  0.23584425196015174  1.0000
  H   H399      1.0  0.9506878311731526  0.7532112438931662  0.2316936579944697  1.0000
  H   H400      1.0  0.9735945654088419  0.7401923734706546  0.27847634855266407  1.0000
  N   N21       1.0  0.3304880405623844  0.47810701803921574  0.5788235508514314  1.0000
  C   C321      1.0  0.34543202471804496  0.484145693521353  0.5463301366108716  1.0000
  C   C322      1.0  0.35028487359204613  0.45446381757917154  0.6079719571122711  1.0000
  C   C323      1.0  0.300052300084289  0.46108133542841784  0.5640681377616442  1.0000
  C   C324      1.0  0.3261554748140154  0.5128495427381772  0.5968379786166486  1.0000
  H   H401      1.0  0.3311710128667532  0.5021503606001703  0.5239520863855452  1.0000
  H   H402      1.0  0.34881084515328914  0.45853880600741725  0.5318072277815955  1.0000
  H   H403      1.0  0.36859469765012726  0.49673514600300617  0.5564211819203971  1.0000
  H   H404      1.0  0.33966442036962413  0.44909002756906047  0.6328156262449315  1.0000
  H   H405      1.0  0.3545631723033037  0.42818838844940443  0.5953252269131536  1.0000
  H   H406      1.0  0.37325828627491653  0.466877059196298  0.6200092043885559  1.0000
  H   H407      1.0  0.28796582139432486  0.45634097735024  0.5877060860357343  1.0000
  H   H408      1.0  0.30237716436384404  0.43483183512497714  0.5501411176348708  1.0000
  H   H409      1.0  0.28469819108817235  0.47839896405830895  0.5419334159839034  1.0000
  H   H410      1.0  0.31573586665940756  0.5093849861672215  0.6221596508320612  1.0000
  H   H411      1.0  0.31078076191614395  0.5311100363598059  0.5760060864428972  1.0000
  H   H412      1.0  0.3484813829309634  0.5270159868994334  0.6071957871094426  1.0000
  N   N22       1.0  0.07113560815003131  0.35189672745142336  0.5069168159990297  1.0000
  C   C325      1.0  0.04906816927335589  0.3787773466100218  0.5151233586402739  1.0000
  C   C326      1.0  0.09405973443822982  0.3695275583211584  0.48888892064292144  1.0000
  C   C327      1.0  0.05408414211852185  0.3247630162577463  0.48015478084741126  1.0000
  C   C328      1.0  0.0872491102894782  0.334124578293382  0.5433494279336646  1.0000
  H   H413      1.0  0.03632810026940603  0.39239298767703534  0.48812450740370245  1.0000
  H   H414      1.0  0.06103663239924956  0.39976885199428497  0.5353094255495072  1.0000
  H   H415      1.0  0.031503163856382084  0.36591839630220263  0.5286378930719664  1.0000
  H   H416      1.0  0.11109366721648634  0.3497095320285766  0.48270445230664183  1.0000
  H   H417      1.0  0.08282489834717728  0.38244741857717296  0.4607676021620005  1.0000
  H   H418      1.0  0.10726624591133792  0.39049510876358096  0.5080045016820872  1.0000
  H   H419      1.0  0.06989653280754404  0.3031390435712008  0.47505667038945615  1.0000
  H   H420      1.0  0.042695206728821766  0.33675160049622205  0.45166022216848195  1.0000
  H   H421      1.0  0.03568648639244797  0.3118839492821793  0.4919022750492018  1.0000
  H   H422      1.0  0.07068005504552066  0.31952070676638883  0.5570347468998083  1.0000
  H   H423      1.0  0.09987076690388799  0.3538096986171121  0.5647059770421873  1.0000
  H   H424      1.0  0.10441368802701624  0.31404232963155093  0.5381199270499707  1.0000
  N   N23       1.0  0.48174838219310523  0.5904101620493954  0.7624940170413212  1.0000
  C   C329      1.0  0.5125328509657056  0.598995768090558  0.7559043133554902  1.0000
  C   C330      1.0  0.477882694426143  0.6085121573391377  0.7980309765659717  1.0000
  C   C331      1.0  0.4791449178786837  0.5511638020727619  0.7670618291466726  1.0000
  C   C332      1.0  0.45752339341393294  0.6028772346308662  0.7289915535838704  1.0000
  H   H425      1.0  0.5313234336543377  0.5905507539055449  0.7809354360300028  1.0000
  H   H426      1.0  0.5152114336551531  0.628319113592939  0.7516843958991162  1.0000
  H   H427      1.0  0.5166356059575772  0.5849001529879249  0.7299794449244391  1.0000
  H   H428      1.0  0.4548492210299631  0.6027443028051898  0.8038380368212702  1.0000
  H   H429      1.0  0.4957035711007327  0.5994219814690122  0.8238805986301819  1.0000
  H   H430      1.0  0.4800723990663236  0.6381760523336605  0.7958706029967583  1.0000
  H   H431      1.0  0.45600574090314266  0.5435373447414715  0.7712649470684587  1.0000
  H   H432      1.0  0.49659662470170174  0.5409697812842572  0.7925598744272624  1.0000
  H   H433      1.0  0.48292631257782576  0.5365053559735603  0.7412906308864158  1.0000
  H   H434      1.0  0.43390275776743875  0.5971987531618042  0.7329897435662197  1.0000
  H   H435      1.0  0.45947802959898604  0.5892789100450857  0.7017855490411128  1.0000
  H   H436      1.0  0.45893562187104125  0.6323070236997939  0.7242765419838387  1.0000
  N   N24       1.0  0.14640278536632131  0.5561852862796425  0.14711959580672626  1.0000
  C   C333      1.0  0.1708917244925808  0.5356690203321065  0.1739554195870699  1.0000
  C   C334      1.0  0.13065370180919633  0.5326392301512206  0.11523961774595344  1.0000
  C   C335      1.0  0.1603311912799541  0.5869689315896033  0.13110983513007382  1.0000
  C   C336      1.0  0.12366133025927188  0.569456700491763  0.16818159660174054  1.0000
  H   H437      1.0  0.18816000122898457  0.5246135867239038  0.15894330698998071  1.0000
  H   H438      1.0  0.16112046143854641  0.5126798510769506  0.18719879331887104  1.0000
  H   H439      1.0  0.18353127238223557  0.5527558806244676  0.1980503712492759  1.0000
  H   H440      1.0  0.11217467917806445  0.5475183624612994  0.09438304371467662  1.0000
  H   H441      1.0  0.14716901757194914  0.5220422591284821  0.09881698350245197  1.0000
  H   H442      1.0  0.11994692123139446  0.5091021917143013  0.12648968915061498  1.0000
  H   H443      1.0  0.17266487916707593  0.6050887825127065  0.15442852037646476  1.0000
  H   H444      1.0  0.1424831764608709  0.6034399641424691  0.1112157654189176  1.0000
  H   H445      1.0  0.17735383510260494  0.5780707909194365  0.11459966986077758  1.0000
  H   H446      1.0  0.10464813988775613  0.5847489010611315  0.14871389049331882  1.0000
  H   H447      1.0  0.13463394235720516  0.587831699329079  0.19192639255314778  1.0000
  H   H448      1.0  0.113216877710345  0.5470060305610733  0.18149648286955092  1.0000
  N   N25       1.0  0.6077089898083325  0.03684373359860434  0.599866345475256  1.0000
  C   C337      1.0  0.6351251600792233  0.058438545032912785  0.5977693873572718  1.0000
  C   C338      1.0  0.6160546561134298  0.010844915686085034  0.6321761979360051  1.0000
  C   C339      1.0  0.5966737145131267  0.017279127390268156  0.5631415283027172  1.0000
  C   C340      1.0  0.582962281380782  0.060880966242390956  0.6064131403754217  1.0000
  H   H449      1.0  0.6296671865349932  0.0783714777656284  0.5736940885813097  1.0000
  H   H450      1.0  0.6544364591968086  0.04133476095027089  0.593162032564295  1.0000
  H   H451      1.0  0.6438599024934659  0.07386796064101611  0.6248305287885693  1.0000
  H   H452      1.0  0.5957824993112143  0.9946019896477696  0.6352107436795934  1.0000
  H   H453      1.0  0.6345074341427944  0.9920394879981032  0.6281690826340853  1.0000
  H   H454      1.0  0.6247274598531554  0.024781326663686935  0.6601601148695219  1.0000
  H   H455      1.0  0.5757120202337666  0.0011896881575721443  0.5635342222436633  1.0000
  H   H456      1.0  0.6146790269515137  0.998611619440977  0.5575113516577984  1.0000
  H   H457      1.0  0.5905116600111475  0.03620820422374736  0.5381661838988065  1.0000
  H   H458      1.0  0.5620560630886663  0.04559197594619011  0.6088381913731523  1.0000
  H   H459      1.0  0.5758097419469791  0.08059820299203688  0.5823006431337521  1.0000
  H   H460      1.0  0.5907319049541935  0.07649220914850287  0.6335791398817888  1.0000
  N   N26       1.0  0.6344046478410513  0.33730304460096244  0.5844179921556597  1.0000
  C   C341      1.0  0.6470755133966204  0.3562843091464969  0.5549783131414525  1.0000
  C   C342      1.0  0.6599732487820897  0.32034168290636955  0.6131566192452789  1.0000
  C   C343      1.0  0.6126115137912894  0.3093857900767793  0.565332719296477  1.0000
  C   C344      1.0  0.6179802118984529  0.3630228526879186  0.6041580216937904  1.0000
  H   H461      1.0  0.6594492547473909  0.3373379555729904  0.5395622735393846  1.0000
  H   H462      1.0  0.6638781917792475  0.37735680258045984  0.5682667786188533  1.0000
  H   H463      1.0  0.6284412034772339  0.36934951052227166  0.5327278698419871  1.0000
  H   H464      1.0  0.6513580585549142  0.3063256328201816  0.6362322423540138  1.0000
  H   H465      1.0  0.6722949537475488  0.30006735622250374  0.5993729624497779  1.0000
  H   H466      1.0  0.677339865913753  0.3404570409409392  0.6274238381075141  1.0000
  H   H467      1.0  0.5924564587477094  0.3211689241349579  0.5443151830043018  1.0000
  H   H468      1.0  0.6034700289139451  0.29358868325224724  0.5867245301268159  1.0000
  H   H469      1.0  0.6239628160848222  0.2901027734809416  0.5492087034812753  1.0000
  H   H470      1.0  0.6078270720232742  0.3492837975492331  0.6261674795331051  1.0000
  H   H471      1.0  0.5986250021644356  0.37652210976733813  0.583348385154663  1.0000
  H   H472      1.0  0.633787032849562  0.3842045632151026  0.6194226510673617  1.0000
  N   N27       1.0  0.5761154784958459  0.4226342920448949  0.9634835320649656  1.0000
  C   C345      1.0  0.5884306844992575  0.3875976516873566  0.9798882424936995  1.0000
  C   C346      1.0  0.5884470413448301  0.45133681813169974  0.9914130015697081  1.0000
  C   C347      1.0  0.5419951034857065  0.42235825596334764  0.955833163792382  1.0000
  C   C348      1.0  0.5855465917276989  0.42915752061267104  0.9268359504162296  1.0000
  H   H473      1.0  0.5805796646041032  0.3654597354589883  0.9591462121814572  1.0000
  H   H474      1.0  0.5807830257911171  0.3811957984108115  0.006808948685106175  1.0000
  H   H475      1.0  0.6141681433024697  0.38720294712682507  0.987549734878035  1.0000
  H   H476      1.0  0.614163190403898  0.4522603303123075  0.997729491143173  1.0000
  H   H477      1.0  0.579452742541052  0.4781967403380886  0.9801799431038948  1.0000
  H   H478      1.0  0.5821801703381566  0.4466712003341784  0.019614343351152863  1.0000
  H   H479      1.0  0.5318841697662041  0.4482713409671365  0.9430884025506312  1.0000
  H   H480      1.0  0.533965245414443  0.417425706491744  0.9827857721500772  1.0000
  H   H481      1.0  0.5319523199303703  0.40092078867055986  0.9349449770090411  1.0000
  H   H482      1.0  0.6111436495200165  0.42886976632596713  0.931258920419324  1.0000
  H   H483      1.0  0.5769912738179813  0.455610335392709  0.9138487055944727  1.0000
  H   H484      1.0  0.5760862591924106  0.40822267046440436  0.9049908657893545  1.0000
  N   N28       1.0  0.9620502063335047  0.08944787929435512  0.27623717498267203  1.0000
  C   C349      1.0  0.9696554078255456  0.11349986721214377  0.24665523743048093  1.0000
  C   C350      1.0  0.929913219079163  0.07664138994916421  0.2629032269743492  1.0000
  C   C351      1.0  0.965297262926042  0.1091888138914205  0.31294065715734115  1.0000
  C   C352      1.0  0.9833613510895197  0.05836137349264053  0.2822860509287126  1.0000
  H   H485      1.0  0.9938114077923987  0.12356032885725311  0.2559287202381708  1.0000
  H   H486      1.0  0.9539188503710883  0.13717955479327126  0.24113484558765172  1.0000
  H   H487      1.0  0.9675437545781916  0.09923916744017511  0.2186569820194304  1.0000
  H   H488      1.0  0.9240062831930739  0.056665525464964665  0.28345011264898345  1.0000
  H   H489      1.0  0.9129483030645461  0.09907067127490506  0.25956234783882226  1.0000
  H   H490      1.0  0.9264329153553444  0.06301022409284579  0.2344529319296191  1.0000
  H   H491      1.0  0.9497132335858729  0.13296540729023906  0.3094974613439614  1.0000
  H   H492      1.0  0.9893489112618677  0.11904092575736544  0.32397834824319977  1.0000
  H   H493      1.0  0.9595933159394264  0.09183919559799554  0.33585225504493155  1.0000
  H   H494      1.0  0.00791433363118732  0.06676293689803149  0.2925794453364936  1.0000
  H   H495      1.0  0.9814172340871905  0.04303760104240048  0.25501417018623157  1.0000
  H   H496      1.0  0.9780824437792017  0.03921406450027262  0.30399612680752097  1.0000
  N   N29       1.0  0.1555193722990053  0.8691590227145287  0.15488389186662546  1.0000
  C   C353      1.0  0.1406561083695687  0.9049127527286382  0.15213908156127406  1.0000
  C   C354      1.0  0.15040249691297822  0.84992614125791  0.18930576057383997  1.0000
  C   C355      1.0  0.18909566985970558  0.8733233978561851  0.15827439807390659  1.0000
  C   C356      1.0  0.1419338493081404  0.8482978469277782  0.11978301647865955  1.0000
  H   H497      1.0  0.14413037337909881  0.9201650402810481  0.12652684556751123  1.0000
  H   H498      1.0  0.15004493007694486  0.9213027394463758  0.17835443675162954  1.0000
  H   H499      1.0  0.11527978766145053  0.9026911719860249  0.14944429629637945  1.0000
  H   H500      1.0  0.15995173848760916  0.8650990704771714  0.21633973275301815  1.0000
  H   H501      1.0  0.1253548228846304  0.8458087498578658  0.1874368612981535  1.0000
  H   H502      1.0  0.16144241511381888  0.8228749426612753  0.19234098809655556  1.0000
  H   H503      1.0  0.20110002515729136  0.8468523952524882  0.16190072300235836  1.0000
  H   H504      1.0  0.2000417386557368  0.8900639175448356  0.18361326147556262  1.0000
  H   H505      1.0  0.19399776975068023  0.8860963753544557  0.1319524359920422  1.0000
  H   H506      1.0  0.15228213630406778  0.8210339741972634  0.12126820221472426  1.0000
  H   H507      1.0  0.1459247312669979  0.8613494001637219  0.0931588667913387  1.0000
  H   H508      1.0  0.11658843783351629  0.8447913087318248  0.115863712664971  1.0000
  N   N30       1.0  0.9495742405559527  0.42574001845633563  0.7629273490199766  1.0000
  C   C357      1.0  0.9652820920449361  0.39530143273367463  0.7864022763555125  1.0000
  C   C358      1.0  0.9727944892981094  0.45255631857656226  0.7580970161306673  1.0000
  C   C359      1.0  0.9273764959919644  0.44250372710409897  0.7827128198992117  1.0000
  C   C360      1.0  0.9328769656153186  0.41278240585306963  0.7244432673129565  1.0000
  H   H509      1.0  0.9823494456473777  0.382192052387016  0.7724240027894547  1.0000
  H   H510      1.0  0.9484807289547943  0.3745207691364106  0.7907919934238129  1.0000
  H   H511      1.0  0.9781890600764819  0.40429143022287917  0.815553255405424  1.0000
  H   H512      1.0  0.9617490127534367  0.4756271396102222  0.740040156874144  1.0000
  H   H513      1.0  0.9855038820115524  0.46347154377330235  0.7864461139993738  1.0000
  H   H514      1.0  0.9903160151671714  0.4408769992889332  0.7438616956091447  1.0000
  H   H515      1.0  0.9392683104745154  0.4534471957002962  0.8114215959468632  1.0000
  H   H516      1.0  0.9097419962592246  0.42294446970629196  0.7874237925723221  1.0000
  H   H517      1.0  0.9147986106568237  0.46525375567188215  0.765456601581638  1.0000
  H   H518      1.0  0.9210315307620494  0.43528726827703884  0.7059858204249015  1.0000
  H   H519      1.0  0.9148921642582067  0.39273206408495  0.7268089821421723  1.0000
  H   H520      1.0  0.9489084383120119  0.40001407160624464  0.7086380269754569  1.0000
  N   N31       1.0  0.6914764990327619  0.05833481149490649  0.9577583821575256  1.0000
  C   C361      1.0  0.6870622090433154  0.05888814890950189  0.9152307022531917  1.0000
  C   C362      1.0  0.7209728630812795  0.04020952216493301  0.9755190527055665  1.0000
  C   C363      1.0  0.6657505604053282  0.03867505611265187  0.9681666359214222  1.0000
  C   C364      1.0  0.6922864796307939  0.09556417495315439  0.9721903214172556  1.0000
  H   H521      1.0  0.6647554707164239  0.07174000275281345  0.9006657313384133  1.0000
  H   H522      1.0  0.6871528468424236  0.031233726700167885  0.903412117361987  1.0000
  H   H523      1.0  0.7058844159420712  0.07412216014377315  0.9064972618626238  1.0000
  H   H524      1.0  0.7250292304122425  0.03900772857765933  0.007631284592411802  1.0000
  H   H525      1.0  0.7215413608798085  0.012220024420844355  0.9648315116048896  1.0000
  H   H526      1.0  0.740867120435462  0.05469860740381227  0.968681378252173  1.0000
  H   H527      1.0  0.6430825249895469  0.05162834340360534  0.9553352868066957  1.0000
  H   H528      1.0  0.6685624279229658  0.03770020054643264  0.00014773532326217698  1.0000
  H   H529      1.0  0.664593387341536  0.010477271751068384  0.9575825399591766  1.0000
  H   H530      1.0  0.7116930260959705  0.1109038792010546  0.9650293981720423  1.0000
  H   H531      1.0  0.6957265717983889  0.09607755919182148  0.0042157977453793904  1.0000
  H   H532      1.0  0.6704410450369188  0.11019204795226178  0.9593861309166422  1.0000
  N   N32       1.0  0.1772288483393818  0.9088498142778767  0.9166448015813667  1.0000
  C   C365      1.0  0.20064866561361616  0.8802304359259682  0.9188166392160861  1.0000
  C   C366      1.0  0.1643570823937146  0.918801341323157  0.8757072319819698  1.0000
  C   C367      1.0  0.1917392252657164  0.9406617563880603  0.9382303793636187  1.0000
  C   C368      1.0  0.15210542238367442  0.8957001762726242  0.933864147903555  1.0000
  H   H533      1.0  0.211665836761757  0.8728441166308091  0.9493461663874848  1.0000
  H   H534      1.0  0.21947788507484378  0.8889042069429183  0.905121741689422  1.0000
  H   H535      1.0  0.19038434683087702  0.855505659121424  0.9036468591712331  1.0000
  H   H536      1.0  0.1460853341625612  0.9397371290118032  0.8729218985753663  1.0000
  H   H537      1.0  0.18245477494834028  0.9296713474416509  0.8618947450765553  1.0000
  H   H538      1.0  0.1536563004633531  0.8954309099775943  0.8581683234532507  1.0000
  H   H539      1.0  0.17462185486602744  0.9625984476383517  0.9377330685624762  1.0000
  H   H540      1.0  0.21037721559394673  0.9517901923783204  0.925584989779661  1.0000
  H   H541      1.0  0.20240457656482636  0.9339835485807582  0.9690300242980512  1.0000
  H   H542      1.0  0.1405919617189264  0.8717605809448828  0.9182033008049465  1.0000
  H   H543      1.0  0.13399058574077793  0.9166532687547657  0.9326265018194899  1.0000
  H   H544      1.0  0.1610130577900144  0.8878890986295678  0.9647540502020909  1.0000
  N   N33       1.0  0.5699748532129731  0.9633703542825396  0.4139692498163354  1.0000
  C   C369      1.0  0.5375391563832754  0.9750109916965664  0.39931848290369604  1.0000
  C   C370      1.0  0.58217571694786  0.9779445728848466  0.4531820314117022  1.0000
  C   C371      1.0  0.5887965581536003  0.9766552989643245  0.3876439772402255  1.0000
  C   C372      1.0  0.5713401995560257  0.923742273841857  0.41571117735809415  1.0000
  H   H545      1.0  0.5225924084023492  0.9653580612977356  0.4183418212906399  1.0000
  H   H546      1.0  0.5277071303906444  0.9643032705361423  0.3697653820508561  1.0000
  H   H547      1.0  0.5355868403363  0.0048139332793075695  0.3975153411959127  1.0000
  H   H548      1.0  0.6064411458594712  0.9690283307003251  0.46521510651508025  1.0000
  H   H549      1.0  0.5819286852726104  0.007832732111697771  0.4529913765684  1.0000
  H   H550      1.0  0.5683426154315887  0.9684931313432243  0.4736548894686242  1.0000
  H   H551      1.0  0.5882489040700394  0.00653122070446166  0.3855656768434951  1.0000
  H   H552      1.0  0.5801703163402717  0.9661439067907944  0.3577813052583053  1.0000
  H   H553      1.0  0.613383040859462  0.9681750549438033  0.39750974419728935  1.0000
  H   H554      1.0  0.5954203880977667  0.9138429503172034  0.4268772217056988  1.0000
  H   H555      1.0  0.5624624197788941  0.9118422180583363  0.38666948685373415  1.0000
  H   H556      1.0  0.5572059158970537  0.9127625176801467  0.43512002237267305  1.0000
  N   N34       1.0  0.4262237335375176  0.7566908127675102  0.3908680984756358  1.0000
  C   C373      1.0  0.4230766955647923  0.764440035271271  0.4305196075736375  1.0000
  C   C374      1.0  0.44440135880031356  0.7233881923350487  0.3911111579605297  1.0000
  C   C375      1.0  0.4422393585387556  0.7868814537309713  0.37688322268433877  1.0000
  C   C376      1.0  0.39523249418259393  0.7520103170104474  0.36505662601773614  1.0000
  H   H557      1.0  0.40853570673871525  0.7886226703105559  0.4313002209700364  1.0000
  H   H558      1.0  0.4459906801875094  0.7696232167837659  0.450354136361766  1.0000
  H   H559      1.0  0.4123925599922535  0.7415295803049957  0.44284370313988436  1.0000
  H   H560      1.0  0.44769380829905275  0.7169818002326709  0.3617845580219606  1.0000
  H   H561      1.0  0.4677658071617337  0.7257439070855702  0.410752425637804  1.0000
  H   H562      1.0  0.4328341427325868  0.6999420504736649  0.4011995918481382  1.0000
  H   H563      1.0  0.4655609403109539  0.7913001357211692  0.3960795869184786  1.0000
  H   H564      1.0  0.4292118147542605  0.8125223771998076  0.37600688085495115  1.0000
  H   H565      1.0  0.44564773218919634  0.7819488865558282  0.347284859934164  1.0000
  H   H566      1.0  0.3967911694597179  0.745912572867683  0.33492801649057663  1.0000
  H   H567      1.0  0.38088904556903413  0.7766793161834744  0.3640041781662659  1.0000
  H   H568      1.0  0.3825849502825207  0.7294851083148141  0.3751349500998274  1.0000
  N   N35       1.0  0.16358197269222918  0.8213511218041476  0.4807866385385283  1.0000
  C   C377      1.0  0.14666270129530615  0.8404842611403669  0.4456339350574967  1.0000
  C   C378      1.0  0.17830361439436035  0.8477977093541893  0.510258894426516  1.0000
  C   C379      1.0  0.18759416213577815  0.7979278818868888  0.47123195753253294  1.0000
  C   C380      1.0  0.14170903733098197  0.7991659476341854  0.49622123384714434  1.0000
  H   H569      1.0  0.13425494358889373  0.8215112502291367  0.4232193841949762  1.0000
  H   H570      1.0  0.16248458650542283  0.8569117351217276  0.4325948431950075  1.0000
  H   H571      1.0  0.12900029458332715  0.85905262564681  0.4523367254134711  1.0000
  H   H572      1.0  0.1944257434893081  0.8656289974344702  0.4993382890886843  1.0000
  H   H573      1.0  0.16069173636728812  0.8652659658255848  0.5189632180712034  1.0000
  H   H574      1.0  0.19180894837112264  0.8342761630352091  0.5369181214098885  1.0000
  H   H575      1.0  0.20475682314591628  0.8137378501587149  0.4598557594978198  1.0000
  H   H576      1.0  0.1772695815530033  0.7776537965613283  0.44907972698125914  1.0000
  H   H577      1.0  0.20056982777308147  0.7829324649150887  0.49725488423824477  1.0000
  H   H578      1.0  0.15381494893624614  0.7839102675181618  0.5223120299251994  1.0000
  H   H579      1.0  0.12959817599337714  0.7793323803551273  0.47464606461184294  1.0000
  H   H580      1.0  0.12376009958822906  0.816015692441327  0.5047476739369189  1.0000
  N   N36       1.0  0.5489831406576023  0.26704361605950105  0.7772004485476496  1.0000
  C   C381      1.0  0.5595982833407395  0.2295672660878873  0.7853434138700033  1.0000
  C   C382      1.0  0.575795578686628  0.2914161249511856  0.7873492265890988  1.0000
  C   C383      1.0  0.5265126519290784  0.2762079320341749  0.8004607164350718  1.0000
  C   C384      1.0  0.5341423531783983  0.27097976909327015  0.7356050465540154  1.0000
  H   H581      1.0  0.5399757262952906  0.21038027702818007  0.7779201237709485  1.0000
  H   H582      1.0  0.5710077996449828  0.22566514115453284  0.8165107495393668  1.0000
  H   H583      1.0  0.5766211002547615  0.221887913841077  0.7682131903766869  1.0000
  H   H584      1.0  0.5686373021930534  0.32000384525965897  0.7820424788934669  1.0000
  H   H585      1.0  0.5879423360903586  0.288795984232615  0.8183247312256385  1.0000
  H   H586      1.0  0.5929844607846606  0.28578551956071047  0.769855060512569  1.0000
  H   H587      1.0  0.5055250717139586  0.2591062055379064  0.7927695003366152  1.0000
  H   H588      1.0  0.5187903553512332  0.3047303030887924  0.7960110876572974  1.0000
  H   H589      1.0  0.536701661964722  0.2725265166081579  0.8319783266360581  1.0000
  H   H590      1.0  0.5135610990289731  0.2533615037999919  0.7268157082897447  1.0000
  H   H591      1.0  0.550392691522668  0.263777780526159  0.7172730832767613  1.0000
  H   H592      1.0  0.5264087973476831  0.29911938267463484  0.7282370197799203  1.0000
  N   N37       1.0  0.4500017167611817  0.9053420063702162  0.17411438573713878  1.0000
  C   C385      1.0  0.48075754102805013  0.8917066276070097  0.17192581095878867  1.0000
  C   C386      1.0  0.4383519331625659  0.9302538706225848  0.1414816766378229  1.0000
  C   C387      1.0  0.4525189876046388  0.9244552115688798  0.21109383955527244  1.0000
  C   C388      1.0  0.4283409693740555  0.874954887359498  0.1718648652012557  1.0000
  H   H593      1.0  0.49031313219752437  0.8728400421875006  0.1961626723876973  1.0000
  H   H594      1.0  0.4976363414655728  0.9140337704186482  0.1735660288012863  1.0000
  H   H595      1.0  0.4795490417311653  0.8771556577850969  0.14424986545516122  1.0000
  H   H596      1.0  0.41530407010426773  0.941244179830313  0.14242741247351637  1.0000
  H   H597      1.0  0.4541589691388877  0.95345096722222  0.1420446763254038  1.0000
  H   H598      1.0  0.4357298469632  0.916600798631857  0.1130546769360607  1.0000
  H   H599      1.0  0.4296754949548458  0.9349140534997973  0.21385889372286895  1.0000
  H   H600      1.0  0.46827483418915644  0.9479365725957313  0.2135641072386839  1.0000
  H   H601      1.0  0.4616041715325049  0.9066240619997689  0.23638772137317846  1.0000
  H   H602      1.0  0.42571334809614436  0.8600690710891763  0.14414621507823105  1.0000
  H   H603      1.0  0.4048780794557885  0.8843763241323821  0.17334996802015837  1.0000
  H   H604      1.0  0.43642308315273465  0.8554759336482821  0.1959211826592865  1.0000
  N   N38       1.0  0.449863896093858  0.12988704351120206  0.11052475000634898  1.0000
  C   C389      1.0  0.47320984902426333  0.14185571692731344  0.08969237511754216  1.0000
  C   C390      1.0  0.4652086439507332  0.10882405672239626  0.14499654930901124  1.0000
  C   C391      1.0  0.42656789573313303  0.10730820270662612  0.0847441747266877  1.0000
  C   C392      1.0  0.43457608764630185  0.16154561897202266  0.12283632551143173  1.0000
  H   H605      1.0  0.4624320864686999  0.15660224656368477  0.06261120689703688  1.0000
  H   H606      1.0  0.4863774696973382  0.11866842566861334  0.08183710159398958  1.0000
  H   H607      1.0  0.49038780568391277  0.16017930259881727  0.107814097938083  1.0000
  H   H608      1.0  0.4767303116010292  0.08442826590172371  0.1368697565442481  1.0000
  H   H609      1.0  0.48335837915082275  0.12483045897195785  0.164654017041078  1.0000
  H   H610      1.0  0.4484674313686359  0.09988047032143985  0.16197403476115094  1.0000
  H   H611      1.0  0.4090082827076724  0.09697265932453532  0.09986228946104399  1.0000
  H   H612      1.0  0.43752093721000124  0.08360198412690689  0.0743049559167402  1.0000
  H   H613      1.0  0.41398414813361084  0.12250405256230847  0.05879253754112373  1.0000
  H   H614      1.0  0.42299886598191805  0.17833256541142423  0.09760786406165252  1.0000
  H   H615      1.0  0.4515748781772184  0.1788989425315829  0.1426715515935937  1.0000
  H   H616      1.0  0.4167339271741491  0.15339222837201164  0.13853649521426808  1.0000
  N   N39       1.0  0.043244313273419044  0.15783919383418762  0.8153517811688186  1.0000
  C   C393      1.0  0.03445614959819854  0.13335045269995907  0.8437793760300153  1.0000
  C   C394      1.0  0.07669907404585818  0.165432575225174  0.8273107663942548  1.0000
  C   C395      1.0  0.025774155076706995  0.19183914000150135  0.8136271142972098  1.0000
  C   C396      1.0  0.03612109376003825  0.1408114159574846  0.7767903355705459  1.0000
  H   H617      1.0  0.009539189708334561  0.1262125478853277  0.8352719070386361  1.0000
  H   H618      1.0  0.038866068552554145  0.1457283674669608  0.8729628914763171  1.0000
  H   H619      1.0  0.04801616557260502  0.10787348323825913  0.8468917479908662  1.0000
  H   H620      1.0  0.08259859749773235  0.17996170102277814  0.8553269063673569  1.0000
  H   H621      1.0  0.09056831763336026  0.14023562378859916  0.830949879300837  1.0000
  H   H622      1.0  0.08459622457064331  0.18215612291021724  0.8054607607667149  1.0000
  H   H623      1.0  0.0320283204637446  0.2109574139360099  0.7925560040244961  1.0000
  H   H624      1.0  0.030711279318310858  0.20533347239384592  0.8423705208034199  1.0000
  H   H625      1.0  0.0004036372010809419  0.18718737678690459  0.8047612294003585  1.0000
  H   H626      1.0  0.049089546780115345  0.11518154503884122  0.777113680333961  1.0000
  H   H627      1.0  0.04281385606677346  0.1583754334659181  0.7546666171216947  1.0000
  H   H628      1.0  0.011089135928655569  0.13467154628293493  0.7667189878478179  1.0000
  N   N40       1.0  0.023353308968844466  0.5192528059196133  0.979510118435777  1.0000
  C   C397      1.0  0.03513383368337197  0.5149952092327446  0.9441743689679549  1.0000
  C   C398      1.0  0.049690279973509055  0.5215044602051677  0.013615727237014097  1.0000
  C   C399      1.0  0.00395981692388192  0.4880022216461017  0.9837700108613915  1.0000
  C   C400      1.0  0.0046022732486872275  0.5524428412237541  0.976489892850836  1.0000
  H   H629      1.0  0.047415408611307885  0.4889032774609175  0.9440693556392594  1.0000
  H   H630      1.0  0.05168405752957472  0.5365409992876896  0.9414218822069841  1.0000
  H   H631      1.0  0.016087772186498928  0.5160577219363147  0.9176017124980163  1.0000
  H   H632      1.0  0.06448222230355483  0.4970340099792339  0.016436378717539446  1.0000
  H   H633      1.0  0.06457908888306685  0.545134513907103  0.011563937699709204  1.0000
  H   H634      1.0  0.0416432240032929  0.5244793046580999  0.04081661403091741  1.0000
  H   H635      1.0  0.9836499877314175  0.4858194585991732  0.9587726938038597  1.0000
  H   H636      1.0  0.9950122317807096  0.4898501114973591  0.010413562089793382  1.0000
  H   H637      1.0  0.017115899634699394  0.46230070778579535  0.9854234485996257  1.0000
  H   H638      1.0  0.9947148404107399  0.556051122395846  0.0022250613674763553  1.0000
  H   H639      1.0  0.9850923200459599  0.5522954255004053  0.9503208060884943  1.0000
  H   H640      1.0  0.018643474211719413  0.5766830047972757  0.9743944196389983  1.0000
