data_image0
_chemical_formula_structural       FeS2H3FeSFeSCFeS2FeS2FeSFeS3CHFeS2FeHFeCS2FeS2HFeSFeS3HSH2CHFeCS2CHFeS2FeS2FeSFeS3FeS2FeS2FeS2HC3HC6H4SHC5FeH8CFeSH2C6H4CHCHCHC2H2NC4H5C7H2CHC6H4C6H4C6H4C6H5C2H9C3SH3CH5SH3SC2HC2HCSC2H3CNHCHCSH2CSCH2CHCNC4H12NC4H14NCHCHC3H2CHC3NC4H12NC4H2C3H7NC4H12NHCHCHSH8C2NH2NH5SH2SFeH3C2H5NC4H4CHSFeH5NHSHCH2C3H5SCHC2NHFeCHSCH2S2H2CH2NHFeH7SCH2CH2C2HSH2C3H4CH2CH2CHCHCHSHCFeCH3SH2FeH2CHCHCH3C2SH4CH2FeS2FeS2FeS2FeSFeS3FeS2FeS2FeSFeS3H3CFeS2FeHSFeSFeS2HFeS2FeS2Fe2S3FeH2SCH2C3NSH2SC2FeSCSCHCSHCHCFeH2FeHC6H2SC2HC2H4SH2C2H2CH2C6H4C6H4C6H4C6H4C6H4C6H4CSHC7H5Fe2CH2CFeH2CHCFeHNHSH3SC2NH6S2CH2CHCNC4H13SNCHSCHC3FeCHC2HSH4CHCH4SHCH5C2H2CHCHFeCFeHCHCSHSHFeH2CH2CH3SHFeNHCHCHSNHCHSNC4H12NC4H14SHCSCFeHFeCH3SCHNC4H12CHCH6CSH2NCSC3HCSCH2SNC4H12NC3H6C2HSC2SH2FeCFeSCH2CHCSNH3CSHCFeSCHC2H2CHCHCH5SNH2S3FeS2FeS2FeSFeS3HFeS2FeS2FeSFeS4FeSFeCFeS3HFeS2FeSCFeSFeS3H2SH4FeH2CH5CFeH2SH3CSCH2CH2CH4SH3CNC4H2C2H3CSH2CH3SCFeCHC2NSH2C6H4CH2NSHCH2SC6H5Fe2H2CH2CH2SHC7H4C4H3C6H4C6H7C3H3C6H6C3FeCHC3HC6H6C2HNCHCHCFeHCFeHCH5CNC4SH5CHSHCH4NH5CNH2C2H2SHCH5CNC4H12FeC3NC4H12NC4H13CFeCH4CH3SCH5NH2C2HNH2CH5SHCH3C2HNHSHC2S2CHCH3CH3CHFeCSHCH2SCHC2S3HS2FeS2FeS2FeSFeS3CHCSH2SHSFeSHFeHFeS3C2HCS2H4SH4SH2FeS2FeS2Fe2CS2FeCHCHCFe2S2FeHSHFeS3H4S2HNHFeS2FeSCFeS2HC8H2C6H4CNSH3C6H4C2HFeSHFeCNHCNHCH2SH2C6H6S2NCHSH3CH2CHC4H2CH2CH4SHFeH2SCH3C6H4C6H4C2HFeHCH4C6H5C3HNC4H12CHNHFeHFeCHCH3CHNC4H4CHCSH3NC4H16CH4CFeH12NHCH2C2H2NH2CH3FeH5C2H4C2H2C2H3NSN2HC2FeH2SC2HCH5C2HCSHFeCHC2HFeCH2CHCH2CHC2H4CHCHC2H2C2HC2H6SH3C2H2FeH2SH3SCH5SCH2C2SC2H3CH2CHFeCFeCNCH3CHCH2CFeCH4NH3SH3C2HCH3CHSCHC4NHSH2FeSFeSFeS3FeS2FeS2FeSFeS3H3FeS2FeS2FeS2FeSFeS3HCFeS2FeCSFe2S3HFeS2FeS2H2CHFeC2H2C6HCH2C6H4C6H4NCH3C2SH2CHCHC6H4C6H4C6H5CNHC7H3SC6H6SC2HSH2SNC4H17S2HS2C2HCH2C3H2CFeCHCHCFeHSCHCHCHNSHC2NC4H11SNCH3SHSCH2NC4H8NH11CH4C2H3C2HCH2SCFeCH2NHC3SC2HFeSHCSC3HNC4H13NC4H9CH5C2HCHCH4C2H2SFeSNSH4CHCHNSH3FeCH2CHNH2CSCHNC4H13C2FeH2NH2SH2CH2FeHSHCSH3SCH2SHCHCFeCHC3HCH2FeC2HNH2CH7CHC2SHCH3C2FeCHCH9CH4C2H2CH3CHCHCHCHC3HCHCNHCHCH2SHSFeS2FeS2FeSFeS3FeSFeS2FeSFeS3HCHSCFeSFeS2FeS2FeSFeS3CH2SFe2S2HCHSHSFe2SHFe2NFeCHFeS2FeSHS2FeHCH3C2SH2C2HFeC2H2NSNC6H4C6H3C6H4C6H5CSH2SC2H3C7HSH2C6H4C6H4C6H3C2H3CHCH2S3H3FeH2CH2CSCH2SNH3C2HCHSNHSCH4SHNHCSCS2HCH2CHC2FeHS2NC4H12SC2H4C3H2C3H3CHCH2SC2NC4H2C2HNCHCH3NC4H12CH3CFeH3CHFeHC3H2SFeCHSHSCHCSHSCNC4H15CHFeH6SHNH2CH3CH3SH3NC4H16C2HSH5CSHCH2NC5SH10SH3CNCH4FeCHCH4SH4C2HC2H8NC2HSH3C2HC3H2CH8FeHC2H2FeS2FeSFeSFeS3FeHCFeS2FeS2FeSFeHS2H2FeH3C2H3SH3S2H2FeS2FeS2FeSFeS3CSNHSH5FeSHCSNFeS2FeCSFeSCS2HNCFeS2FeHC2SHCNHCHCHFeS2FeS2Fe2S4CFeHCHC4S2H2CH2CSH5CNH3SC5HCHCH4C6H4C6H4C6H4C6H5C2H3SCHFeH3CSHCH2C6H4CHC2SC2FeH3CHSHNC6H4C6H4C6H4SHNH2FeCHCH2CN2C4HC2H10NC2H4CH3C2H2CHNSHCH2CHNH6C2H2CH2CNC4H14CH3C3H3NHCHC2HC2H2NH2CHCH5CH6CSHCH6SHSCHCH2FeCH3CHC2H2CSFeNSC2H3C2H2C2FeH3C5HFeHCH3CHCHNC4H12CNC2HSCHCH2C2H2SC2HCHCSH5FeH5NC4H17CHC4HFeCHNH2CH2SH2FeH2CH2CHS2H5CH3C2H3SCSHFeH3C2H4CH6CSHCH6CHCFeS2FeS2FeSFeS3HC3FeS2FeS2FeSFeS3HS2HNHC2H6SH3C2H4CSHC2HCHC2SFeSH2SCFeSH2SCFeS2CSFeSFeSHSHFeSHFeS2FeSFeHSCHFeCHFeSFeHSCSH2C2HC2HC5H2CHCSNCFeH4C5H2CSCH3SH7CHCNHCHC2H2CH4SC6H7SC3NSHCH2NH3C6H4C6H4C6H4C3FeC2HCH2C6H6C3HSH3FeH5NH5SCH4SCHC4FeH4C2HCSHCH2SCNC4H12FeH6SCSCH2CHCH2FeCH2C2SH5FeCHNH4CH7NC4H11NC4H5CH6CS2CH2CHCFeHCH5CH3CHC4SHCHCH2CH4CHCSH2CH6CHSHCHNH2S2C2SHSH2FeS2HFeSFeS2H2FeSHSFeS2FeS2FeSFeS3C2SFe2CFeS2CHSCSH5FeS2HSCHS2FeHSH3SCH3SHC2SH2CHSHCFeS2FeS2FeSFeS4CH2S2HCHC2FeHSCHCHSHS2HCFeH3C3H3C2H4C6H4C7H4CHFeSHFeCHC3HFeH2CH2CNC2H3C6H4SCH3SHSHCHNH4CS2C2H2C6H4C6H4C6H4C7H3Fe2H3CH4SCHC6H4CH2CNCH4C6H4C6H4C3H2C3H4NCHCH2Fe2CHC5NCH7CH2NC2HCH5NCFeH2NHCH2SCH5FeHFeHFeNSHCSCSH4S2CH5SNHC4HCH2CHFeHCHCH2CH2CHFeHSNC3H9NC4H13C3HCH2CH3C2H3CHC2HSCH2CH3NSH7FeSHFeCSHFeH3CHNFeNC4H13SH3SFeS2CNH5CHSH2SNH3CFeHCHSC2SH3CHSFeCH6FeH2CH3CNH2CH5CH2C2H2CFeS2FeS2FeSFeS3CHCHC2HFeSNFeS2FeSFeS3FeSH2S3FeSFeSCHFeCSH4FeH2S2H4CSFeS2FeS2Fe2S3HFeS2FeS2FeHFeS3HC3HCH4C6H6CH6C3HC2SCH2CH3C2HCHFeSC2H3C3H2SC4H5C4HCH3FeC6H5NHC2H2CH2C6H4C6H5C2H2CHCH3CH2NH2C2H2SHCH2CH2S2CH4SHCH2C2H2FeH2SHCSCSHSH3CHC2HC2HCHNH11CHCSH3SCHC2SHFeHSCSHNH2NCH2C2HCH2CHCH2SCNC4H12C4H4CNCHSCH2C2HCH3FeH2CHSFe2H3CH3CHCSNC2FeH3C2HC3H2CHCH2CHC5H3C3HCSFeC2SHNH3CH3NH2CNH4CH3NH3NC4H13CSNH3C2HC2SFeHCH2C3H7CHCFeSCH3FeCH2CHCHNHC3H4SCNSH2SH2C3HNCHFeHCH4CHFeSFe2S2FeS2FeS2FeSFeS3CSFeSFeSHFeSFeS2CFeS2FeS2FeSFeHS2HSH3CSCFeSFeSH2FeS2FeS2FeSFeS2HNCFeCFeS2FeS2FeSFeS3H5FeCH2C6H5C6H4C3H2C4H2CHNH4CH7C6H4SH4CH2FeH4CNSHSC6H4C6H4C6H7C7H4C6H4C3H6CHSCHSHCFeHCH4CHCHC2SH2NC4H2CH3NH6CHCHSHCH3C2H2CH3SFeSCSH3SH2SFeCHFeC2H2C2FeC2SCNC4H13SHCHCHC2NHSC3NSNC2H2FeHNC2H2CH5NC4H15C2H4CSHSHCH5CHCH2CH4CNH2NC4H9CNC4H13CH3C5FeH3CHCSC3H2NC4H14CHCHSC5NH2C3FeCH2CFeCHFeH5CHS2H5FeNC4H12CHSHCHC2HCSCHC2H2SH4CSHCHSH2C3HCH3CSH2NH2SH3CH2C2H5CH2CH3CHCHC4H3NHS2CHSHFeSHSH2CH3CH4CHSH2SFe2S2FeH3CFeS3FeS2FeSFeSFeS3HFeS2FeS2FeSFeS3FeS2CSFeHSHSHC2HCNHFeSFeS2FeS2FeSFeHS2Fe2HFeHSH3NC3HNHSNHNCSC2HSCHC2H7C3FeCHCHCH2CH5CH2C6H3NH3SH6CHC2H3C6H4C6H4C6H5C6HSHS3H3C6H4C4H4C8H4NSHFeH6C6H5SC3H2FeHCH2CFeHC7H4C6H4CHFeHSHCH2CHSH8CH4NCHFeSC3SCFeCH6CH2C2NCH4NC4H12CHCSH2CHCHNHCH5C4H3CHCH3FeH3SCHC3H4SH2CH3FeNCHC2H2C2H5FeCHNC4H11NH4CH6SHC3HFeSH4CS2H2CH6CH5C2H3CHFeSFeS2Fe2S3FeS2FeS2FeSFeS3CSFeSHFeHFeS2H3S2CSH3CHCH2NH3CFeSCFeS2HCFeSCSHSHFeS2FeS2FeSFeHS2H2Fe2S2FeS2FeSFeS3HSH3C3H3C5H3C5H4CH2C6H4C6H6CH2CH4C6H5SCH2CH8SFeH3C3SH2CH2FeHC2H2C2H3C6H2SHC3HC2H4C6H4C6H4C6H5CSCNHC3S3HNHNC3H10CH4C3H8NC4H12C4H2CNHSH7CHC2SC2HCHCHNH2CNC3H7NC4H12NC3H6C2H3SCH4CH3C2HC2SH3CH2CHCH3C2H2CH2CHSCSH2CS2FeH2CSCFeCHNHCHCN3FeNH2C2HSCH2SFeCH6C2H3C2FeH3CH2CHCH5C3H5C2HNSHSH2CH6SC2S2H4C2HCH2SCHCHSHCNH8S2H2CFeS2FeS3H2FeS2FeS2FeSFeS4HSFeSFeS2CH2CH2SFeS2FeSHFeSFeS3FeS2FeS2FeSFeS3FeSH4CHFeS2FeS2Fe2S3FeS2FeH3CFeS3HSHFeC2HCH2C3FeC6H5C6H3C6H4C6H8C2SHNH2CHNC3SHCHCHNH2C7H4C6H4C6H4SH2C6H3C2H2C6H4C2H2C5H4NC2NH2SHC2HS2HCH5C2HSCHFeH3SH3CSC4S2H3NC4H12FeNCNH12FeH4SNH2CH2C3HC3HCFeCNH3CH2FeHCHCFeHCH2C2H2CHC2H3C2H4FeCH4CH4C2H3CH2NC4H6C2HCH2NHSCH2CHCH4CH2SFeHCHNC4H12FeCSH3SH9CH4C2SCNCHCH6C3NC4H13NHCH3CHSCHC5HSCFeH3CHC3HCHNH2C2H2CSH7SCHFeC2H6SH3CH2FeH2CHCH2CHC2H2NH2CFeS2FeS2FeSFeS3C3FeSHSFeS2FeS2Fe2S3CFeSH3FeS2HSH2SCFe3SH2C3H2CSHSH2NSHFeSHC3HCFeH6CFeS2FeS2FeHFeS3FeSHFeS2FeSFeS4C4HCH2CHC6H4CHSC2H2C2SH9CH3CHSC2FeHCH2FeCH2C7H2CH2C4SH4SHCFeCH5C6H4C6H4C4H2FeSFeC7H4C6H6C4HSH2C6H7CH2FeCH2SH6FeSHCH2C2HCH4CH7SHSHC2H2CHSCHCH2NC4H9NHNH3FeC2H2CHCHC2H2CH2SNH2SHCHC2NC4H11NHC3H3CH4CH2SHCH2S2H3NH2NHCH4CH2CH3C2HSH2CNC2H7NCH6NC4H13CSCNH2CSCH5CH9CHCH2CH3FeS2FeS2Fe2S3FeS2FeS2FeSFeCS2HC2HFeHC2H2CH4FeS2NCH2CHCFeS2FeS2Fe2S3HSH2CHCHSC2SNFeSH2FeS2FeS2FeSFeS3C3H2C6H4NH4CHCH5CH5C2HC6H5CH5C2HC6H5CH2CH4SHSHCHC2H4FeHC7H3C2HNC2H4C6H4C6H4C3H4C2H6CH2CHCH4C2HFeH2SCNC4H11NC4H5CH4NC4H14SH2CH2NFeH2FeCH6C6HCHSFeC2HC2H4CHC3H3C2HCH2CSCHCH2CH4SH2CH2SHCH2SHCHNCSC2H2SHN2C2H3NH3SCSHNH2NHCHC3HC2SFeC2H3CNHCNH7SH2CHC2HC2HCHCSHCSC2H3CH4CH3C2H2SCH2S2H3CSH3CHCFe2SHFeH2CH3C3S2CSHC2H5C2HC2H5CHNCHSH2SH2CHSHCSH2CHCSNS2FeS2FeS2FeSFeS3H2SNFeS2Fe2S3CNSHCFeS4HFeHSHFeSH2FeS2FeS2Fe2S3FeS2FeS2FeSFeS2C2H3FeS2HSNSCFeS2FeSH2S2H2C2HC3HCHSHC6H4C6H6CFeCSC3HC2H2C6H5C6H4C6H4CH4C2H3C6H4C6H4C6H4C6H4C6H4CHNCH2SH2CH3CHCH3SHSH2FeCH2NC4H15CFeNHCSCH2CHCH2NCH3FeC2H3CH4C2H5C2HCH7CHC2HCHCH4C2H3C3HNCNC4H12C2H5CH2SCHCSH7FeC2NC4H12NC4H11SHN2CHCH3CHCH3NCSCH5C2HCHFeH2SH2FeCH7CFeH2SHSHC2HFeCSCSH3SHCHCHCH2CH2CFeCSCFeHCFeHNHSHCHCSH3CHCHSFeCH3SH2CHSH2FeSCSCH6CH4CSHC2H5FeH2NHCH2NCH5SH3FeS2FeS2FeSFeS3H2CHFeH7FeS2FeS2FeSFeS3H2SFeSHFeS2FeS2FeSFeHS2C2SHFeCSFeHSFeSHCSHFeS2HCHC2H2SCHS4CFeSH2C2HCH5SCH6SH4SHCHNHCHC2FeHC2H2CNHC2HC3H6SCH2C2H4CH4C6H6NCSCH2FeH3CHC2H2C3FeHCH5C2H2C7H4C6H4C6H4C6H9CH2SHC6H4C6H4C2H2C2SH2C6H4CHCHCH7SHCSNHC3HNHFeH7FeHNCHCSCHCHCH6CHC2SH3N2HCH3CHSHCHCH3C2NH3CNH2SCSFeC2SCHC2H3CH2CH2CH3CH4NCSH4NC4H9CH2CH8C2HFeH2CHCH2FeC2HC2H2FeHC3SHCHFe2S2FeS2FeSFeS3FeS2HSHFe2SCSHFeS2FeSH2S2CHFeS2HFe2S3H3CHCHCS2H2SHSCFeSH3SCSCHSH4C2HSHCH3CS3C2H2SN2HCFeSFeSFeS2CSHCSFeS4C2H2C6H5C2H2CHCH2FeSHSHCHCH2SHCH5CH5Fe2CHSH8CH3C7H4C6H2NHCNC6H2C3H2C6H5NH6C6H4C6H4C6H4C6H4FeH2CH2CHCH2CH4FeCH3CHC2H4SHCFeSH2C2H3CH3NSHCH2SH3CSFeSHCFeS2HSCHCHCHSH2C2HSNCH3NCHCH2CFeH2CNH4SCH3NC4H12NC4H12C2H3CFeSH2NCHSN2CHCHCHCFeC2H4CHCHC2H4C2SHNSH2CNHFeHC2HSHCH3FeH4SH2CH3C2H3CNH3FeH2CSH2CH3C2HSFeHCHFeCSH2SFeS2FeS2FeSFeS3FeSFeSFeSFeS3H4FeS2HCHCSFe2SH3FeS2FeS2FeSFeS3FeS2FeSHFe2S3C2H5S2NCH3SC3HCSC2HCHS2H4C4HCHC2HC4HCHC6H4C4H5C6H4C6H4FeC2H2SNCHC6H4C6H4C6H4C6H4C6H4C6H4CH5S2H4SFeHCH6CNCHC2HCHNS2CHCHC2HCSCHCFeNH2FeHSNSHNCHCH2NHCSCH8CHFeHNC4H13CSCH4CFeCSCH5NC4H12CSH2SCHC2HC2HCH5CFeCHCH2CNC3H4CHCH6NC4H12C2FeCH5CHCHSH7SH2CHNC4H9CSHSCS2HCHC3FeHNHC2HCHCHFeHSH2FeH4CFeHNFeH4C2HSFeH4CHCH5CNH8SHCHCH3CHCH7CH3CHFeCHNH2CFeSH3CHSH6C2HCHCH6FeS2FeS2FeSFeS3HCHCHCFeS2FeS2FeSFeS3HFeHCH2CHCHFeHSH3C2NS2CH2FeC2HSHCHCS2FeS2FeS2FeSFeS3CH2FeS2FeS2FeSFeS3H3FeHSFeSCSH2C10H4C2H6SC6H4C6H4C6H6CSH2CHCSHNHC2HCNH3C7H6C2H2FeHC2HC2H2CH3C6H7C6H4C6H4C6H4CHSHCH2C2HSHCH2CHSHCSHNSCH2CHCHCH2C3SH4CHNCH2FeH3C3SH2C3H4N2H2CHNH3CH3C2H3CH6C3NH4NH2SH2SC2HCHCSHCH3SHFeHNHSHSHCH3CSHC2HCH3FeHCNH6C2H3CH3FeHCH3NC4H13FeH2NC4H9CH2FeH2C2NHCH5C2NH10CHSHC3HFeS2FeSCFeSFeS3HFeS2FeS2FeHFeS3HSH4FeS2FeS2FeSFeS3FeCFeHSHCHS2HFeS2Fe2HFeHS2H2C2HSH5CHCH2CH4SCFeS2FeS2FeSFeS3C6H5SCHFeH2C2H3CHC3H7CH2CHC2SFeH2CHC2H6CH2C6H4C6H4FeC6H9CH2CFeSCH3C6H4C7SH4SHSC6H4C3H4C2H2C6H2NHC2H2SHC3H2SCNH2CH2NSC2H2FeH2NC4H14C2H2CSCH2C2HCHCHCH2CNC2HCH6SC2H3NSH3CH3C2HS3HCHSH3CNHFeHCN2C4H18CSC3HCHS2HC2H2CH3CH3CH2NCSH3CH4CHCNHCHCHSH2SFeCHCNC3H7CHCFeCNHCHC2SC2HCH4C3H4SHSCHC2H2NH2SCH8CH4C3H4C2FeCHCNC2H2CNH2CH7C2HFeHS2C2HSFeSFeSFeS2FeS2FeS2FeSFeS3H2S2HCH2CH2SHSCH2NSCFeS2FeSHFeSFeS3HCFeH4FeS2FeS2FeSFeS3HC2SHFeS2FeS2FeSFeHS2H5CH2SH2SFeCHCHCSH4CH4C6H4C6H4S2C4SH3SHCFeCH4CHS2HC6H4C6H4C2HC6H2CHSHCSHCFeCHCHCHCFeC6H4C6H4C6HSH2C2H2C6H4C6H5CH5C2H2SNHSH2NC4H17C2HNHC3H2CH3FeCH2CHCHCHCHC2HC2SFeH2FeHFeH3FeH5SH3CHCNH4C2HCHCSH6FeSH2CHNC4H6CH4SH2SCHNH4CSFeCNH2CH2NC4H7CHSH2NHC2H5CHC2HC3NC4H14FeH2CFeCH6NCH2CH3C2HNH7C2HSH2SHSCH2NC4H6NHCHCHNHCHCH2CHCHC3HSHSCH2CH3FeH2FeH2CNHCH3CH2SHSFeS2FeS2FeSFeS3CHFeH3FeS2FeS2FeS2FeS2Fe2S3HFeSHFeS2FeSFeS4FeHSFeS2FeS2FeSFeS3FeS2FeS2FeSFeS3C2H2SH2CHSHFeSCFeSFeSCSH3CH3C3H3CHCNC6H4C2SHC2N2H2C6H3SCHC6H4NH3FeSCH2C5HC2H2FeHC6H4C5H5C6H4CH2SHSCHCH3C2SHCHCHFeC6H4C6H4C6H5C4HCH4CHC7H5CH5FeCHSC3H3FeCH2SCH3CHFeNC3H9NC4H18CH2CHCH2CHSH2CHCH2CSH3C2H2C2HSCHCH3C2HCH3CH3NH3CHSHCHNHSHCHFeH2CHCH3NCH8FeHSCSHC4H2CFeCHNSH4NC4H12C2HSCH2SHC2HNH2NC4H10CNHCH2CHCFeH3CH3N2C4H14C2H5NH2SHC3H2C2HCH2SCH2NH4SHCH2CSH7NH2CH4C2H2CH4SCFeH2CNSH3CH3CHSFe2SHSH2C2HC3H2SCH3SHFeHCHNH2CFeCSHC2S2NH5FeH2CH2SNCHFeSC2HCSH2CHFeSCSH2FeS2FeSNS2HCHFeS2FeS2FeSFeS3CSHFeSHFe2SHS2FeS2FeHSH3S5H2CH2CHCHC2H3SH2NHC6H4C6H4SH2CHCH4C6H4CHSHC4H2FeSHC3FeCH2FeH2SHCHSH2C7SH2C7H4C4H4CH4CH4CFeC2SCHCHC2HC2H2CSC5FeHC7H8CSHNH4CHFe2CH2CHSHFeH3SHCHFeNHCH2FeHCHSNC4H14CH5CH4CH2SNC4H12NH2CFeSH2SHCH3SHFeNC4H12SC6HNC4H4FeH4CH3C5HSHCHC3SC2H2FeC2H3FeCHCNHSNH4CHNHCSH2SCHCFeSFeS2FeS2FeSFeS3H2FeS2H2S2C2HC2H2CHSC3HFeHCHFeSCHFeS2FeS2FeSFeHS2HCFeHSCH2CHSH2FeCSFeHC2HCNHSHFeS2FeS2FeSFeS3CSCHSCS2C2H2C6H4FeCHCFeHCFeHCFeSH2S2HCHCSHCH2C3HFe2H2CFeHCH2C6H4C6H5SH3CH3CHCHC2H2CH2C2H4SHC2HC2HCH5C4HCHSCHC6H4C6H4C6H4C6H2NC4H13CHFeSCH3FeCH2CHCSNFeC2H8CH3C4HSH3CFeHNC4H12NC4H10SC4FeHN2CSN2HSH9SH2CSFeCH3FeHC2SH3NC4H13CHSHCH3C2HC2HC2NH3C2H2NHSHSNC4H12SCSH4SHSH2SH5NC4H6SHSCH4CHC2H9CNH6SFeHNCH3C3NCH3CSHCHSCH3SH2FeCH4FeNHFeSHCH2FeS2FeS2FeSFeS3FeS2FeS2FeSFeS3CS3HCFeH3FeS2CFeS2FeS2FeSFeS3FeCSC2HSH2C2HFeS2FeS2FeSFeHS2H3CHFeH2C6H9CHCHC7H5CH3C6H4C6H5CH2SHCH4SC3H2C2H4C6H4C6H4C6H7C7H4C3H2CH2CH2NCH4CSC2H5SHCNC4H14FeHSHSHNCH3CH4FeH3C2SH3FeSCHSNCH2CHC3SCH2CNH2NC4H12NC4H12FeH2CH2CSH3NHCH2S2NFe2HCHCHC4HCNCH3CHCH4C2H3CHNFeNSCHCHCNH3CH2CSH2C2HC2H3CH2C2H4CSCH2CHCHCSFeHC2HCHNFeH8CHC2HCSHSHCHSHFeCH4FeSH3SH2CFeHC2H8C2HS2CNH3C2H4CH3CH3CH2CH2CHSFeS2HSCFeSFeS2HFeSHFeS2Fe3S4C2H3NH3NFeS2FeSFeHSCHCSHFeS2FeS3FeS2FeS2FeSFeS3FeS2HFeS2FeS2Fe2S3HCHC2HC6H4C6H4C6H4C5H5C6H5CHC6H3C6H4C6H7CSHFeCNC7H4C6H4SCSH2CH2SHSHSHN2CH2FeHSHCHCH2CSCH2SHFe2C2SHFeH7SH4C2H3CNC4H12NC4H12NC2HCH5NC4H4FeH6SCH2CH6NC2HCH2CH2FeHC2HCH2CH3NH2CHCH2NCHCHSHCH4NHCSFeHCH2NSC3SH2C2H3CH2CH9CHCHC2HC2SC3SCHC3H2CHCH3CSH2SH6CH6C2H5CH2CH4CH2C2SFeS2FeSFeS2FeS2FeS2FeSFeS3NH2SFeSCSH2C2HSHFe2S2HFeCH2FeCS2FeS2FeS2Fe2S3H2FeS2FeS2FeSFeS3HSH4CFe2SH2CH3FeH2CH6C6H4C6H7SCSCH3C3H2CH2SHC6H4C6H4C2HC2NHSFeH2CSNHCH4SNC2HNH2CHS2HC6H4SC3HCH4C6H4C6H5C6H9CHCH4CHNC2H4CH3NC4H14CHC3H4SHC2H2NC4H12NC2H2CHSNC4H12CSCSC2NFeCH7CNFeC4H5CHC5SH3SCH3C2H2CHCS2H2FeC2H2CH2CH2SCHC3HSH5NH3CHCH2C3H3C2H5CSH10CHCSH3CHCSFeC2H3SHFeCHSCH5CH4C2H2CFeCNCH2FeHN2H4FeHSC2HCHSH3CH4CHNCH7CHSH3CH3C3HNHSFeS2FeS2Fe2S3HCHSHCHFeSNFeS2FeSFeS3FeSFeSFe2SFeS3CFeS2FeS2FeHFeS3H2CS2HCFeSH2SCFeS2FeCFeSFeHS2C2FeSNHSH5SHCFeHSH3SHSHC2HFeS2H2SCHCH3NH4CHSC4H8FeH5C3HCSH4C6H4C6H7FeHC2H3C7H4C6H4C6H5CH5CHC2HC4H3C6H4C6H4C5H6C5H2CH5SC2SHNH2SH3C2HCHCH3CHFeCH3C2H2CNC4H13NHNHC2SCHCH3C3H2CHSH6C2SCNC4H12SC3H4CHNH2C3HCNC3H10CH6CSNHCS2H2SCNC4H3CH10CHC2HCNHCHC2SH2CFeCHCH2CNH2CH3CH4SH6CH3CHCH2SNH2CH5SHFeH2FeS2FeS2FeSFeS3FeS2FeSFeS3FeS2FeS2FeSFeS3H2FeSHFeS2FeSFeS3CFeS2FeS2FeSFeS3FeS2FeSFeSFeS3HC6H5C6H5C2HCHCHC2HC2HC6H4C6H4C2H2C3HC2HCH2C6H4C6H4C6H4C6H4C2SCHCH2FeC2H3SHSHSN2CHCH4C2H8NH2CH4FeNC4H13C2H2SNHCH2CH3CH9C2HSH3C2H2SH5CSNC4H5CH4NSC2SC2H4CH4FeCHFeHNHNC4H15CHCSH3CHC2H2CHCH13SC2HC2H3NC4HNH2SCH5CNC4H15CFeH5CH4C3HNHC3SH3NH2CNC2H8CH4SHC3HNCH2CH6CH3C2HC2HCH6CHCH3CH5SFeS2FeS2FeSFeS3FeS2FeS2FeSFeS3FeH3SHFeS2FeS2FeSFeS3H2FeSHFeSHFe2S3FeS2FeS2FeSFeS3H3C3H4C4H3C6H5C2H4C2HC2H4CH4C2HSC2H2CHC6H4C6H4CHSCH6C6HFeH2C6H4C2H2C6H4C3HCHCSFeCN2H2NH2CHCHCNHCHC2H3SHCNCNC3H10FeNC4H12NH5CHCH3CH2NC4H12NC4H12SCH3CSCH4N2C4H6SH6CHCH3SHC2HCHSC2HNC2H4CH2CNH6C2H7CH2C3H6NC4H7CSCSFeC2H9C2HCSH4C4H3CHCSCH5NHCHCNH2CHC3HCFeHC2HCH2C2HCHFeH3S2H4CHC4SH5CH
_chemical_formula_sum              "Fe1040 S2080 H8320 C5200 N520"
_cell_length_a       91.4189
_cell_length_b       91.2909
_cell_length_c       91.6206
_cell_angle_alpha    73.8116
_cell_angle_beta     73.6813
_cell_angle_gamma    73.7193

_space_group_name_H-M_alt    "P 1"
_space_group_IT_number       1

loop_
  _space_group_symop_operation_xyz
  'x, y, z'

loop_
  _atom_site_type_symbol
  _atom_site_label
  _atom_site_symmetry_multiplicity
  _atom_site_fract_x
  _atom_site_fract_y
  _atom_site_fract_z
  _atom_site_occupancy
  Fe  Fe1       1.0  0.14418  0.20593  0.10882  1.0000
  S   S1        1.0  0.12674  0.21345  0.09373  1.0000
  S   S2        1.0  0.16676  0.18880  0.10229  1.0000
  H   H1        1.0  0.42177  0.18970  0.06762  1.0000
  H   H2        1.0  0.21556  0.17046  0.14576  1.0000
  H   H3        1.0  0.25732  0.00756  0.00979  1.0000
  Fe  Fe2       1.0  0.10879  0.21072  0.11612  1.0000
  S   S3        1.0  0.08976  0.19762  0.12152  1.0000
  Fe  Fe3       1.0  0.12434  0.22599  0.13137  1.0000
  S   S4        1.0  0.12635  0.20109  0.13103  1.0000
  C   C1        1.0  0.34054  0.19592  0.16900  1.0000
  Fe  Fe4       1.0  0.08571  0.14647  0.07187  1.0000
  S   S5        1.0  0.09231  0.12667  0.09157  1.0000
  S   S6        1.0  0.09214  0.16993  0.06490  1.0000
  Fe  Fe5       1.0  0.07024  0.12786  0.06048  1.0000
  S   S7        1.0  0.07542  0.10653  0.07899  1.0000
  S   S8        1.0  0.05588  0.12816  0.04407  1.0000
  Fe  Fe6       1.0  0.06812  0.12300  0.09504  1.0000
  S   S9        1.0  0.05264  0.11561  0.11840  1.0000
  Fe  Fe7       1.0  0.09899  0.11182  0.07387  1.0000
  S   S10       1.0  0.11921  0.09109  0.07267  1.0000
  S   S11       1.0  0.06089  0.14414  0.07694  1.0000
  S   S12       1.0  0.09455  0.13190  0.05382  1.0000
  C   C2        1.0  0.38933  0.19384  0.05433  1.0000
  H   H4        1.0  0.27851  0.13005  0.20718  1.0000
  Fe  Fe8       1.0  0.11534  0.02524  0.04257  1.0000
  S   S13       1.0  0.11146  0.01157  0.06728  1.0000
  S   S14       1.0  0.10356  0.05041  0.03580  1.0000
  Fe  Fe9       1.0  0.13873  0.99832  0.03027  1.0000
  H   H5        1.0  0.10856  0.15340  0.11470  1.0000
  Fe  Fe10      1.0  0.13754  0.00330  0.06198  1.0000
  C   C3        1.0  0.28278  0.11247  0.18662  1.0000
  S   S15       1.0  0.11284  0.00662  0.03240  1.0000
  S   S16       1.0  0.14144  0.01843  0.03799  1.0000
  Fe  Fe11      1.0  0.32525  0.17942  0.09326  1.0000
  S   S17       1.0  0.35100  0.17717  0.08379  1.0000
  S   S18       1.0  0.31661  0.15718  0.09934  1.0000
  H   H6        1.0  0.11972  0.14697  0.12954  1.0000
  Fe  Fe12      1.0  0.34441  0.19792  0.06521  1.0000
  S   S19       1.0  0.35569  0.20012  0.03963  1.0000
  Fe  Fe13      1.0  0.34908  0.19455  0.09771  1.0000
  S   S20       1.0  0.36802  0.18940  0.11093  1.0000
  S   S21       1.0  0.31867  0.19899  0.07355  1.0000
  S   S22       1.0  0.32381  0.19499  0.10897  1.0000
  H   H7        1.0  0.38053  0.14424  0.04666  1.0000
  S   S23       1.0  0.30760  0.04052  0.98507  1.0000
  H   H8        1.0  0.29551  0.11159  0.18168  1.0000
  H   H9        1.0  0.19658  0.12653  0.20537  1.0000
  C   C4        1.0  0.99688  0.09268  0.20565  1.0000
  H   H10       1.0  0.25516  0.12301  0.20475  1.0000
  Fe  Fe14      1.0  0.31937  0.21458  0.08834  1.0000
  C   C5        1.0  0.37219  0.20511  0.11538  1.0000
  S   S24       1.0  0.99497  0.05830  0.15167  1.0000
  S   S25       1.0  0.38089  0.19648  0.19810  1.0000
  C   C6        1.0  0.36450  0.09114  0.98330  1.0000
  H   H11       1.0  0.25039  0.14163  0.19175  1.0000
  Fe  Fe15      1.0  0.21022  0.12560  0.15660  1.0000
  S   S26       1.0  0.22070  0.13494  0.17033  1.0000
  S   S27       1.0  0.18451  0.13529  0.15908  1.0000
  Fe  Fe16      1.0  0.24047  0.10374  0.14639  1.0000
  S   S28       1.0  0.25370  0.11119  0.15942  1.0000
  S   S29       1.0  0.25306  0.08428  0.13390  1.0000
  Fe  Fe17      1.0  0.23225  0.11013  0.17862  1.0000
  S   S30       1.0  0.23049  0.10356  0.20444  1.0000
  Fe  Fe18      1.0  0.24102  0.13537  0.15001  1.0000
  S   S31       1.0  0.24977  0.15748  0.14395  1.0000
  S   S32       1.0  0.22006  0.10059  0.16656  1.0000
  S   S33       1.0  0.22954  0.12820  0.13524  1.0000
  Fe  Fe19      1.0  0.22732  0.01438  0.07712  1.0000
  S   S34       1.0  0.21224  0.01591  0.10086  1.0000
  S   S35       1.0  0.21844  0.01550  0.05621  1.0000
  Fe  Fe20      1.0  0.25656  0.01412  0.08642  1.0000
  S   S36       1.0  0.24425  0.01529  0.11107  1.0000
  S   S37       1.0  0.28126  0.01706  0.07689  1.0000
  Fe  Fe21      1.0  0.22549  0.03328  0.10057  1.0000
  S   S38       1.0  0.21291  0.05652  0.10682  1.0000
  S   S39       1.0  0.23876  0.03345  0.07599  1.0000
  H   H12       1.0  0.13998  0.17120  0.11595  1.0000
  C   C7        1.0  0.28519  0.99829  0.05682  1.0000
  C   C8        1.0  0.28909  0.01108  0.05915  1.0000
  C   C9        1.0  0.29873  0.01956  0.04701  1.0000
  H   H13       1.0  0.11286  0.16748  0.12226  1.0000
  C   C10       1.0  0.24058  0.07639  0.12827  1.0000
  C   C11       1.0  0.24478  0.06056  0.12771  1.0000
  C   C12       1.0  0.23599  0.05433  0.12165  1.0000
  C   C13       1.0  0.22302  0.06388  0.11596  1.0000
  C   C14       1.0  0.21845  0.07962  0.11705  1.0000
  C   C15       1.0  0.22719  0.08587  0.12325  1.0000
  H   H14       1.0  0.25488  0.05310  0.13196  1.0000
  H   H15       1.0  0.23931  0.04213  0.12137  1.0000
  H   H16       1.0  0.20833  0.08705  0.11280  1.0000
  H   H17       1.0  0.22385  0.09810  0.12371  1.0000
  S   S40       1.0  0.24624  0.99484  0.08556  1.0000
  H   H18       1.0  0.06495  0.20301  0.18940  1.0000
  C   C16       1.0  0.34689  0.21049  0.18385  1.0000
  C   C17       1.0  0.24734  0.09200  0.21079  1.0000
  C   C18       1.0  0.26002  0.08459  0.20072  1.0000
  C   C19       1.0  0.27360  0.07592  0.20603  1.0000
  C   C20       1.0  0.17923  0.15428  0.19381  1.0000
  Fe  Fe22      1.0  0.11134  0.99214  0.05678  1.0000
  H   H19       1.0  0.25934  0.08549  0.18890  1.0000
  H   H20       1.0  0.28340  0.07015  0.19827  1.0000
  H   H21       1.0  0.14691  0.15068  0.12312  1.0000
  H   H22       1.0  0.12952  0.13796  0.09771  1.0000
  H   H23       1.0  0.23153  0.16631  0.11993  1.0000
  H   H24       1.0  0.28136  0.10568  0.19892  1.0000
  H   H25       1.0  0.37552  0.20444  0.16492  1.0000
  H   H26       1.0  0.19411  0.20660  0.12329  1.0000
  C   C21       1.0  0.16972  0.14239  0.22066  1.0000
  Fe  Fe23      1.0  0.33171  0.04438  0.98162  1.0000
  S   S41       1.0  0.34463  0.21532  0.07826  1.0000
  H   H27       1.0  0.27852  0.10650  0.18008  1.0000
  H   H28       1.0  0.45712  0.13914  0.99819  1.0000
  C   C22       1.0  0.29799  0.15743  0.11167  1.0000
  C   C23       1.0  0.28924  0.17081  0.11716  1.0000
  C   C24       1.0  0.27440  0.17073  0.12704  1.0000
  C   C25       1.0  0.26825  0.15731  0.13138  1.0000
  C   C26       1.0  0.27696  0.14394  0.12585  1.0000
  C   C27       1.0  0.29182  0.14401  0.11602  1.0000
  H   H29       1.0  0.29392  0.18122  0.11382  1.0000
  H   H30       1.0  0.26771  0.18110  0.13132  1.0000
  H   H31       1.0  0.27227  0.13355  0.12914  1.0000
  H   H32       1.0  0.29857  0.13363  0.11179  1.0000
  C   C28       1.0  0.37432  0.16844  0.01228  1.0000
  H   H33       1.0  0.03275  0.12366  0.18547  1.0000
  C   C29       1.0  0.37873  0.15457  0.02288  1.0000
  H   H34       1.0  0.36408  0.19317  0.00923  1.0000
  C   C30       1.0  0.46087  0.14000  0.98573  1.0000
  H   H35       1.0  0.05977  0.20589  0.00051  1.0000
  C   C31       1.0  0.37016  0.16891  0.04364  1.0000
  C   C32       1.0  0.36533  0.18271  0.03318  1.0000
  H   H36       1.0  0.15522  0.16002  0.10370  1.0000
  H   H37       1.0  0.36868  0.16894  0.05571  1.0000
  N   N1        1.0  0.27415  0.12891  0.18571  1.0000
  C   C33       1.0  0.17058  0.00339  0.07251  1.0000
  C   C34       1.0  0.17535  0.01139  0.05720  1.0000
  C   C35       1.0  0.19035  0.01453  0.05198  1.0000
  C   C36       1.0  0.20054  0.00980  0.06213  1.0000
  H   H38       1.0  0.04932  0.13483  0.15996  1.0000
  H   H39       1.0  0.28080  0.02656  0.00918  1.0000
  H   H40       1.0  0.16741  0.01550  0.04946  1.0000
  H   H41       1.0  0.19384  0.02108  0.04025  1.0000
  H   H42       1.0  0.01616  0.13676  0.17852  1.0000
  C   C37       1.0  0.25733  0.12941  0.19233  1.0000
  C   C38       1.0  0.03922  0.10655  0.11573  1.0000
  C   C39       1.0  0.03601  0.10941  0.10102  1.0000
  C   C40       1.0  0.02574  0.10181  0.09872  1.0000
  C   C41       1.0  0.01859  0.09134  0.11111  1.0000
  C   C42       1.0  0.98738  0.00855  0.14411  1.0000
  C   C43       1.0  0.03182  0.09630  0.12824  1.0000
  H   H43       1.0  0.04134  0.11759  0.09138  1.0000
  H   H44       1.0  0.02330  0.10407  0.08730  1.0000
  C   C44       1.0  0.12123  0.03819  0.97952  1.0000
  H   H45       1.0  0.03436  0.09383  0.13961  1.0000
  C   C45       1.0  0.10878  0.06174  0.04536  1.0000
  C   C46       1.0  0.10318  0.07797  0.04240  1.0000
  C   C47       1.0  0.10650  0.08700  0.05070  1.0000
  C   C48       1.0  0.11566  0.07987  0.06178  1.0000
  C   C49       1.0  0.12149  0.06368  0.06454  1.0000
  C   C50       1.0  0.11801  0.05462  0.05638  1.0000
  H   H46       1.0  0.09613  0.08358  0.03381  1.0000
  H   H47       1.0  0.10201  0.09950  0.04843  1.0000
  H   H48       1.0  0.12825  0.05806  0.07332  1.0000
  H   H49       1.0  0.12230  0.04209  0.05880  1.0000
  C   C51       1.0  0.06459  0.13432  0.02442  1.0000
  C   C52       1.0  0.05517  0.14195  0.01363  1.0000
  C   C53       1.0  0.06188  0.14848  0.99824  1.0000
  C   C54       1.0  0.07805  0.14718  0.99360  1.0000
  C   C55       1.0  0.08752  0.13895  0.00420  1.0000
  C   C56       1.0  0.08080  0.13256  0.01960  1.0000
  H   H50       1.0  0.04262  0.14328  0.01730  1.0000
  H   H51       1.0  0.05450  0.15472  0.99008  1.0000
  H   H52       1.0  0.10005  0.13775  0.00056  1.0000
  H   H53       1.0  0.08817  0.12622  0.02770  1.0000
  C   C57       1.0  0.08880  0.19104  0.10562  1.0000
  C   C58       1.0  0.09493  0.19827  0.09038  1.0000
  C   C59       1.0  0.09545  0.19199  0.07786  1.0000
  C   C60       1.0  0.08992  0.17841  0.08057  1.0000
  C   C61       1.0  0.08335  0.17144  0.09577  1.0000
  C   C62       1.0  0.08263  0.17786  0.10828  1.0000
  H   H54       1.0  0.09932  0.20864  0.08825  1.0000
  H   H55       1.0  0.10046  0.19743  0.06609  1.0000
  H   H56       1.0  0.07890  0.16106  0.09789  1.0000
  H   H57       1.0  0.07771  0.17235  0.12005  1.0000
  C   C63       1.0  0.17196  0.17407  0.11809  1.0000
  C   C64       1.0  0.16403  0.17508  0.13333  1.0000
  C   C65       1.0  0.16774  0.16295  0.14584  1.0000
  C   C66       1.0  0.17988  0.15006  0.14319  1.0000
  C   C67       1.0  0.18829  0.14926  0.12801  1.0000
  C   C68       1.0  0.18421  0.16120  0.11543  1.0000
  H   H58       1.0  0.15517  0.18528  0.13555  1.0000
  H   H59       1.0  0.16138  0.16371  0.15760  1.0000
  H   H60       1.0  0.19764  0.13924  0.12594  1.0000
  H   H61       1.0  0.19045  0.16042  0.10364  1.0000
  H   H62       1.0  0.10891  0.04382  0.97873  1.0000
  C   C69       1.0  0.13745  0.20440  0.16636  1.0000
  C   C70       1.0  0.14100  0.19260  0.17928  1.0000
  H   H63       1.0  0.25248  0.12387  0.18594  1.0000
  H   H64       1.0  0.03226  0.14672  0.15300  1.0000
  H   H65       1.0  0.14085  0.20184  0.15492  1.0000
  H   H66       1.0  0.14697  0.18091  0.17777  1.0000
  H   H67       1.0  0.48280  0.10884  0.99584  1.0000
  H   H68       1.0  0.30185  0.02942  0.04877  1.0000
  H   H69       1.0  0.14076  0.13130  0.11250  1.0000
  H   H70       1.0  0.41645  0.20216  0.05004  1.0000
  H   H71       1.0  0.01050  0.13434  0.15436  1.0000
  C   C71       1.0  0.39650  0.17704  0.07788  1.0000
  C   C72       1.0  0.25728  0.02981  0.03399  1.0000
  C   C73       1.0  0.26914  0.03259  0.00655  1.0000
  S   S42       1.0  0.40563  0.21422  0.16068  1.0000
  H   H72       1.0  0.21840  0.20449  0.13179  1.0000
  H   H73       1.0  0.48530  0.08974  0.00837  1.0000
  H   H74       1.0  0.35059  0.98541  0.98547  1.0000
  C   C74       1.0  0.19595  0.00140  0.07730  1.0000
  H   H75       1.0  0.20391  0.99734  0.08507  1.0000
  H   H76       1.0  0.28774  0.98413  0.04061  1.0000
  H   H77       1.0  0.19260  0.19139  0.11538  1.0000
  H   H78       1.0  0.10263  0.22900  0.05619  1.0000
  H   H79       1.0  0.07107  0.21845  0.16221  1.0000
  S   S43       1.0  0.15593  0.99017  0.00967  1.0000
  H   H80       1.0  0.31112  0.02237  0.02291  1.0000
  H   H81       1.0  0.41993  0.18132  0.05281  1.0000
  H   H82       1.0  0.38403  0.17700  0.08352  1.0000
  S   S44       1.0  0.15171  0.99986  0.07964  1.0000
  C   C75       1.0  0.30399  0.01557  0.03238  1.0000
  C   C76       1.0  0.01937  0.12315  0.15459  1.0000
  H   H83       1.0  0.37672  0.19426  0.05961  1.0000
  C   C77       1.0  0.12849  0.21093  0.19608  1.0000
  C   C78       1.0  0.34897  0.22004  0.15615  1.0000
  H   H84       1.0  0.37564  0.16826  0.00022  1.0000
  C   C79       1.0  0.36773  0.18252  0.01742  1.0000
  S   S45       1.0  0.38533  0.13644  0.01744  1.0000
  C   C80       1.0  0.13619  0.19579  0.19421  1.0000
  C   C81       1.0  0.37693  0.15493  0.03848  1.0000
  H   H85       1.0  0.01670  0.11624  0.18518  1.0000
  H   H86       1.0  0.45087  0.16328  0.21566  1.0000
  H   H87       1.0  0.02456  0.12220  0.14226  1.0000
  C   C82       1.0  0.44629  0.16565  0.20499  1.0000
  N   N2        1.0  0.21345  0.18664  0.12394  1.0000
  H   H88       1.0  0.09143  0.19668  0.17328  1.0000
  C   C83       1.0  0.22443  0.19540  0.12484  1.0000
  H   H89       1.0  0.48195  0.09240  0.98926  1.0000
  C   C84       1.0  0.22196  0.17470  0.11464  1.0000
  S   S46       1.0  0.33279  0.06527  0.98972  1.0000
  H   H90       1.0  0.10357  0.21059  0.16672  1.0000
  H   H91       1.0  0.20582  0.20377  0.10449  1.0000
  C   C85       1.0  0.43126  0.18444  0.18737  1.0000
  S   S47       1.0  0.08651  0.15655  0.97492  1.0000
  C   C86       1.0  0.09478  0.20584  0.17673  1.0000
  H   H92       1.0  0.36941  0.18668  0.17545  1.0000
  H   H93       1.0  0.26283  0.02097  0.21383  1.0000
  C   C87       1.0  0.15918  0.13963  0.20041  1.0000
  H   H94       1.0  0.07380  0.20480  0.20384  1.0000
  C   C88       1.0  0.37843  0.22948  0.12428  1.0000
  N   N3        1.0  0.05780  0.07300  0.06825  1.0000
  C   C89       1.0  0.06323  0.06510  0.05503  1.0000
  C   C90       1.0  0.04344  0.06829  0.07845  1.0000
  C   C91       1.0  0.05451  0.09011  0.06219  1.0000
  C   C92       1.0  0.07004  0.06856  0.07731  1.0000
  H   H95       1.0  0.07358  0.06905  0.04672  1.0000
  H   H96       1.0  0.05402  0.06766  0.04836  1.0000
  H   H97       1.0  0.06677  0.05218  0.05898  1.0000
  H   H98       1.0  0.03947  0.07346  0.08893  1.0000
  H   H99       1.0  0.03360  0.07225  0.07235  1.0000
  H   H100      1.0  0.04531  0.05538  0.08266  1.0000
  H   H101      1.0  0.05029  0.09655  0.07177  1.0000
  H   H102      1.0  0.04541  0.09399  0.05518  1.0000
  H   H103      1.0  0.06516  0.09408  0.05456  1.0000
  H   H104      1.0  0.06623  0.07426  0.08745  1.0000
  H   H105      1.0  0.08097  0.07216  0.07007  1.0000
  H   H106      1.0  0.07306  0.05570  0.08182  1.0000
  N   N4        1.0  0.27811  0.06002  0.08525  1.0000
  C   C93       1.0  0.26438  0.05336  0.08773  1.0000
  C   C94       1.0  0.27762  0.06501  0.09944  1.0000
  C   C95       1.0  0.27784  0.07364  0.07198  1.0000
  C   C96       1.0  0.29257  0.04806  0.08185  1.0000
  H   H107      1.0  0.25322  0.06199  0.09044  1.0000
  H   H108      1.0  0.26428  0.04291  0.09755  1.0000
  H   H109      1.0  0.26438  0.04949  0.07724  1.0000
  H   H110      1.0  0.27762  0.05504  0.10972  1.0000
  H   H111      1.0  0.28783  0.07001  0.09808  1.0000
  H   H112      1.0  0.26691  0.07413  0.10230  1.0000
  H   H113      1.0  0.26705  0.08286  0.07421  1.0000
  H   H114      1.0  0.27818  0.07024  0.06110  1.0000
  H   H115      1.0  0.28806  0.07894  0.06974  1.0000
  H   H116      1.0  0.30320  0.05243  0.08042  1.0000
  H   H117      1.0  0.29356  0.04438  0.07093  1.0000
  H   H118      1.0  0.29281  0.03729  0.09132  1.0000
  H   H119      1.0  0.25566  0.04247  0.03345  1.0000
  H   H120      1.0  0.24015  0.03370  0.00426  1.0000
  N   N5        1.0  0.25645  0.02702  0.01914  1.0000
  C   C97       1.0  0.14740  0.98257  0.99932  1.0000
  H   H121      1.0  0.17034  0.16536  0.19493  1.0000
  C   C98       1.0  0.20645  0.17885  0.13981  1.0000
  H   H122      1.0  0.17205  0.98662  0.04495  1.0000
  C   C99       1.0  0.29076  0.99407  0.04234  1.0000
  C   C100      1.0  0.39181  0.20508  0.07421  1.0000
  C   C101      1.0  0.42363  0.18429  0.21484  1.0000
  H   H123      1.0  0.19989  0.18746  0.14719  1.0000
  H   H124      1.0  0.06577  0.16455  0.02296  1.0000
  C   C102      1.0  0.36394  0.22047  0.11111  1.0000
  H   H125      1.0  0.01601  0.08065  0.13555  1.0000
  C   C103      1.0  0.29991  0.00287  0.03003  1.0000
  C   C104      1.0  0.98812  0.98629  0.13413  1.0000
  C   C105      1.0  0.01388  0.07858  0.18618  1.0000
  N   N6        1.0  0.16516  0.04882  0.08597  1.0000
  C   C106      1.0  0.15677  0.06445  0.07898  1.0000
  C   C107      1.0  0.15575  0.03720  0.08837  1.0000
  C   C108      1.0  0.16773  0.04912  0.10111  1.0000
  C   C109      1.0  0.18043  0.04448  0.07542  1.0000
  H   H126      1.0  0.16343  0.07357  0.07708  1.0000
  H   H127      1.0  0.14511  0.06808  0.08656  1.0000
  H   H128      1.0  0.15468  0.06467  0.06751  1.0000
  H   H129      1.0  0.16156  0.02530  0.09391  1.0000
  H   H130      1.0  0.14401  0.04026  0.09601  1.0000
  H   H131      1.0  0.15390  0.03635  0.07714  1.0000
  H   H132      1.0  0.17396  0.03746  0.10672  1.0000
  H   H133      1.0  0.15648  0.05249  0.10935  1.0000
  H   H134      1.0  0.17502  0.05759  0.09971  1.0000
  H   H135      1.0  0.17900  0.04379  0.06397  1.0000
  H   H136      1.0  0.18714  0.03287  0.08050  1.0000
  H   H137      1.0  0.18779  0.05306  0.07321  1.0000
  N   N7        1.0  0.07285  0.18646  0.01454  1.0000
  C   C110      1.0  0.06557  0.20327  0.01043  1.0000
  C   C111      1.0  0.06072  0.17721  0.01923  1.0000
  C   C112      1.0  0.08055  0.18351  0.02761  1.0000
  C   C113      1.0  0.08458  0.18179  0.00087  1.0000
  H   H138      1.0  0.07439  0.21064  0.00687  1.0000
  H   H139      1.0  0.18857  0.12438  0.19052  1.0000
  C   C114      1.0  0.45035  0.13946  0.97736  1.0000
  C   C115      1.0  0.36327  0.06507  0.97352  1.0000
  C   C116      1.0  0.48379  0.22684  0.16881  1.0000
  H   H140      1.0  0.31133  0.98262  0.97356  1.0000
  H   H141      1.0  0.08621  0.17091  0.03098  1.0000
  H   H142      1.0  0.07204  0.18672  0.03821  1.0000
  H   H143      1.0  0.34180  0.18510  0.17832  1.0000
  H   H144      1.0  0.26916  0.03034  0.99521  1.0000
  H   H145      1.0  0.09035  0.16918  0.00354  1.0000
  H   H146      1.0  0.99299  0.98839  0.17960  1.0000
  N   N8        1.0  0.32856  0.15353  0.05315  1.0000
  C   C117      1.0  0.33962  0.14853  0.06357  1.0000
  C   C118      1.0  0.32860  0.14006  0.04716  1.0000
  C   C119      1.0  0.33337  0.16609  0.03993  1.0000
  C   C120      1.0  0.31271  0.15942  0.06192  1.0000
  H   H147      1.0  0.33594  0.13958  0.07407  1.0000
  H   H148      1.0  0.34037  0.15853  0.06782  1.0000
  H   H149      1.0  0.35158  0.14339  0.05756  1.0000
  H   H150      1.0  0.34046  0.13541  0.04044  1.0000
  H   H151      1.0  0.32513  0.13031  0.05684  1.0000
  H   H152      1.0  0.32040  0.14337  0.03923  1.0000
  H   H153      1.0  0.32510  0.17044  0.03201  1.0000
  H   H154      1.0  0.34510  0.16190  0.03281  1.0000
  H   H155      1.0  0.33400  0.17628  0.04400  1.0000
  H   H156      1.0  0.31238  0.16960  0.06655  1.0000
  H   H157      1.0  0.30879  0.15033  0.07217  1.0000
  H   H158      1.0  0.30399  0.16322  0.05450  1.0000
  N   N9        1.0  0.39812  0.19180  0.06632  1.0000
  H   H159      1.0  0.01318  0.11340  0.16029  1.0000
  C   C121      1.0  0.45835  0.22380  0.16816  1.0000
  H   H160      1.0  0.44106  0.18285  0.17707  1.0000
  C   C122      1.0  0.12530  0.22277  0.18316  1.0000
  H   H161      1.0  0.23400  0.18752  0.13043  1.0000
  S   S48       1.0  0.01126  0.17344  0.97313  1.0000
  H   H162      1.0  0.03627  0.09745  0.16971  1.0000
  H   H163      1.0  0.22733  0.18013  0.10255  1.0000
  H   H164      1.0  0.45707  0.19167  0.18910  1.0000
  H   H165      1.0  0.37387  0.16944  0.22101  1.0000
  H   H166      1.0  0.15442  0.12948  0.20814  1.0000
  H   H167      1.0  0.00247  0.07352  0.17110  1.0000
  H   H168      1.0  0.05658  0.20722  0.02041  1.0000
  H   H169      1.0  0.36491  0.10113  0.98719  1.0000
  C   C123      1.0  0.38072  0.19102  0.21808  1.0000
  C   C124      1.0  0.24116  0.03553  0.01542  1.0000
  N   N10       1.0  0.17343  0.14061  0.20438  1.0000
  H   H170      1.0  0.09144  0.22363  0.19665  1.0000
  H   H171      1.0  0.09389  0.18859  0.99690  1.0000
  N   N11       1.0  0.08108  0.21832  0.18089  1.0000
  H   H172      1.0  0.04857  0.10500  0.15171  1.0000
  H   H173      1.0  0.12771  0.04763  0.97681  1.0000
  H   H174      1.0  0.05152  0.10606  0.16993  1.0000
  H   H175      1.0  0.40132  0.16674  0.07239  1.0000
  H   H176      1.0  0.17738  0.99197  0.09434  1.0000
  S   S49       1.0  0.13709  0.98250  0.05392  1.0000
  H   H177      1.0  0.42356  0.17640  0.18873  1.0000
  H   H178      1.0  0.18162  0.11563  0.21049  1.0000
  S   S50       1.0  0.00573  0.12494  0.21940  1.0000
  Fe  Fe24      1.0  0.42123  0.22648  0.16556  1.0000
  H   H179      1.0  0.42434  0.19655  0.18446  1.0000
  H   H180      1.0  0.04612  0.13331  0.14203  1.0000
  H   H181      1.0  0.23001  0.20134  0.11305  1.0000
  C   C125      1.0  0.28007  0.13627  0.19469  1.0000
  C   C126      1.0  0.27641  0.13747  0.16924  1.0000
  H   H182      1.0  0.29276  0.13604  0.19005  1.0000
  H   H183      1.0  0.27381  0.14869  0.19425  1.0000
  H   H184      1.0  0.27218  0.13215  0.16210  1.0000
  H   H185      1.0  0.28894  0.13746  0.16383  1.0000
  H   H186      1.0  0.26986  0.14988  0.16803  1.0000
  N   N12       1.0  0.13228  0.15621  0.10665  1.0000
  C   C127      1.0  0.12907  0.16846  0.09279  1.0000
  C   C128      1.0  0.13820  0.14084  0.10231  1.0000
  C   C129      1.0  0.11773  0.15598  0.11883  1.0000
  C   C130      1.0  0.14411  0.15963  0.11264  1.0000
  H   H187      1.0  0.13983  0.16921  0.08344  1.0000
  H   H188      1.0  0.12433  0.18017  0.09573  1.0000
  H   H189      1.0  0.12034  0.16616  0.08781  1.0000
  H   H190      1.0  0.14917  0.14064  0.09311  1.0000
  C   C131      1.0  0.38388  0.20204  0.12364  1.0000
  H   H191      1.0  0.39045  0.19020  0.12677  1.0000
  S   S51       1.0  0.30502  0.99858  0.01153  1.0000
  Fe  Fe25      1.0  0.39131  0.13617  0.99186  1.0000
  H   H192      1.0  0.24906  0.00542  0.03040  1.0000
  H   H193      1.0  0.37915  0.20606  0.07963  1.0000
  H   H194      1.0  0.12508  0.21359  0.20748  1.0000
  H   H195      1.0  0.16157  0.13833  0.18818  1.0000
  H   H196      1.0  0.19003  0.15535  0.19637  1.0000
  N   N13       1.0  0.43705  0.18182  0.20162  1.0000
  H   H197      1.0  0.26813  0.04535  0.00493  1.0000
  S   S52       1.0  0.37441  0.13219  0.98043  1.0000
  H   H198      1.0  0.27532  0.03927  0.21939  1.0000
  C   C132      1.0  0.18557  0.12618  0.20263  1.0000
  H   H199      1.0  0.08976  0.19032  0.02456  1.0000
  H   H200      1.0  0.39777  0.20369  0.08374  1.0000
  C   C133      1.0  0.02395  0.12495  0.17865  1.0000
  C   C134      1.0  0.99497  0.01551  0.12933  1.0000
  C   C135      1.0  0.35025  0.07209  0.98353  1.0000
  H   H201      1.0  0.10070  0.20005  0.18663  1.0000
  H   H202      1.0  0.05137  0.18071  0.02920  1.0000
  H   H203      1.0  0.14981  0.15037  0.20159  1.0000
  H   H204      1.0  0.26877  0.02383  0.03698  1.0000
  H   H205      1.0  0.39312  0.21640  0.06594  1.0000
  S   S53       1.0  0.99923  0.98439  0.10362  1.0000
  C   C136      1.0  0.44699  0.19295  0.19923  1.0000
  H   H206      1.0  0.05880  0.22045  0.19709  1.0000
  C   C137      1.0  0.27450  0.07470  0.22136  1.0000
  C   C138      1.0  0.25819  0.01010  0.02067  1.0000
  N   N14       1.0  0.35092  0.20589  0.16872  1.0000
  H   H207      1.0  0.43860  0.13821  0.98337  1.0000
  Fe  Fe26      1.0  0.23213  0.99773  0.10943  1.0000
  C   C139      1.0  0.06911  0.21132  0.19330  1.0000
  H   H208      1.0  0.44031  0.20527  0.19675  1.0000
  S   S54       1.0  0.41130  0.11751  0.98306  1.0000
  C   C140      1.0  0.04244  0.10710  0.16354  1.0000
  H   H209      1.0  0.00488  0.01329  0.10549  1.0000
  H   H210      1.0  0.39371  0.18406  0.04809  1.0000
  S   S55       1.0  0.40743  0.22774  0.18976  1.0000
  S   S56       1.0  0.13893  0.18076  0.21065  1.0000
  H   H211      1.0  0.19813  0.17212  0.13952  1.0000
  H   H212      1.0  0.16714  0.98197  0.97979  1.0000
  C   C141      1.0  0.41481  0.19122  0.05888  1.0000
  H   H213      1.0  0.99518  0.09822  0.21515  1.0000
  H   H214      1.0  0.35160  0.21694  0.14463  1.0000
  N   N15       1.0  0.03148  0.12253  0.16271  1.0000
  H   H215      1.0  0.39010  0.20491  0.04543  1.0000
  Fe  Fe27      1.0  0.39081  0.21735  0.18407  1.0000
  H   H216      1.0  0.40259  0.17531  0.08738  1.0000
  H   H217      1.0  0.05512  0.17855  0.00944  1.0000
  H   H218      1.0  0.24917  0.04890  0.21352  1.0000
  H   H219      1.0  0.12115  0.03200  0.99189  1.0000
  H   H220      1.0  0.45650  0.16345  0.19519  1.0000
  H   H221      1.0  0.35458  0.21798  0.18397  1.0000
  H   H222      1.0  0.21405  0.16777  0.11387  1.0000
  S   S57       1.0  0.34160  0.01925  0.99199  1.0000
  C   C142      1.0  0.04017  0.13491  0.15408  1.0000
  H   H223      1.0  0.41561  0.17640  0.21676  1.0000
  H   H224      1.0  0.14538  0.01401  0.98255  1.0000
  C   C143      1.0  0.20098  0.19759  0.11646  1.0000
  H   H225      1.0  0.24817  0.02531  0.04384  1.0000
  H   H226      1.0  0.37058  0.19287  0.15482  1.0000
  C   C144      1.0  0.99913  0.00784  0.11694  1.0000
  C   C145      1.0  0.02144  0.08878  0.12595  1.0000
  H   H227      1.0  0.26977  0.00336  0.02307  1.0000
  S   S58       1.0  0.00698  0.08089  0.10750  1.0000
  H   H228      1.0  0.38721  0.21163  0.21898  1.0000
  H   H229      1.0  0.32806  0.20220  0.17113  1.0000
  C   C146      1.0  0.00086  0.07876  0.18080  1.0000
  C   C147      1.0  0.01187  0.08563  0.19857  1.0000
  C   C148      1.0  0.99546  0.99334  0.11930  1.0000
  H   H230      1.0  0.39587  0.21166  0.13463  1.0000
  H   H231      1.0  0.23938  0.04833  0.01431  1.0000
  H   H232      1.0  0.07915  0.18364  0.99083  1.0000
  H   H233      1.0  0.02545  0.07309  0.18065  1.0000
  C   C149      1.0  0.36731  0.19707  0.16583  1.0000
  H   H234      1.0  0.33460  0.21715  0.18647  1.0000
  H   H235      1.0  0.99774  0.02674  0.12745  1.0000
  C   C150      1.0  0.18096  0.99829  0.08251  1.0000
  H   H236      1.0  0.45172  0.19129  0.20965  1.0000
  H   H237      1.0  0.35492  0.22295  0.10470  1.0000
  C   C151      1.0  0.07459  0.22659  0.16697  1.0000
  H   H238      1.0  0.18198  0.15339  0.18142  1.0000
  C   C152      1.0  0.35094  0.08508  0.98846  1.0000
  H   H239      1.0  0.34092  0.09047  0.99629  1.0000
  C   C153      1.0  0.12933  0.21944  0.16835  1.0000
  H   H240      1.0  0.23137  0.03151  0.02471  1.0000
  S   S59       1.0  0.02804  0.08624  0.20490  1.0000
  H   H241      1.0  0.34332  0.19228  0.15770  1.0000
  C   C154      1.0  0.38691  0.21417  0.12819  1.0000
  Fe  Fe28      1.0  0.31813  0.01525  0.99315  1.0000
  C   C155      1.0  0.47468  0.22027  0.16339  1.0000
  H   H242      1.0  0.08507  0.21322  0.97771  1.0000
  H   H243      1.0  0.34845  0.20010  0.19360  1.0000
  H   H244      1.0  0.99729  0.17578  0.22037  1.0000
  S   S60       1.0  0.44706  0.21605  0.16080  1.0000
  H   H245      1.0  0.48031  0.21273  0.15522  1.0000
  H   H246      1.0  0.27802  0.99152  0.06623  1.0000
  Fe  Fe29      1.0  0.98948  0.07232  0.12869  1.0000
  H   H247      1.0  0.11934  0.00831  0.98526  1.0000
  H   H248      1.0  0.12618  0.98154  0.01689  1.0000
  C   C156      1.0  0.47616  0.14166  0.97814  1.0000
  H   H249      1.0  0.43911  0.15697  0.20685  1.0000
  C   C157      1.0  0.37743  0.08431  0.97306  1.0000
  H   H250      1.0  0.41662  0.19649  0.21273  1.0000
  C   C158      1.0  0.08587  0.22956  0.18654  1.0000
  H   H251      1.0  0.03352  0.04989  0.21990  1.0000
  H   H252      1.0  0.33684  0.22720  0.15806  1.0000
  H   H253      1.0  0.35697  0.22765  0.15528  1.0000
  C   C159      1.0  0.11956  0.01493  0.97303  1.0000
  C   C160      1.0  0.15538  0.98010  0.98445  1.0000
  S   S61       1.0  0.39855  0.15585  0.97251  1.0000
  H   H254      1.0  0.28027  0.22251  0.42250  1.0000
  H   H255      1.0  0.23884  0.22038  0.42775  1.0000
  H   H256      1.0  0.43814  0.99183  0.41060  1.0000
  H   H257      1.0  0.19539  0.22594  0.37219  1.0000
  C   C161      1.0  0.10400  0.13152  0.28801  1.0000
  H   H258      1.0  0.38076  0.07836  0.30445  1.0000
  H   H259      1.0  0.25991  0.21436  0.39683  1.0000
  Fe  Fe30      1.0  0.46897  0.08856  0.34478  1.0000
  S   S62       1.0  0.44859  0.10676  0.33705  1.0000
  S   S63       1.0  0.46758  0.07315  0.36886  1.0000
  Fe  Fe31      1.0  0.37549  0.15177  0.28133  1.0000
  S   S64       1.0  0.38148  0.13013  0.27183  1.0000
  S   S65       1.0  0.38242  0.17478  0.26955  1.0000
  Fe  Fe32      1.0  0.35810  0.13657  0.31278  1.0000
  S   S66       1.0  0.36229  0.11370  0.30609  1.0000
  S   S67       1.0  0.34798  0.14039  0.33709  1.0000
  Fe  Fe33      1.0  0.38666  0.11719  0.29518  1.0000
  S   S68       1.0  0.40611  0.09590  0.29914  1.0000
  Fe  Fe34      1.0  0.35662  0.12842  0.28344  1.0000
  S   S69       1.0  0.34251  0.12320  0.26957  1.0000
  S   S70       1.0  0.38286  0.13896  0.30370  1.0000
  S   S71       1.0  0.35024  0.15120  0.29108  1.0000
  Fe  Fe35      1.0  0.17569  0.10805  0.35126  1.0000
  S   S72       1.0  0.16157  0.11416  0.37382  1.0000
  S   S73       1.0  0.19225  0.08462  0.35074  1.0000
  Fe  Fe36      1.0  0.16100  0.13859  0.33234  1.0000
  S   S74       1.0  0.14531  0.14761  0.35321  1.0000
  S   S75       1.0  0.16320  0.15027  0.30700  1.0000
  Fe  Fe37      1.0  0.16652  0.13808  0.36361  1.0000
  S   S76       1.0  0.17397  0.14820  0.37957  1.0000
  Fe  Fe38      1.0  0.14153  0.12308  0.36195  1.0000
  S   S77       1.0  0.11909  0.11677  0.37674  1.0000
  S   S78       1.0  0.18266  0.13115  0.34196  1.0000
  S   S79       1.0  0.15518  0.11490  0.34015  1.0000
  H   H260      1.0  0.20921  0.19256  0.38409  1.0000
  H   H261      1.0  0.26417  0.21490  0.43582  1.0000
  H   H262      1.0  0.43480  0.16446  0.43977  1.0000
  C   C162      1.0  0.32867  0.22628  0.41055  1.0000
  Fe  Fe39      1.0  0.10412  0.03940  0.37577  1.0000
  S   S80       1.0  0.12467  0.02398  0.38506  1.0000
  S   S81       1.0  0.10601  0.06132  0.35703  1.0000
  Fe  Fe40      1.0  0.08330  0.01668  0.39380  1.0000
  H   H263      1.0  0.18021  0.14316  0.22405  1.0000
  S   S82       1.0  0.05874  0.01392  0.39647  1.0000
  Fe  Fe41      1.0  0.10780  0.02070  0.40836  1.0000
  S   S83       1.0  0.11873  0.02221  0.42727  1.0000
  Fe  Fe42      1.0  0.00041  0.00620  0.31974  1.0000
  S   S84       1.0  0.08754  0.03769  0.39911  1.0000
  S   S85       1.0  0.09837  0.01985  0.36973  1.0000
  H   H264      1.0  0.04458  0.17420  0.22478  1.0000
  Fe  Fe43      1.0  0.29560  0.05996  0.28357  1.0000
  S   S86       1.0  0.28275  0.07831  0.26685  1.0000
  S   S87       1.0  0.31054  0.06509  0.29669  1.0000
  Fe  Fe44      1.0  0.27893  0.03526  0.28373  1.0000
  S   S88       1.0  0.26421  0.05180  0.26757  1.0000
  S   S89       1.0  0.27571  0.01060  0.29426  1.0000
  Fe  Fe45      1.0  0.28646  0.05934  0.25427  1.0000
  Fe  Fe46      1.0  0.26157  0.06939  0.28146  1.0000
  S   S90       1.0  0.24022  0.08854  0.28554  1.0000
  S   S91       1.0  0.30160  0.04149  0.26954  1.0000
  S   S92       1.0  0.27408  0.05218  0.29908  1.0000
  Fe  Fe47      1.0  0.11767  0.18504  0.22986  1.0000
  H   H265      1.0  0.00203  0.05818  0.25423  1.0000
  H   H266      1.0  0.47734  0.03714  0.33375  1.0000
  S   S93       1.0  0.32018  0.22489  0.34928  1.0000
  C   C163      1.0  0.44549  0.19833  0.45919  1.0000
  H   H267      1.0  0.26233  0.08120  0.24323  1.0000
  H   H268      1.0  0.20147  0.18417  0.35668  1.0000
  C   C164      1.0  0.99981  0.06919  0.28389  1.0000
  C   C165      1.0  0.17968  0.20884  0.36486  1.0000
  C   C166      1.0  0.05099  0.99601  0.35777  1.0000
  N   N16       1.0  0.02520  0.04628  0.24475  1.0000
  S   S94       1.0  0.10787  0.20716  0.23889  1.0000
  H   H269      1.0  0.12563  0.14339  0.30541  1.0000
  H   H270      1.0  0.32726  0.21681  0.28573  1.0000
  S   S95       1.0  0.07859  0.19090  0.26008  1.0000
  C   C167      1.0  0.06635  0.14929  0.25005  1.0000
  C   C168      1.0  0.17812  0.22112  0.46902  1.0000
  Fe  Fe48      1.0  0.10228  0.19111  0.26222  1.0000
  S   S96       1.0  0.10291  0.19443  0.28542  1.0000
  C   C169      1.0  0.02103  0.05304  0.29597  1.0000
  S   S97       1.0  0.11431  0.16912  0.25355  1.0000
  C   C170      1.0  0.37323  0.07366  0.30002  1.0000
  H   H271      1.0  0.05333  0.22638  0.29531  1.0000
  C   C171      1.0  0.06852  0.99864  0.37217  1.0000
  S   S98       1.0  0.48381  0.02902  0.36481  1.0000
  H   H272      1.0  0.45928  0.98593  0.43367  1.0000
  C   C172      1.0  0.35788  0.21151  0.28475  1.0000
  H   H273      1.0  0.46720  0.20186  0.44330  1.0000
  C   C173      1.0  0.39505  0.06415  0.28051  1.0000
  Fe  Fe49      1.0  0.15685  0.22839  0.43862  1.0000
  H   H274      1.0  0.29119  0.99772  0.24276  1.0000
  H   H275      1.0  0.33474  0.22672  0.30462  1.0000
  Fe  Fe50      1.0  0.01718  0.09832  0.25743  1.0000
  H   H276      1.0  0.17837  0.21620  0.35319  1.0000
  C   C174      1.0  0.24411  0.04527  0.22620  1.0000
  C   C175      1.0  0.28530  0.99457  0.25483  1.0000
  C   C176      1.0  0.28447  0.00358  0.26533  1.0000
  C   C177      1.0  0.27706  0.99940  0.28097  1.0000
  C   C178      1.0  0.48043  0.13054  0.39118  1.0000
  C   C179      1.0  0.05961  0.13638  0.25350  1.0000
  H   H277      1.0  0.28963  0.01371  0.26137  1.0000
  H   H278      1.0  0.01930  0.03759  0.26952  1.0000
  S   S99       1.0  0.47434  0.14332  0.45426  1.0000
  C   C180      1.0  0.05584  0.00616  0.38211  1.0000
  C   C181      1.0  0.48587  0.13109  0.40388  1.0000
  H   H279      1.0  0.45678  0.19565  0.41974  1.0000
  C   C182      1.0  0.27073  0.98604  0.28612  1.0000
  C   C183      1.0  0.04065  0.00816  0.38012  1.0000
  H   H280      1.0  0.24210  0.05555  0.23139  1.0000
  H   H281      1.0  0.18934  0.20165  0.39124  1.0000
  H   H282      1.0  0.24520  0.03696  0.25644  1.0000
  H   H283      1.0  0.46646  0.00357  0.42521  1.0000
  S   S100      1.0  0.08181  0.14812  0.25847  1.0000
  H   H284      1.0  0.46571  0.18092  0.40854  1.0000
  H   H285      1.0  0.17503  0.19830  0.36659  1.0000
  C   C184      1.0  0.09294  0.02498  0.45192  1.0000
  C   C185      1.0  0.10874  0.02534  0.44608  1.0000
  H   H286      1.0  0.44992  0.16471  0.40512  1.0000
  H   H287      1.0  0.21449  0.21590  0.36423  1.0000
  C   C186      1.0  0.26174  0.08200  0.23141  1.0000
  H   H288      1.0  0.08638  0.02314  0.44468  1.0000
  H   H289      1.0  0.07606  0.98804  0.35227  1.0000
  C   C187      1.0  0.11992  0.18292  0.29143  1.0000
  C   C188      1.0  0.12017  0.17855  0.30730  1.0000
  C   C189      1.0  0.13346  0.16855  0.31225  1.0000
  C   C190      1.0  0.14659  0.16318  0.30129  1.0000
  C   C191      1.0  0.14641  0.16783  0.28542  1.0000
  C   C192      1.0  0.13305  0.17758  0.28050  1.0000
  H   H290      1.0  0.11002  0.18271  0.31578  1.0000
  H   H291      1.0  0.13357  0.16506  0.32451  1.0000
  H   H292      1.0  0.15660  0.16375  0.27692  1.0000
  H   H293      1.0  0.13302  0.18111  0.26822  1.0000
  C   C193      1.0  0.16384  0.16627  0.38438  1.0000
  C   C194      1.0  0.16780  0.17078  0.39594  1.0000
  C   C195      1.0  0.16031  0.18527  0.39989  1.0000
  C   C196      1.0  0.14865  0.19528  0.39244  1.0000
  C   C197      1.0  0.14436  0.19059  0.38118  1.0000
  C   C198      1.0  0.15202  0.17616  0.37705  1.0000
  H   H294      1.0  0.17680  0.16309  0.40178  1.0000
  H   H295      1.0  0.16355  0.18866  0.40873  1.0000
  H   H296      1.0  0.13536  0.19832  0.37535  1.0000
  H   H297      1.0  0.14895  0.17282  0.36805  1.0000
  C   C199      1.0  0.20541  0.08522  0.33252  1.0000
  C   C200      1.0  0.21808  0.07262  0.33003  1.0000
  C   C201      1.0  0.22875  0.07331  0.31553  1.0000
  C   C202      1.0  0.22675  0.08663  0.30355  1.0000
  C   C203      1.0  0.21400  0.09910  0.30604  1.0000
  C   C204      1.0  0.20335  0.09840  0.32046  1.0000
  H   H298      1.0  0.21967  0.06236  0.33931  1.0000
  H   H299      1.0  0.23849  0.06356  0.31364  1.0000
  H   H300      1.0  0.21234  0.10939  0.29680  1.0000
  H   H301      1.0  0.19348  0.10806  0.32216  1.0000
  C   C205      1.0  0.11487  0.10168  0.37128  1.0000
  C   C206      1.0  0.10933  0.08948  0.38274  1.0000
  C   C207      1.0  0.10665  0.07697  0.37848  1.0000
  C   C208      1.0  0.10913  0.07685  0.36274  1.0000
  C   C209      1.0  0.11442  0.08918  0.35127  1.0000
  C   C210      1.0  0.11743  0.10150  0.35553  1.0000
  H   H302      1.0  0.10734  0.08955  0.39494  1.0000
  H   H303      1.0  0.10255  0.06749  0.38739  1.0000
  H   H304      1.0  0.11643  0.08906  0.33909  1.0000
  H   H305      1.0  0.12166  0.11091  0.34664  1.0000
  C   C211      1.0  0.33310  0.15733  0.33662  1.0000
  C   C212      1.0  0.33126  0.16752  0.34629  1.0000
  C   C213      1.0  0.32048  0.18195  0.34463  1.0000
  C   C214      1.0  0.31142  0.18599  0.33350  1.0000
  C   C215      1.0  0.31283  0.17551  0.32433  1.0000
  C   C216      1.0  0.32373  0.16125  0.32581  1.0000
  H   H306      1.0  0.33849  0.16449  0.35469  1.0000
  H   H307      1.0  0.31934  0.18999  0.35180  1.0000
  H   H308      1.0  0.30572  0.17857  0.31581  1.0000
  H   H309      1.0  0.32485  0.15326  0.31859  1.0000
  C   C217      1.0  0.33302  0.10749  0.27747  1.0000
  C   C218      1.0  0.33238  0.09931  0.29292  1.0000
  C   C219      1.0  0.32542  0.08633  0.29869  1.0000
  C   C220      1.0  0.31886  0.08160  0.28911  1.0000
  C   C221      1.0  0.31919  0.08997  0.27376  1.0000
  C   C222      1.0  0.32629  0.10286  0.26796  1.0000
  H   H310      1.0  0.33720  0.10301  0.30044  1.0000
  H   H311      1.0  0.32507  0.07995  0.31062  1.0000
  H   H312      1.0  0.31422  0.08635  0.26628  1.0000
  H   H313      1.0  0.32673  0.10917  0.25599  1.0000
  C   C223      1.0  0.38148  0.18104  0.24983  1.0000
  S   S101      1.0  0.09523  0.18400  0.22521  1.0000
  H   H314      1.0  0.37436  0.16075  0.24903  1.0000
  C   C224      1.0  0.42708  0.19371  0.42342  1.0000
  C   C225      1.0  0.43914  0.10320  0.32453  1.0000
  C   C226      1.0  0.43045  0.11601  0.31573  1.0000
  C   C227      1.0  0.42095  0.11375  0.30728  1.0000
  C   C228      1.0  0.41982  0.09866  0.30779  1.0000
  C   C229      1.0  0.42894  0.08577  0.31613  1.0000
  C   C230      1.0  0.43863  0.08803  0.32448  1.0000
  H   H315      1.0  0.43093  0.12776  0.31562  1.0000
  H   H316      1.0  0.41449  0.12372  0.30040  1.0000
  H   H317      1.0  0.42817  0.07405  0.31652  1.0000
  H   H318      1.0  0.44522  0.07808  0.33135  1.0000
  H   H319      1.0  0.23841  0.09627  0.23399  1.0000
  Fe  Fe51      1.0  0.99001  0.11733  0.24233  1.0000
  Fe  Fe52      1.0  0.01938  0.10021  0.22346  1.0000
  C   C231      1.0  0.43170  0.22637  0.44115  1.0000
  H   H320      1.0  0.06574  0.17309  0.23731  1.0000
  H   H321      1.0  0.32344  0.20008  0.30070  1.0000
  C   C232      1.0  0.38456  0.20048  0.22546  1.0000
  Fe  Fe53      1.0  0.47534  0.16627  0.45779  1.0000
  H   H322      1.0  0.03077  0.01387  0.38785  1.0000
  H   H323      1.0  0.02651  0.00496  0.36633  1.0000
  C   C233      1.0  0.04874  0.16364  0.23280  1.0000
  H   H324      1.0  0.99342  0.15662  0.22769  1.0000
  C   C234      1.0  0.45820  0.99695  0.42452  1.0000
  Fe  Fe54      1.0  0.29931  0.22128  0.34356  1.0000
  H   H325      1.0  0.45502  0.22673  0.42738  1.0000
  N   N17       1.0  0.34597  0.20488  0.29756  1.0000
  H   H326      1.0  0.19367  0.18393  0.38449  1.0000
  S   S102      1.0  0.13976  0.21391  0.39650  1.0000
  H   H327      1.0  0.15095  0.03906  0.38895  1.0000
  H   H328      1.0  0.00226  0.17592  0.24514  1.0000
  H   H329      1.0  0.26215  0.20263  0.41568  1.0000
  S   S103      1.0  0.02742  0.15145  0.22689  1.0000
  C   C235      1.0  0.09680  0.15414  0.29935  1.0000
  C   C236      1.0  0.02558  0.03332  0.25866  1.0000
  N   N18       1.0  0.25461  0.03152  0.23376  1.0000
  H   H330      1.0  0.42431  0.20275  0.41297  1.0000
  H   H331      1.0  0.40315  0.06846  0.28462  1.0000
  H   H332      1.0  0.02832  0.03136  0.22914  1.0000
  H   H333      1.0  0.35718  0.18109  0.29605  1.0000
  H   H334      1.0  0.12679  0.14638  0.28498  1.0000
  H   H335      1.0  0.45262  0.19838  0.40103  1.0000
  S   S104      1.0  0.98986  0.98530  0.32630  1.0000
  S   S105      1.0  0.48298  0.14922  0.40878  1.0000
  C   C237      1.0  0.00879  0.05351  0.24370  1.0000
  H   H336      1.0  0.01985  0.02423  0.25821  1.0000
  H   H337      1.0  0.24604  0.01495  0.22751  1.0000
  C   C238      1.0  0.04219  0.15063  0.23605  1.0000
  H   H338      1.0  0.09148  0.13129  0.28987  1.0000
  C   C239      1.0  0.25721  0.01821  0.22644  1.0000
  N   N19       1.0  0.15783  0.05641  0.36856  1.0000
  C   C240      1.0  0.17473  0.04978  0.36744  1.0000
  C   C241      1.0  0.15221  0.05032  0.35827  1.0000
  C   C242      1.0  0.15517  0.07362  0.36368  1.0000
  C   C243      1.0  0.14919  0.05199  0.38483  1.0000
  H   H339      1.0  0.17936  0.05428  0.37496  1.0000
  H   H340      1.0  0.18155  0.05307  0.35531  1.0000
  H   H341      1.0  0.17726  0.03680  0.37101  1.0000
  H   H342      1.0  0.13948  0.05508  0.35887  1.0000
  H   H343      1.0  0.15838  0.05352  0.34588  1.0000
  H   H344      1.0  0.15403  0.03735  0.36162  1.0000
  H   H345      1.0  0.15946  0.07863  0.37104  1.0000
  H   H346      1.0  0.14257  0.07904  0.36453  1.0000
  H   H347      1.0  0.16139  0.07739  0.35140  1.0000
  H   H348      1.0  0.15299  0.05650  0.39293  1.0000
  H   H349      1.0  0.17200  0.21557  0.37371  1.0000
  H   H350      1.0  0.05677  0.22190  0.27655  1.0000
  H   H351      1.0  0.00275  0.04492  0.24272  1.0000
  S   S106      1.0  0.98897  0.02720  0.30405  1.0000
  N   N20       1.0  0.19613  0.20448  0.36633  1.0000
  C   C244      1.0  0.48280  0.11627  0.38686  1.0000
  H   H352      1.0  0.41676  0.18835  0.42905  1.0000
  S   S107      1.0  0.29137  0.06373  0.22808  1.0000
  C   C245      1.0  0.11710  0.02779  0.45562  1.0000
  H   H353      1.0  0.07096  0.21307  0.28835  1.0000
  C   C246      1.0  0.99304  0.16914  0.25127  1.0000
  C   C247      1.0  0.04751  0.13706  0.24655  1.0000
  C   C248      1.0  0.20569  0.19502  0.35484  1.0000
  Fe  Fe55      1.0  0.09091  0.17007  0.24976  1.0000
  C   C249      1.0  0.42940  0.20442  0.46318  1.0000
  H   H354      1.0  0.04504  0.05299  0.24720  1.0000
  C   C250      1.0  0.98792  0.16927  0.22679  1.0000
  C   C251      1.0  0.08567  0.02684  0.46724  1.0000
  H   H355      1.0  0.23610  0.02390  0.25239  1.0000
  S   S108      1.0  0.20867  0.21615  0.40149  1.0000
  H   H356      1.0  0.34992  0.21485  0.31446  1.0000
  H   H357      1.0  0.25514  0.01698  0.25667  1.0000
  H   H358      1.0  0.12929  0.02823  0.45112  1.0000
  H   H359      1.0  0.20115  0.22628  0.35171  1.0000
  C   C252      1.0  0.03368  0.04028  0.23056  1.0000
  H   H360      1.0  0.36224  0.20464  0.27547  1.0000
  C   C253      1.0  0.27860  0.98146  0.25989  1.0000
  H   H361      1.0  0.36310  0.18822  0.30937  1.0000
  H   H362      1.0  0.38331  0.09102  0.26174  1.0000
  H   H363      1.0  0.36115  0.08086  0.30248  1.0000
  H   H364      1.0  0.10731  0.13862  0.27605  1.0000
  S   S109      1.0  0.04880  0.99094  0.34139  1.0000
  H   H365      1.0  0.03238  0.05146  0.29834  1.0000
  C   C254      1.0  0.34028  0.21445  0.30950  1.0000
  H   H366      1.0  0.10407  0.13297  0.32472  1.0000
  H   H367      1.0  0.37298  0.06157  0.30694  1.0000
  H   H368      1.0  0.44680  0.17590  0.44194  1.0000
  H   H369      1.0  0.38747  0.09498  0.27810  1.0000
  H   H370      1.0  0.44826  0.01607  0.39937  1.0000
  C   C255      1.0  0.48033  0.01510  0.32762  1.0000
  C   C256      1.0  0.32553  0.22641  0.39638  1.0000
  H   H371      1.0  0.33133  0.20967  0.31935  1.0000
  H   H372      1.0  0.42938  0.16766  0.41375  1.0000
  C   C257      1.0  0.48356  0.99872  0.33248  1.0000
  H   H373      1.0  0.18239  0.22110  0.45675  1.0000
  C   C258      1.0  0.42247  0.21834  0.45408  1.0000
  H   H374      1.0  0.11098  0.11938  0.28816  1.0000
  Fe  Fe56      1.0  0.11742  0.00411  0.38119  1.0000
  C   C259      1.0  0.06611  0.99363  0.36003  1.0000
  Fe  Fe57      1.0  0.30385  0.22888  0.37200  1.0000
  H   H375      1.0  0.47786  0.02047  0.31619  1.0000
  C   C260      1.0  0.37939  0.09020  0.27453  1.0000
  H   H376      1.0  0.11865  0.99341  0.46904  1.0000
  C   C261      1.0  0.35296  0.18869  0.30468  1.0000
  S   S110      1.0  0.14875  0.22335  0.46482  1.0000
  H   H377      1.0  0.27822  0.21038  0.40246  1.0000
  S   S111      1.0  0.48401  0.06969  0.33225  1.0000
  H   H378      1.0  0.09847  0.15958  0.30805  1.0000
  Fe  Fe58      1.0  0.02554  0.99004  0.33794  1.0000
  H   H379      1.0  0.36763  0.09804  0.27664  1.0000
  H   H380      1.0  0.26816  0.04527  0.23756  1.0000
  C   C262      1.0  0.24744  0.02717  0.25053  1.0000
  H   H381      1.0  0.47853  0.11594  0.37709  1.0000
  H   H382      1.0  0.10952  0.11611  0.31634  1.0000
  C   C263      1.0  0.36860  0.06793  0.27771  1.0000
  H   H383      1.0  0.08023  0.99669  0.37380  1.0000
  H   H384      1.0  0.08416  0.15420  0.30166  1.0000
  H   H385      1.0  0.35651  0.07530  0.27932  1.0000
  S   S112      1.0  0.16805  0.21011  0.42437  1.0000
  H   H386      1.0  0.46245  0.00638  0.38513  1.0000
  Fe  Fe59      1.0  0.18346  0.22672  0.41031  1.0000
  N   N21       1.0  0.37906  0.07397  0.28318  1.0000
  H   H387      1.0  0.39528  0.05179  0.28683  1.0000
  C   C264      1.0  0.10229  0.12824  0.31551  1.0000
  H   H388      1.0  0.08982  0.12750  0.31838  1.0000
  C   C265      1.0  0.46014  0.00846  0.39707  1.0000
  H   H389      1.0  0.37273  0.06784  0.26508  1.0000
  S   S113      1.0  0.10211  0.99940  0.40514  1.0000
  N   N22       1.0  0.10658  0.13815  0.29985  1.0000
  H   H390      1.0  0.13102  0.12691  0.29656  1.0000
  C   C266      1.0  0.20204  0.21878  0.36343  1.0000
  H   H391      1.0  0.39990  0.06424  0.26790  1.0000
  S   S114      1.0  0.00244  0.09219  0.24518  1.0000
  N   N23       1.0  0.26686  0.10068  0.31004  1.0000
  C   C267      1.0  0.26589  0.08411  0.31598  1.0000
  C   C268      1.0  0.27724  0.10422  0.31777  1.0000
  C   C269      1.0  0.25105  0.11072  0.31332  1.0000
  C   C270      1.0  0.27330  0.10354  0.29305  1.0000
  H   H392      1.0  0.27763  0.07615  0.31385  1.0000
  H   H393      1.0  0.25836  0.08102  0.31017  1.0000
  H   H394      1.0  0.26080  0.08151  0.32872  1.0000
  H   H395      1.0  0.27829  0.11664  0.31356  1.0000
  H   H396      1.0  0.27280  0.10208  0.33063  1.0000
  H   H397      1.0  0.28925  0.09677  0.31539  1.0000
  H   H398      1.0  0.24567  0.10868  0.32602  1.0000
  H   H399      1.0  0.24305  0.10830  0.30749  1.0000
  H   H400      1.0  0.25128  0.12334  0.30905  1.0000
  H   H401      1.0  0.27461  0.11582  0.28818  1.0000
  H   H402      1.0  0.26555  0.10132  0.28682  1.0000
  H   H403      1.0  0.28502  0.09576  0.29014  1.0000
  N   N24       1.0  0.12802  0.14017  0.40938  1.0000
  C   C271      1.0  0.12953  0.14752  0.39265  1.0000
  C   C272      1.0  0.11137  0.14335  0.41740  1.0000
  C   C273      1.0  0.13706  0.14672  0.41610  1.0000
  C   C274      1.0  0.13414  0.12310  0.41126  1.0000
  H   H404      1.0  0.14195  0.14524  0.38631  1.0000
  H   H405      1.0  0.12517  0.16043  0.39070  1.0000
  H   H406      1.0  0.12289  0.14287  0.38713  1.0000
  H   H407      1.0  0.10974  0.13793  0.43008  1.0000
  H   H408      1.0  0.10639  0.15614  0.41616  1.0000
  H   H409      1.0  0.10430  0.13855  0.41249  1.0000
  H   H410      1.0  0.13314  0.15968  0.41439  1.0000
  H   H411      1.0  0.14974  0.14417  0.41047  1.0000
  H   H412      1.0  0.13594  0.14172  0.42881  1.0000
  H   H413      1.0  0.13284  0.11706  0.42375  1.0000
  H   H414      1.0  0.14679  0.12033  0.40561  1.0000
  H   H415      1.0  0.12793  0.11787  0.40581  1.0000
  H   H416      1.0  0.34434  0.18336  0.31443  1.0000
  H   H417      1.0  0.13638  0.05675  0.38601  1.0000
  S   S115      1.0  0.29915  0.20451  0.32983  1.0000
  H   H418      1.0  0.36779  0.05580  0.28419  1.0000
  C   C275      1.0  0.12322  0.13871  0.29654  1.0000
  S   S116      1.0  0.48467  0.98728  0.31936  1.0000
  C   C276      1.0  0.37729  0.17178  0.24251  1.0000
  Fe  Fe60      1.0  0.08510  0.20496  0.23590  1.0000
  H   H419      1.0  0.35309  0.22380  0.27923  1.0000
  Fe  Fe61      1.0  0.01982  0.12868  0.23395  1.0000
  C   C277      1.0  0.38505  0.19543  0.24131  1.0000
  H   H420      1.0  0.09976  0.16193  0.28771  1.0000
  H   H421      1.0  0.99441  0.08026  0.27745  1.0000
  H   H422      1.0  0.42834  0.19990  0.43173  1.0000
  S   S117      1.0  0.28395  0.22261  0.36717  1.0000
  C   C278      1.0  0.03274  0.05808  0.24607  1.0000
  H   H423      1.0  0.45524  0.16101  0.43084  1.0000
  N   N25       1.0  0.06203  0.04857  0.34750  1.0000
  C   C279      1.0  0.04911  0.05900  0.34036  1.0000
  C   C280      1.0  0.06579  0.03318  0.34340  1.0000
  C   C281      1.0  0.05723  0.04661  0.36462  1.0000
  C   C282      1.0  0.07598  0.05546  0.34163  1.0000
  H   H424      1.0  0.04599  0.07075  0.34316  1.0000
  H   H425      1.0  0.03842  0.05409  0.34463  1.0000
  H   H426      1.0  0.05227  0.06065  0.32744  1.0000
  H   H427      1.0  0.07542  0.02496  0.34869  1.0000
  H   H428      1.0  0.05552  0.02764  0.34766  1.0000
  H   H429      1.0  0.06951  0.03414  0.33059  1.0000
  H   H430      1.0  0.06677  0.03898  0.37037  1.0000
  H   H431      1.0  0.04698  0.04105  0.36957  1.0000
  H   H432      1.0  0.05413  0.05797  0.36820  1.0000
  H   H433      1.0  0.07381  0.06683  0.34499  1.0000
  H   H434      1.0  0.07977  0.05744  0.32872  1.0000
  H   H435      1.0  0.08605  0.04765  0.34651  1.0000
  C   C283      1.0  0.45475  0.20641  0.44633  1.0000
  H   H436      1.0  0.43674  0.18206  0.39751  1.0000
  C   C284      1.0  0.44787  0.22050  0.43738  1.0000
  H   H437      1.0  0.09175  0.22346  0.26663  1.0000
  H   H438      1.0  0.23770  0.21166  0.37959  1.0000
  H   H439      1.0  0.36818  0.21145  0.28899  1.0000
  H   H440      1.0  0.01820  0.02982  0.30856  1.0000
  H   H441      1.0  0.04237  0.12704  0.24930  1.0000
  H   H442      1.0  0.06382  0.12579  0.26147  1.0000
  C   C285      1.0  0.01304  0.04080  0.30170  1.0000
  S   S118      1.0  0.00310  0.12285  0.25674  1.0000
  H   H443      1.0  0.23252  0.04281  0.22743  1.0000
  H   H444      1.0  0.16518  0.13234  0.22896  1.0000
  N   N26       1.0  0.46158  0.99362  0.40888  1.0000
  C   C286      1.0  0.03822  0.00311  0.36797  1.0000
  S   S119      1.0  0.02526  0.08179  0.27837  1.0000
  C   C287      1.0  0.26528  0.21302  0.40677  1.0000
  C   C288      1.0  0.19713  0.19523  0.38221  1.0000
  C   C289      1.0  0.01450  0.06718  0.28688  1.0000
  H   H445      1.0  0.33658  0.19743  0.28248  1.0000
  C   C290      1.0  0.06078  0.16300  0.23983  1.0000
  S   S120      1.0  0.03520  0.10458  0.23573  1.0000
  C   C291      1.0  0.23391  0.22399  0.37969  1.0000
  H   H446      1.0  0.03286  0.06797  0.23571  1.0000
  H   H447      1.0  0.38819  0.20268  0.24697  1.0000
  S   S121      1.0  0.00170  0.00541  0.34409  1.0000
  N   N27       1.0  0.38869  0.11705  0.35185  1.0000
  C   C292      1.0  0.39099  0.13250  0.34217  1.0000
  C   C293      1.0  0.37554  0.11921  0.36538  1.0000
  C   C294      1.0  0.40308  0.10830  0.35739  1.0000
  C   C295      1.0  0.38515  0.10820  0.34247  1.0000
  H   H448      1.0  0.40067  0.13131  0.33172  1.0000
  H   H449      1.0  0.39393  0.13942  0.34878  1.0000
  H   H450      1.0  0.38026  0.13950  0.33798  1.0000
  H   H451      1.0  0.36450  0.12582  0.36158  1.0000
  H   H452      1.0  0.37339  0.10780  0.37290  1.0000
  H   H453      1.0  0.37780  0.12589  0.37268  1.0000
  H   H454      1.0  0.41317  0.10632  0.34748  1.0000
  H   H455      1.0  0.40179  0.09661  0.36483  1.0000
  H   H456      1.0  0.40635  0.11474  0.36424  1.0000
  H   H457      1.0  0.38344  0.09644  0.34934  1.0000
  H   H458      1.0  0.39477  0.10647  0.33210  1.0000
  H   H459      1.0  0.37434  0.11445  0.33813  1.0000
  N   N28       1.0  0.44141  0.18184  0.41932  1.0000
  C   C296      1.0  0.43924  0.17373  0.40844  1.0000
  C   C297      1.0  0.45470  0.18955  0.41182  1.0000
  C   C298      1.0  0.44469  0.17031  0.43360  1.0000
  H   H460      1.0  0.46864  0.01527  0.39681  1.0000
  H   H461      1.0  0.32068  0.22276  0.42139  1.0000
  H   H462      1.0  0.26495  0.00760  0.23205  1.0000
  H   H463      1.0  0.44614  0.00403  0.42757  1.0000
  H   H464      1.0  0.26497  0.98279  0.29823  1.0000
  H   H465      1.0  0.42747  0.18218  0.22589  1.0000
  C   C299      1.0  0.48016  0.02455  0.33748  1.0000
  C   C300      1.0  0.99192  0.05693  0.28945  1.0000
  H   H466      1.0  0.03775  0.02756  0.25991  1.0000
  S   S122      1.0  0.02487  0.99266  0.31293  1.0000
  C   C301      1.0  0.26970  0.03552  0.23187  1.0000
  C   C302      1.0  0.48348  0.01766  0.35218  1.0000
  S   S123      1.0  0.45372  0.18055  0.47038  1.0000
  H   H467      1.0  0.04613  0.03481  0.23090  1.0000
  H   H468      1.0  0.40998  0.22283  0.45708  1.0000
  Fe  Fe62      1.0  0.15184  0.22404  0.40859  1.0000
  C   C303      1.0  0.99856  0.04269  0.29825  1.0000
  Fe  Fe63      1.0  0.48422  0.05484  0.35637  1.0000
  S   S124      1.0  0.30862  0.22102  0.39610  1.0000
  C   C304      1.0  0.47764  0.98413  0.40545  1.0000
  H   H469      1.0  0.02651  0.06308  0.25649  1.0000
  H   H470      1.0  0.47433  0.14119  0.38467  1.0000
  C   C305      1.0  0.33275  0.20480  0.29130  1.0000
  H   H471      1.0  0.00806  0.06335  0.23331  1.0000
  C   C306      1.0  0.06249  0.22408  0.28477  1.0000
  S   S125      1.0  0.38601  0.22618  0.43475  1.0000
  N   N29       1.0  0.25988  0.22726  0.41321  1.0000
  H   H472      1.0  0.99908  0.15658  0.25277  1.0000
  H   H473      1.0  0.27810  0.02551  0.23718  1.0000
  H   H474      1.0  0.20526  0.20166  0.34271  1.0000
  C   C307      1.0  0.24819  0.09057  0.22615  1.0000
  S   S126      1.0  0.06708  0.22499  0.22630  1.0000
  H   H475      1.0  0.21815  0.19143  0.35574  1.0000
  C   C308      1.0  0.26727  0.22494  0.42635  1.0000
  Fe  Fe64      1.0  0.99309  0.98318  0.35012  1.0000
  S   S127      1.0  0.13543  0.98641  0.36887  1.0000
  C   C309      1.0  0.45035  0.98487  0.40849  1.0000
  H   H476      1.0  0.48046  0.98104  0.39391  1.0000
  C   C310      1.0  0.37696  0.17675  0.22665  1.0000
  C   C311      1.0  0.10981  0.02975  0.47089  1.0000
  H   H477      1.0  0.08681  0.22903  0.29228  1.0000
  H   H478      1.0  0.48241  0.22798  0.46734  1.0000
  C   C312      1.0  0.48664  0.99185  0.34729  1.0000
  H   H479      1.0  0.45290  0.98163  0.39703  1.0000
  C   C313      1.0  0.48673  0.00130  0.35703  1.0000
  H   H480      1.0  0.07349  0.02639  0.47172  1.0000
  C   C314      1.0  0.21960  0.22958  0.38910  1.0000
  H   H481      1.0  0.48645  0.99054  0.40525  1.0000
  H   H482      1.0  0.98815  0.17171  0.26308  1.0000
  H   H483      1.0  0.25417  0.22996  0.36278  1.0000
  H   H484      1.0  0.16063  0.15320  0.22237  1.0000
  H   H485      1.0  0.16666  0.18922  0.54617  1.0000
  S   S128      1.0  0.04606  0.21576  0.68267  1.0000
  N   N30       1.0  0.27031  0.20618  0.58320  1.0000
  H   H486      1.0  0.16543  0.16359  0.64379  1.0000
  H   H487      1.0  0.99384  0.12788  0.69460  1.0000
  S   S129      1.0  0.19632  0.21876  0.50544  1.0000
  S   S130      1.0  0.42786  0.11109  0.59358  1.0000
  S   S131      1.0  0.46605  0.08962  0.56980  1.0000
  Fe  Fe65      1.0  0.36894  0.13984  0.66318  1.0000
  S   S132      1.0  0.35345  0.14086  0.68683  1.0000
  S   S133      1.0  0.38621  0.11697  0.66066  1.0000
  Fe  Fe66      1.0  0.35497  0.17342  0.64991  1.0000
  S   S134      1.0  0.33830  0.17740  0.67240  1.0000
  S   S135      1.0  0.35727  0.19209  0.62796  1.0000
  Fe  Fe67      1.0  0.35880  0.16429  0.68311  1.0000
  S   S136      1.0  0.36341  0.16981  0.70367  1.0000
  Fe  Fe68      1.0  0.33424  0.15371  0.67429  1.0000
  S   S137      1.0  0.31066  0.14768  0.68558  1.0000
  S   S138      1.0  0.37598  0.16225  0.66047  1.0000
  S   S139      1.0  0.34924  0.15077  0.65075  1.0000
  H   H488      1.0  0.16902  0.02706  0.66240  1.0000
  Fe  Fe69      1.0  0.15891  0.08903  0.62562  1.0000
  S   S140      1.0  0.16989  0.08439  0.60181  1.0000
  S   S141      1.0  0.17130  0.07755  0.64531  1.0000
  Fe  Fe70      1.0  0.12948  0.11004  0.61592  1.0000
  S   S142      1.0  0.13798  0.10728  0.59104  1.0000
  S   S143      1.0  0.10656  0.12602  0.62396  1.0000
  Fe  Fe71      1.0  0.14620  0.08179  0.60154  1.0000
  S   S144      1.0  0.14435  0.05969  0.59599  1.0000
  Fe  Fe72      1.0  0.16078  0.11012  0.59353  1.0000
  S   S145      1.0  0.17677  0.12508  0.57656  1.0000
  S   S146      1.0  0.13587  0.08442  0.62630  1.0000
  S   S147      1.0  0.15161  0.11487  0.61747  1.0000
  S   S148      1.0  0.46877  0.11308  0.59011  1.0000
  Fe  Fe73      1.0  0.08738  0.01893  0.55185  1.0000
  S   S149      1.0  0.06791  0.01694  0.57326  1.0000
  Fe  Fe74      1.0  0.11942  0.00415  0.53492  1.0000
  C   C315      1.0  0.18307  0.22007  0.49414  1.0000
  Fe  Fe75      1.0  0.11154  0.03846  0.53596  1.0000
  S   S150      1.0  0.11800  0.05977  0.53851  1.0000
  S   S151      1.0  0.11161  0.01655  0.55467  1.0000
  S   S152      1.0  0.09517  0.00425  0.53400  1.0000
  H   H489      1.0  0.27167  0.09373  0.71070  1.0000
  Fe  Fe76      1.0  0.23905  0.09701  0.66443  1.0000
  S   S153      1.0  0.26207  0.08291  0.65400  1.0000
  S   S154      1.0  0.22242  0.11032  0.64855  1.0000
  Fe  Fe77      1.0  0.24756  0.08979  0.69586  1.0000
  S   S155      1.0  0.27111  0.07490  0.68804  1.0000
  C   C316      1.0  0.06390  0.06127  0.56957  1.0000
  Fe  Fe78      1.0  0.27256  0.09395  0.66640  1.0000
  S   S156      1.0  0.29407  0.10338  0.65350  1.0000
  Fe  Fe79      1.0  0.25836  0.06519  0.67645  1.0000
  S   S157      1.0  0.26451  0.03938  0.67667  1.0000
  S   S158      1.0  0.24988  0.10964  0.67501  1.0000
  S   S159      1.0  0.23456  0.07845  0.68613  1.0000
  H   H490      1.0  0.44001  0.10333  0.64511  1.0000
  H   H491      1.0  0.44420  0.02343  0.59937  1.0000
  S   S160      1.0  0.22327  0.00865  0.65381  1.0000
  H   H492      1.0  0.48366  0.98671  0.63092  1.0000
  H   H493      1.0  0.13246  0.99460  0.50294  1.0000
  H   H494      1.0  0.13746  0.14648  0.62475  1.0000
  H   H495      1.0  0.25849  0.21593  0.56425  1.0000
  Fe  Fe80      1.0  0.22810  0.98261  0.66395  1.0000
  H   H496      1.0  0.15328  0.12820  0.64296  1.0000
  H   H497      1.0  0.18575  0.17758  0.56775  1.0000
  C   C317      1.0  0.34125  0.20817  0.60529  1.0000
  H   H498      1.0  0.46839  0.12634  0.61792  1.0000
  H   H499      1.0  0.08391  0.03619  0.58147  1.0000
  H   H500      1.0  0.16667  0.98180  0.56608  1.0000
  H   H501      1.0  0.34618  0.22754  0.65322  1.0000
  H   H502      1.0  0.48064  0.10012  0.53739  1.0000
  C   C318      1.0  0.45604  0.02225  0.59247  1.0000
  Fe  Fe81      1.0  0.04813  0.15849  0.70789  1.0000
  H   H503      1.0  0.26517  0.21750  0.60233  1.0000
  H   H504      1.0  0.48312  0.09677  0.51068  1.0000
  S   S161      1.0  0.23834  0.09419  0.72016  1.0000
  H   H505      1.0  0.09827  0.04634  0.58127  1.0000
  H   H506      1.0  0.14340  0.18809  0.53916  1.0000
  H   H507      1.0  0.14449  0.16808  0.65004  1.0000
  C   C319      1.0  0.35531  0.22621  0.49310  1.0000
  S   S162      1.0  0.12143  0.02591  0.51607  1.0000
  C   C320      1.0  0.11231  0.98758  0.48052  1.0000
  H   H508      1.0  0.44108  0.12876  0.61531  1.0000
  H   H509      1.0  0.45451  0.11845  0.53623  1.0000
  C   C321      1.0  0.16595  0.16188  0.53969  1.0000
  H   H510      1.0  0.48586  0.22229  0.48673  1.0000
  H   H511      1.0  0.17497  0.01097  0.64284  1.0000
  C   C322      1.0  0.17874  0.03276  0.65513  1.0000
  H   H512      1.0  0.26361  0.99060  0.71398  1.0000
  H   H513      1.0  0.19543  0.01015  0.63985  1.0000
  H   H514      1.0  0.27512  0.15364  0.69414  1.0000
  H   H515      1.0  0.17108  0.16823  0.50843  1.0000
  S   S163      1.0  0.08675  0.04151  0.53424  1.0000
  H   H516      1.0  0.23056  0.02452  0.72004  1.0000
  H   H517      1.0  0.06059  0.07266  0.59464  1.0000
  H   H518      1.0  0.03008  0.03712  0.53965  1.0000
  C   C323      1.0  0.06993  0.06194  0.59337  1.0000
  N   N31       1.0  0.44826  0.12471  0.63682  1.0000
  C   C324      1.0  0.25974  0.19532  0.59117  1.0000
  C   C325      1.0  0.09411  0.02902  0.47686  1.0000
  C   C326      1.0  0.16625  0.04220  0.63320  1.0000
  C   C327      1.0  0.44189  0.12920  0.65207  1.0000
  H   H519      1.0  0.16589  0.13497  0.65023  1.0000
  H   H520      1.0  0.19144  0.05310  0.63091  1.0000
  C   C328      1.0  0.01949  0.14507  0.70096  1.0000
  C   C329      1.0  0.26496  0.16114  0.70058  1.0000
  H   H521      1.0  0.04764  0.99406  0.58986  1.0000
  H   H522      1.0  0.25242  0.22601  0.58899  1.0000
  H   H523      1.0  0.07294  0.12933  0.64415  1.0000
  C   C330      1.0  0.01674  0.15938  0.69038  1.0000
  S   S164      1.0  0.35568  0.22155  0.47564  1.0000
  H   H524      1.0  0.21486  0.00866  0.71531  1.0000
  H   H525      1.0  0.45980  0.10137  0.64632  1.0000
  C   C331      1.0  0.08870  0.04686  0.57573  1.0000
  H   H526      1.0  0.16309  0.05439  0.63495  1.0000
  H   H527      1.0  0.16060  0.15481  0.53540  1.0000
  H   H528      1.0  0.43973  0.14208  0.65076  1.0000
  S   S165      1.0  0.08474  0.03017  0.49638  1.0000
  C   C332      1.0  0.24116  0.01691  0.71430  1.0000
  Fe  Fe82      1.0  0.48219  0.09205  0.60387  1.0000
  C   C333      1.0  0.28629  0.19848  0.58551  1.0000
  H   H529      1.0  0.45574  0.12341  0.56109  1.0000
  C   C334      1.0  0.37615  0.18951  0.71153  1.0000
  C   C335      1.0  0.19380  0.04095  0.62928  1.0000
  N   N32       1.0  0.25788  0.15201  0.71569  1.0000
  S   S166      1.0  0.15539  0.19665  0.57899  1.0000
  H   H530      1.0  0.18837  0.16842  0.51404  1.0000
  H   H531      1.0  0.26361  0.18450  0.58650  1.0000
  C   C336      1.0  0.25279  0.03137  0.67007  1.0000
  C   C337      1.0  0.25893  0.01671  0.66624  1.0000
  C   C338      1.0  0.24984  0.00972  0.66135  1.0000
  C   C339      1.0  0.23455  0.01740  0.66014  1.0000
  C   C340      1.0  0.22830  0.03205  0.66408  1.0000
  C   C341      1.0  0.23735  0.03893  0.66925  1.0000
  H   H532      1.0  0.27082  0.01074  0.66699  1.0000
  H   H533      1.0  0.25479  0.99847  0.65825  1.0000
  H   H534      1.0  0.21637  0.03794  0.66342  1.0000
  H   H535      1.0  0.23238  0.05001  0.67274  1.0000
  C   C342      1.0  0.31305  0.21372  0.60914  1.0000
  H   H536      1.0  0.17599  0.04472  0.65738  1.0000
  H   H537      1.0  0.18953  0.02613  0.65940  1.0000
  N   N33       1.0  0.23901  0.00087  0.71680  1.0000
  S   S167      1.0  0.45254  0.99426  0.59021  1.0000
  H   H538      1.0  0.24360  0.02253  0.70170  1.0000
  C   C343      1.0  0.00577  0.16228  0.68124  1.0000
  H   H539      1.0  0.27778  0.21937  0.56003  1.0000
  H   H540      1.0  0.04865  0.14599  0.67801  1.0000
  S   S168      1.0  0.29593  0.22399  0.60258  1.0000
  C   C344      1.0  0.01882  0.03607  0.56388  1.0000
  C   C345      1.0  0.03177  0.03434  0.55142  1.0000
  C   C346      1.0  0.04694  0.02868  0.55416  1.0000
  C   C347      1.0  0.04918  0.02482  0.56937  1.0000
  C   C348      1.0  0.03628  0.02698  0.58178  1.0000
  C   C349      1.0  0.02114  0.03260  0.57903  1.0000
  H   H541      1.0  0.05685  0.02709  0.54451  1.0000
  H   H542      1.0  0.03799  0.02429  0.59353  1.0000
  H   H543      1.0  0.01129  0.03445  0.58863  1.0000
  H   H544      1.0  0.00367  0.17332  0.67300  1.0000
  H   H545      1.0  0.11438  0.00595  0.49798  1.0000
  Fe  Fe83      1.0  0.47987  0.07022  0.58512  1.0000
  Fe  Fe84      1.0  0.16966  0.21373  0.56264  1.0000
  H   H546      1.0  0.15618  0.03674  0.63977  1.0000
  H   H547      1.0  0.43506  0.14536  0.62425  1.0000
  C   C350      1.0  0.38326  0.21314  0.69423  1.0000
  H   H548      1.0  0.46175  0.14251  0.62747  1.0000
  H   H549      1.0  0.38603  0.20506  0.71794  1.0000
  C   C351      1.0  0.18449  0.01716  0.63604  1.0000
  H   H550      1.0  0.03438  0.12362  0.67057  1.0000
  H   H551      1.0  0.17816  0.14724  0.62396  1.0000
  S   S169      1.0  0.10502  0.15186  0.68175  1.0000
  H   H552      1.0  0.00801  0.98889  0.61258  1.0000
  C   C352      1.0  0.27047  0.21063  0.56636  1.0000
  C   C353      1.0  0.10631  0.13325  0.63991  1.0000
  C   C354      1.0  0.09534  0.14680  0.64311  1.0000
  C   C355      1.0  0.09472  0.15249  0.65607  1.0000
  C   C356      1.0  0.10510  0.14465  0.66585  1.0000
  C   C357      1.0  0.11613  0.13115  0.66258  1.0000
  C   C358      1.0  0.11675  0.12545  0.64964  1.0000
  H   H553      1.0  0.08740  0.15299  0.63547  1.0000
  H   H554      1.0  0.08644  0.16313  0.65830  1.0000
  H   H555      1.0  0.12408  0.12496  0.67022  1.0000
  H   H556      1.0  0.12512  0.11487  0.64736  1.0000
  C   C359      1.0  0.17113  0.14467  0.57828  1.0000
  C   C360      1.0  0.18194  0.15430  0.57205  1.0000
  C   C361      1.0  0.15112  0.16691  0.58546  1.0000
  C   C362      1.0  0.15575  0.15095  0.58517  1.0000
  H   H557      1.0  0.19388  0.14944  0.56680  1.0000
  H   H558      1.0  0.13910  0.17181  0.59040  1.0000
  H   H559      1.0  0.14729  0.14364  0.58983  1.0000
  C   C363      1.0  0.18486  0.08724  0.64660  1.0000
  C   C364      1.0  0.19303  0.08108  0.65859  1.0000
  C   C365      1.0  0.20430  0.08833  0.65954  1.0000
  C   C366      1.0  0.20751  0.10171  0.64844  1.0000
  C   C367      1.0  0.19920  0.10798  0.63654  1.0000
  C   C368      1.0  0.18796  0.10071  0.63556  1.0000
  H   H560      1.0  0.19063  0.07069  0.66720  1.0000
  H   H561      1.0  0.21053  0.08351  0.66883  1.0000
  H   H562      1.0  0.20171  0.11829  0.62787  1.0000
  H   H563      1.0  0.18190  0.10541  0.62613  1.0000
  C   C369      1.0  0.13689  0.06003  0.57999  1.0000
  C   C370      1.0  0.13236  0.07396  0.56951  1.0000
  C   C371      1.0  0.12671  0.07368  0.55679  1.0000
  C   C372      1.0  0.12543  0.05954  0.55450  1.0000
  C   C373      1.0  0.12987  0.04564  0.56504  1.0000
  C   C374      1.0  0.13556  0.04590  0.57772  1.0000
  H   H564      1.0  0.47882  0.18647  0.48065  1.0000
  H   H565      1.0  0.01057  0.98871  0.58497  1.0000
  H   H566      1.0  0.12911  0.03466  0.56334  1.0000
  H   H567      1.0  0.13907  0.03507  0.58575  1.0000
  H   H568      1.0  0.13337  0.08491  0.57110  1.0000
  H   H569      1.0  0.45868  0.04408  0.59523  1.0000
  H   H570      1.0  0.27967  0.13661  0.71980  1.0000
  C   C375      1.0  0.34029  0.19930  0.62056  1.0000
  C   C376      1.0  0.32573  0.19724  0.62999  1.0000
  C   C377      1.0  0.31210  0.20451  0.62429  1.0000
  H   H571      1.0  0.15090  0.19773  0.51963  1.0000
  H   H572      1.0  0.32493  0.19036  0.64178  1.0000
  H   H573      1.0  0.30081  0.20322  0.63172  1.0000
  C   C378      1.0  0.30521  0.13619  0.67635  1.0000
  C   C379      1.0  0.31058  0.13707  0.66034  1.0000
  C   C380      1.0  0.30685  0.12717  0.65331  1.0000
  C   C381      1.0  0.29744  0.11662  0.66221  1.0000
  C   C382      1.0  0.29166  0.11609  0.67814  1.0000
  C   C383      1.0  0.29565  0.12577  0.68522  1.0000
  H   H574      1.0  0.31767  0.14532  0.65337  1.0000
  H   H575      1.0  0.31124  0.12768  0.64095  1.0000
  H   H576      1.0  0.28450  0.10788  0.68507  1.0000
  H   H577      1.0  0.29169  0.12484  0.69765  1.0000
  H   H578      1.0  0.43057  0.12566  0.65796  1.0000
  H   H579      1.0  0.45010  0.12355  0.66001  1.0000
  C   C384      1.0  0.46421  0.03397  0.59014  1.0000
  C   C385      1.0  0.37120  0.18644  0.69974  1.0000
  C   C386      1.0  0.37229  0.19674  0.68515  1.0000
  Fe  Fe85      1.0  0.45286  0.09772  0.59189  1.0000
  C   C387      1.0  0.15450  0.13834  0.64667  1.0000
  H   H580      1.0  0.36852  0.19441  0.67600  1.0000
  C   C388      1.0  0.48248  0.22072  0.72052  1.0000
  C   C389      1.0  0.38219  0.20281  0.70879  1.0000
  C   C390      1.0  0.37828  0.21010  0.68242  1.0000
  H   H581      1.0  0.07913  0.06199  0.59915  1.0000
  C   C391      1.0  0.41641  0.11262  0.61228  1.0000
  C   C392      1.0  0.41984  0.10140  0.62549  1.0000
  C   C393      1.0  0.41036  0.10276  0.64028  1.0000
  C   C394      1.0  0.39769  0.11553  0.64196  1.0000
  C   C395      1.0  0.39436  0.12684  0.62877  1.0000
  C   C396      1.0  0.40360  0.12527  0.61394  1.0000
  H   H582      1.0  0.42960  0.09152  0.62428  1.0000
  H   H583      1.0  0.41290  0.09392  0.65046  1.0000
  H   H584      1.0  0.38458  0.13671  0.62997  1.0000
  H   H585      1.0  0.40087  0.13397  0.60375  1.0000
  H   H586      1.0  0.45541  0.10377  0.62786  1.0000
  H   H587      1.0  0.14490  0.17976  0.52302  1.0000
  C   C397      1.0  0.02319  0.98871  0.58271  1.0000
  C   C398      1.0  0.01118  0.13376  0.70244  1.0000
  H   H588      1.0  0.26935  0.17067  0.70218  1.0000
  N   N34       1.0  0.07646  0.06129  0.57681  1.0000
  C   C399      1.0  0.15681  0.22191  0.49169  1.0000
  H   H589      1.0  0.33192  0.22660  0.52927  1.0000
  C   C400      1.0  0.15433  0.16588  0.63992  1.0000
  H   H590      1.0  0.02947  0.98262  0.57302  1.0000
  C   C401      1.0  0.43698  0.13241  0.62669  1.0000
  Fe  Fe86      1.0  0.09656  0.02677  0.51624  1.0000
  H   H591      1.0  0.42540  0.12939  0.63223  1.0000
  C   C402      1.0  0.46307  0.00902  0.58600  1.0000
  Fe  Fe87      1.0  0.18717  0.22424  0.52943  1.0000
  H   H592      1.0  0.20494  0.03445  0.63290  1.0000
  C   C403      1.0  0.22596  0.00135  0.70998  1.0000
  H   H593      1.0  0.06842  0.06084  0.55705  1.0000
  H   H594      1.0  0.09407  0.04622  0.56337  1.0000
  H   H595      1.0  0.04224  0.14846  0.66055  1.0000
  H   H596      1.0  0.18612  0.01709  0.62355  1.0000
  H   H597      1.0  0.04122  0.11983  0.68807  1.0000
  C   C404      1.0  0.47838  0.00758  0.57709  1.0000
  N   N35       1.0  0.05786  0.12642  0.66703  1.0000
  C   C405      1.0  0.04487  0.11856  0.67575  1.0000
  C   C406      1.0  0.04613  0.98179  0.59345  1.0000
  C   C407      1.0  0.06319  0.12349  0.65109  1.0000
  C   C408      1.0  0.07092  0.12024  0.67517  1.0000
  S   S170      1.0  0.46509  0.07702  0.60753  1.0000
  H   H598      1.0  0.05357  0.12795  0.64468  1.0000
  H   H599      1.0  0.29453  0.20639  0.57964  1.0000
  H   H600      1.0  0.02104  0.00205  0.60597  1.0000
  H   H601      1.0  0.25929  0.19178  0.60392  1.0000
  H   H602      1.0  0.11631  0.03186  0.47802  1.0000
  C   C409      1.0  0.48688  0.10721  0.52742  1.0000
  H   H603      1.0  0.37917  0.21804  0.67114  1.0000
  S   S171      1.0  0.99985  0.04212  0.56036  1.0000
  H   H604      1.0  0.24758  0.20082  0.58962  1.0000
  C   C410      1.0  0.02056  0.98947  0.60947  1.0000
  H   H605      1.0  0.17694  0.18631  0.50502  1.0000
  H   H606      1.0  0.10104  0.99590  0.48375  1.0000
  H   H607      1.0  0.32856  0.22191  0.58770  1.0000
  H   H608      1.0  0.33039  0.16945  0.72122  1.0000
  N   N36       1.0  0.16677  0.17724  0.52896  1.0000
  H   H609      1.0  0.47205  0.12394  0.63669  1.0000
  H   H610      1.0  0.42220  0.19822  0.47318  1.0000
  H   H611      1.0  0.33449  0.21764  0.50534  1.0000
  H   H612      1.0  0.16739  0.04302  0.62058  1.0000
  H   H613      1.0  0.16279  0.22117  0.51296  1.0000
  C   C411      1.0  0.46322  0.12964  0.62940  1.0000
  N   N37       1.0  0.18080  0.03328  0.63841  1.0000
  H   H614      1.0  0.19558  0.04167  0.61659  1.0000
  H   H615      1.0  0.12838  0.15802  0.63916  1.0000
  C   C412      1.0  0.16669  0.15019  0.62065  1.0000
  C   C413      1.0  0.32767  0.21524  0.59954  1.0000
  H   H616      1.0  0.15878  0.16328  0.55145  1.0000
  H   H617      1.0  0.02431  0.00110  0.57849  1.0000
  S   S172      1.0  0.07673  0.18465  0.70377  1.0000
  H   H618      1.0  0.33733  0.21767  0.64480  1.0000
  C   C414      1.0  0.08337  0.07501  0.56855  1.0000
  H   H619      1.0  0.13184  0.00335  0.48296  1.0000
  H   H620      1.0  0.09314  0.07517  0.57349  1.0000
  H   H621      1.0  0.08829  0.07489  0.55597  1.0000
  H   H622      1.0  0.07456  0.08616  0.56923  1.0000
  H   H623      1.0  0.05861  0.05091  0.57537  1.0000
  C   C415      1.0  0.05241  0.14342  0.66619  1.0000
  N   N38       1.0  0.44029  0.13780  0.54631  1.0000
  C   C416      1.0  0.43361  0.15459  0.54105  1.0000
  C   C417      1.0  0.44986  0.13124  0.53270  1.0000
  C   C418      1.0  0.42753  0.12942  0.55424  1.0000
  C   C419      1.0  0.45020  0.13590  0.55726  1.0000
  H   H624      1.0  0.42597  0.15646  0.53283  1.0000
  H   H625      1.0  0.44296  0.16120  0.53492  1.0000
  H   H626      1.0  0.42641  0.15991  0.55107  1.0000
  H   H627      1.0  0.44297  0.13303  0.52384  1.0000
  H   H628      1.0  0.03765  0.21558  0.71551  1.0000
  H   H629      1.0  0.45929  0.98907  0.62224  1.0000
  H   H630      1.0  0.43220  0.11674  0.55862  1.0000
  H   H631      1.0  0.41988  0.13042  0.54633  1.0000
  H   H632      1.0  0.42005  0.13406  0.56459  1.0000
  H   H633      1.0  0.15368  0.17685  0.63072  1.0000
  H   H634      1.0  0.44330  0.14019  0.56796  1.0000
  H   H635      1.0  0.45986  0.14224  0.55182  1.0000
  Fe  Fe88      1.0  0.08127  0.16320  0.69425  1.0000
  C   C420      1.0  0.17734  0.17023  0.57250  1.0000
  C   C421      1.0  0.00019  0.13668  0.69337  1.0000
  C   C422      1.0  0.99748  0.15093  0.68272  1.0000
  N   N39       1.0  0.23949  0.06729  0.62332  1.0000
  C   C423      1.0  0.24001  0.05078  0.62398  1.0000
  C   C424      1.0  0.22566  0.07749  0.61753  1.0000
  C   C425      1.0  0.25384  0.07176  0.61283  1.0000
  C   C426      1.0  0.23843  0.06919  0.63907  1.0000
  H   H636      1.0  0.25005  0.04275  0.62881  1.0000
  H   H637      1.0  0.24117  0.04878  0.61224  1.0000
  H   H638      1.0  0.22923  0.04715  0.63166  1.0000
  H   H639      1.0  0.22492  0.09002  0.61701  1.0000
  H   H640      1.0  0.22596  0.07643  0.60564  1.0000
  H   H641      1.0  0.21461  0.07457  0.62534  1.0000
  H   H642      1.0  0.26447  0.06431  0.61696  1.0000
  H   H643      1.0  0.25382  0.08412  0.61230  1.0000
  H   H644      1.0  0.25504  0.07061  0.60075  1.0000
  H   H645      1.0  0.23797  0.08150  0.63903  1.0000
  H   H646      1.0  0.24868  0.06173  0.64387  1.0000
  H   H647      1.0  0.22773  0.06600  0.64729  1.0000
  N   N40       1.0  0.34846  0.09556  0.66465  1.0000
  C   C427      1.0  0.34424  0.11193  0.66635  1.0000
  C   C428      1.0  0.36129  0.09385  0.65076  1.0000
  C   C429      1.0  0.33470  0.09133  0.66280  1.0000
  C   C430      1.0  0.35363  0.08522  0.67869  1.0000
  H   H648      1.0  0.34076  0.12009  0.65576  1.0000
  H   H649      1.0  0.35420  0.11540  0.66817  1.0000
  H   H650      1.0  0.33434  0.11382  0.67648  1.0000
  H   H651      1.0  0.36476  0.08166  0.64902  1.0000
  H   H652      1.0  0.35785  0.10171  0.63999  1.0000
  H   H653      1.0  0.37186  0.09693  0.65182  1.0000
  H   H654      1.0  0.33729  0.07896  0.66176  1.0000
  H   H655      1.0  0.33063  0.09878  0.65217  1.0000
  H   H656      1.0  0.32462  0.09290  0.67287  1.0000
  H   H657      1.0  0.35696  0.07274  0.67785  1.0000
  H   H658      1.0  0.34422  0.08634  0.68936  1.0000
  H   H659      1.0  0.36398  0.08823  0.68036  1.0000
  H   H660      1.0  0.17774  0.15486  0.54124  1.0000
  C   C431      1.0  0.13856  0.15616  0.62925  1.0000
  Fe  Fe89      1.0  0.05414  0.19123  0.69591  1.0000
  C   C432      1.0  0.45094  0.10756  0.63916  1.0000
  H   H661      1.0  0.14509  0.14003  0.65723  1.0000
  H   H662      1.0  0.14451  0.22264  0.49692  1.0000
  H   H663      1.0  0.13743  0.16692  0.61984  1.0000
  H   H664      1.0  0.06758  0.11079  0.65125  1.0000
  C   C433      1.0  0.18853  0.22001  0.47823  1.0000
  H   H665      1.0  0.18569  0.17920  0.53746  1.0000
  H   H666      1.0  0.01338  0.12256  0.71042  1.0000
  H   H667      1.0  0.12336  0.08449  0.54866  1.0000
  S   S173      1.0  0.19502  0.20831  0.55079  1.0000
  C   C434      1.0  0.15079  0.18609  0.52763  1.0000
  H   H668      1.0  0.04825  0.10583  0.67594  1.0000
  H   H669      1.0  0.28664  0.19521  0.59809  1.0000
  H   H670      1.0  0.16631  0.14048  0.61575  1.0000
  H   H671      1.0  0.08101  0.12573  0.66882  1.0000
  H   H672      1.0  0.22839  0.00626  0.69718  1.0000
  N   N41       1.0  0.15353  0.15262  0.63411  1.0000
  H   H673      1.0  0.06735  0.12260  0.68712  1.0000
  H   H674      1.0  0.07519  0.10740  0.67624  1.0000
  C   C435      1.0  0.26470  0.22031  0.58981  1.0000
  C   C436      1.0  0.34307  0.22341  0.50598  1.0000
  H   H675      1.0  0.27517  0.20034  0.56086  1.0000
  N   N42       1.0  0.12157  0.98325  0.49257  1.0000
  H   H676      1.0  0.29092  0.18768  0.58080  1.0000
  H   H677      1.0  0.06180  0.14979  0.65949  1.0000
  C   C437      1.0  0.03939  0.22709  0.70909  1.0000
  H   H678      1.0  0.35252  0.20963  0.59791  1.0000
  H   H679      1.0  0.25643  0.16652  0.69295  1.0000
  H   H680      1.0  0.22390  0.98944  0.71184  1.0000
  H   H681      1.0  0.10113  0.98415  0.51120  1.0000
  H   H682      1.0  0.25649  0.99599  0.69642  1.0000
  S   S174      1.0  0.05975  0.17083  0.68453  1.0000
  H   H683      1.0  0.20084  0.21919  0.47299  1.0000
  C   C438      1.0  0.16185  0.17661  0.57899  1.0000
  H   H684      1.0  0.06473  0.05167  0.59990  1.0000
  H   H685      1.0  0.16647  0.16085  0.61107  1.0000
  H   H686      1.0  0.05436  0.07192  0.57027  1.0000
  C   C439      1.0  0.17620  0.17492  0.51343  1.0000
  C   C440      1.0  0.17412  0.18606  0.53511  1.0000
  H   H687      1.0  0.17613  0.19711  0.52675  1.0000
  N   N43       1.0  0.02948  0.98116  0.59687  1.0000
  H   H688      1.0  0.46009  0.13674  0.52688  1.0000
  S   S175      1.0  0.13857  0.98250  0.53311  1.0000
  H   H689      1.0  0.02310  0.16818  0.68916  1.0000
  C   C441      1.0  0.25348  0.99118  0.70921  1.0000
  C   C442      1.0  0.16717  0.22109  0.50079  1.0000
  S   S176      1.0  0.04056  0.17951  0.71856  1.0000
  S   S177      1.0  0.16176  0.22797  0.54087  1.0000
  C   C443      1.0  0.25232  0.13947  0.71297  1.0000
  H   H690      1.0  0.23542  0.16801  0.71707  1.0000
  C   C444      1.0  0.12523  0.99741  0.49417  1.0000
  H   H691      1.0  0.47230  0.20057  0.49265  1.0000
  H   H692      1.0  0.48389  0.99744  0.57204  1.0000
  H   H693      1.0  0.48482  0.98563  0.60406  1.0000
  C   C445      1.0  0.16222  0.22202  0.47578  1.0000
  H   H694      1.0  0.35361  0.22614  0.61891  1.0000
  H   H695      1.0  0.02515  0.98430  0.62026  1.0000
  H   H696      1.0  0.25117  0.01700  0.71890  1.0000
  C   C446      1.0  0.47959  0.03241  0.58148  1.0000
  H   H697      1.0  0.27198  0.22908  0.58363  1.0000
  Fe  Fe90      1.0  0.48282  0.10362  0.56916  1.0000
  C   C447      1.0  0.47757  0.19899  0.48053  1.0000
  S   S178      1.0  0.03385  0.14061  0.71187  1.0000
  H   H698      1.0  0.46902  0.20595  0.47323  1.0000
  C   C448      1.0  0.26708  0.09712  0.72179  1.0000
  H   H699      1.0  0.26208  0.13125  0.70696  1.0000
  H   H700      1.0  0.24349  0.14426  0.70563  1.0000
  S   S179      1.0  0.07013  0.14922  0.71686  1.0000
  C   C449      1.0  0.48664  0.01919  0.57496  1.0000
  H   H701      1.0  0.98727  0.05811  0.53078  1.0000
  C   C450      1.0  0.34158  0.22852  0.51951  1.0000
  C   C451      1.0  0.33649  0.22916  0.64738  1.0000
  S   S180      1.0  0.39071  0.22992  0.69066  1.0000
  S   S181      1.0  0.41751  0.21324  0.72226  1.0000
  S   S182      1.0  0.12271  0.20266  0.81780  1.0000
  H   H702      1.0  0.17100  0.18406  0.77732  1.0000
  S   S183      1.0  0.26438  0.99445  0.88893  1.0000
  S   S184      1.0  0.08512  0.18696  0.83005  1.0000
  Fe  Fe91      1.0  0.06511  0.10864  0.86258  1.0000
  S   S185      1.0  0.04216  0.12406  0.85843  1.0000
  S   S186      1.0  0.08848  0.11464  0.85094  1.0000
  Fe  Fe92      1.0  0.05021  0.08282  0.88492  1.0000
  S   S187      1.0  0.02585  0.09591  0.88272  1.0000
  S   S188      1.0  0.05454  0.05918  0.90089  1.0000
  Fe  Fe93      1.0  0.03664  0.10212  0.85715  1.0000
  S   S189      1.0  0.02660  0.10392  0.83681  1.0000
  Fe  Fe94      1.0  0.03356  0.11656  0.88422  1.0000
  S   S190      1.0  0.01906  0.13291  0.89986  1.0000
  S   S191      1.0  0.06035  0.08716  0.85922  1.0000
  S   S192      1.0  0.05707  0.10297  0.88853  1.0000
  C   C452      1.0  0.31267  0.06342  0.86778  1.0000
  H   H703      1.0  0.30569  0.02842  0.89005  1.0000
  C   C453      1.0  0.27560  0.05887  0.80398  1.0000
  S   S193      1.0  0.12182  0.19418  0.75427  1.0000
  H   H704      1.0  0.99192  0.98465  0.84614  1.0000
  H   H705      1.0  0.44742  0.16551  0.75367  1.0000
  S   S194      1.0  0.07610  0.18393  0.93690  1.0000
  H   H706      1.0  0.10071  0.19075  0.87121  1.0000
  S   S195      1.0  0.03905  0.19301  0.93484  1.0000
  Fe  Fe95      1.0  0.05998  0.17373  0.93024  1.0000
  S   S196      1.0  0.06770  0.16510  0.90811  1.0000
  H   H707      1.0  0.46122  0.16138  0.76572  1.0000
  Fe  Fe96      1.0  0.05464  0.20186  0.94375  1.0000
  H   H708      1.0  0.19680  0.18199  0.75872  1.0000
  Fe  Fe97      1.0  0.13030  0.00984  0.91994  1.0000
  S   S197      1.0  0.11442  0.99299  0.92907  1.0000
  S   S198      1.0  0.12170  0.03605  0.91612  1.0000
  S   S199      1.0  0.29792  0.99618  0.90794  1.0000
  C   C454      1.0  0.99910  0.07277  0.85864  1.0000
  C   C455      1.0  0.31051  0.03670  0.87954  1.0000
  H   H709      1.0  0.39559  0.19179  0.93134  1.0000
  C   C456      1.0  0.10649  0.18631  0.75388  1.0000
  S   S200      1.0  0.14496  0.99821  0.90041  1.0000
  S   S201      1.0  0.14657  0.99721  0.93607  1.0000
  H   H710      1.0  0.06930  0.16534  0.80287  1.0000
  H   H711      1.0  0.01866  0.98899  0.83397  1.0000
  H   H712      1.0  0.31467  0.18169  0.75925  1.0000
  H   H713      1.0  0.33003  0.98890  0.94828  1.0000
  S   S202      1.0  0.40273  0.13306  0.94888  1.0000
  H   H714      1.0  0.02213  0.14103  0.76358  1.0000
  H   H715      1.0  0.99139  0.18546  0.92573  1.0000
  H   H716      1.0  0.07544  0.00992  0.90252  1.0000
  H   H717      1.0  0.42279  0.15364  0.92802  1.0000
  S   S203      1.0  0.36620  0.16903  0.94762  1.0000
  H   H718      1.0  0.98844  0.08438  0.82374  1.0000
  H   H719      1.0  0.09262  0.18346  0.85962  1.0000
  Fe  Fe98      1.0  0.31694  0.17925  0.85361  1.0000
  S   S204      1.0  0.30957  0.20528  0.84683  1.0000
  S   S205      1.0  0.30248  0.16377  0.85154  1.0000
  Fe  Fe99      1.0  0.34149  0.18103  0.86958  1.0000
  S   S206      1.0  0.33563  0.20735  0.86437  1.0000
  S   S207      1.0  0.36098  0.16542  0.88119  1.0000
  Fe  Fe100     1.0  0.31062  0.20514  0.87096  1.0000
  Fe  Fe101     1.0  0.33511  0.20520  0.84065  1.0000
  C   C457      1.0  0.08105  0.17602  0.75175  1.0000
  S   S208      1.0  0.31650  0.17900  0.87831  1.0000
  S   S209      1.0  0.34257  0.17898  0.84529  1.0000
  Fe  Fe102     1.0  0.12184  0.19747  0.77772  1.0000
  C   C458      1.0  0.42563  0.16348  0.91818  1.0000
  H   H720      1.0  0.32186  0.01755  0.93650  1.0000
  C   C459      1.0  0.28928  0.05799  0.88653  1.0000
  H   H721      1.0  0.09329  0.18904  0.77683  1.0000
  C   C460      1.0  0.26807  0.18835  0.89742  1.0000
  Fe  Fe103     1.0  0.40239  0.21965  0.74453  1.0000
  Fe  Fe104     1.0  0.25441  0.12790  0.80211  1.0000
  S   S210      1.0  0.28001  0.12215  0.79105  1.0000
  S   S211      1.0  0.24202  0.11344  0.82370  1.0000
  Fe  Fe105     1.0  0.24705  0.15474  0.77515  1.0000
  H   H722      1.0  0.32128  0.99870  0.92176  1.0000
  S   S212      1.0  0.22825  0.17130  0.76353  1.0000
  H   H723      1.0  0.43534  0.19036  0.90533  1.0000
  Fe  Fe106     1.0  0.27760  0.14821  0.78519  1.0000
  S   S213      1.0  0.29613  0.16004  0.78549  1.0000
  S   S214      1.0  0.24664  0.12944  0.78055  1.0000
  S   S215      1.0  0.25247  0.15377  0.79789  1.0000
  H   H724      1.0  0.41723  0.20310  0.91221  1.0000
  H   H725      1.0  0.34241  0.15135  0.72880  1.0000
  H   H726      1.0  0.09443  0.17296  0.72895  1.0000
  H   H727      1.0  0.11620  0.04102  0.95085  1.0000
  S   S216      1.0  0.33918  0.04167  0.95676  1.0000
  S   S217      1.0  0.29901  0.04460  0.94507  1.0000
  H   H728      1.0  0.05191  0.14676  0.81555  1.0000
  N   N44       1.0  0.16543  0.22677  0.81339  1.0000
  H   H729      1.0  0.08949  0.15831  0.79428  1.0000
  Fe  Fe107     1.0  0.25049  0.01904  0.88277  1.0000
  S   S218      1.0  0.25985  0.02221  0.85690  1.0000
  S   S219      1.0  0.22494  0.02736  0.89254  1.0000
  Fe  Fe108     1.0  0.28240  0.00596  0.89058  1.0000
  S   S220      1.0  0.29444  0.00777  0.86543  1.0000
  C   C461      1.0  0.37683  0.07117  0.96832  1.0000
  Fe  Fe109     1.0  0.27826  0.03124  0.86131  1.0000
  S   S221      1.0  0.28892  0.05133  0.84617  1.0000
  S   S222      1.0  0.26765  0.03027  0.88665  1.0000
  H   H730      1.0  0.08961  0.99910  0.87847  1.0000
  C   C462      1.0  0.33186  0.15271  0.75906  1.0000
  C   C463      1.0  0.06611  0.01627  0.89598  1.0000
  C   C464      1.0  0.29840  0.03055  0.93564  1.0000
  C   C465      1.0  0.31138  0.01841  0.93275  1.0000
  C   C466      1.0  0.03230  0.11432  0.75319  1.0000
  C   C467      1.0  0.29778  0.00929  0.91885  1.0000
  C   C468      1.0  0.28481  0.02142  0.92174  1.0000
  C   C469      1.0  0.28514  0.03208  0.93006  1.0000
  H   H731      1.0  0.27443  0.02250  0.91772  1.0000
  H   H732      1.0  0.27510  0.04150  0.93221  1.0000
  C   C470      1.0  0.25472  0.09677  0.83183  1.0000
  C   C471      1.0  0.24903  0.08347  0.84058  1.0000
  C   C472      1.0  0.25941  0.06954  0.84565  1.0000
  C   C473      1.0  0.27546  0.06896  0.84193  1.0000
  C   C474      1.0  0.28104  0.08242  0.83373  1.0000
  C   C475      1.0  0.27068  0.09631  0.82874  1.0000
  H   H733      1.0  0.23667  0.08379  0.84312  1.0000
  H   H734      1.0  0.25502  0.05918  0.85207  1.0000
  H   H735      1.0  0.29343  0.08205  0.83099  1.0000
  H   H736      1.0  0.27506  0.10669  0.82257  1.0000
  C   C476      1.0  0.31108  0.00783  0.92434  1.0000
  N   N45       1.0  0.33061  0.16585  0.74540  1.0000
  S   S223      1.0  0.16296  0.17673  0.81127  1.0000
  H   H737      1.0  0.26138  0.08905  0.80286  1.0000
  H   H738      1.0  0.28582  0.16429  0.88457  1.0000
  H   H739      1.0  0.45351  0.20230  0.77018  1.0000
  C   C477      1.0  0.30076  0.16310  0.83304  1.0000
  C   C478      1.0  0.29058  0.15454  0.83215  1.0000
  C   C479      1.0  0.28897  0.15367  0.81761  1.0000
  C   C480      1.0  0.29764  0.16127  0.80387  1.0000
  C   C481      1.0  0.30782  0.16985  0.80475  1.0000
  C   C482      1.0  0.30933  0.17084  0.81931  1.0000
  H   H740      1.0  0.28395  0.14850  0.84272  1.0000
  H   H741      1.0  0.28113  0.14699  0.81705  1.0000
  H   H742      1.0  0.31455  0.17577  0.79417  1.0000
  H   H743      1.0  0.31723  0.17744  0.81989  1.0000
  C   C483      1.0  0.44069  0.19663  0.74989  1.0000
  C   C484      1.0  0.24456  0.16238  0.72397  1.0000
  H   H744      1.0  0.28268  0.07685  0.76560  1.0000
  Fe  Fe110     1.0  0.27200  0.12577  0.76906  1.0000
  S   S224      1.0  0.27200  0.15131  0.76200  1.0000
  H   H745      1.0  0.34704  0.12742  0.91839  1.0000
  Fe  Fe111     1.0  0.14124  0.18882  0.80200  1.0000
  C   C485      1.0  0.07170  0.14277  0.78809  1.0000
  N   N46       1.0  0.41856  0.17871  0.92268  1.0000
  H   H746      1.0  0.01672  0.11660  0.78252  1.0000
  C   C486      1.0  0.21203  0.98715  0.89667  1.0000
  N   N47       1.0  0.07270  0.02081  0.87910  1.0000
  H   H747      1.0  0.42147  0.17019  0.94628  1.0000
  C   C487      1.0  0.48090  0.14275  0.96203  1.0000
  H   H748      1.0  0.05429  0.04129  0.87583  1.0000
  H   H749      1.0  0.15811  0.98392  0.87059  1.0000
  S   S225      1.0  0.39402  0.09256  0.96499  1.0000
  H   H750      1.0  0.98894  0.12606  0.90669  1.0000
  H   H751      1.0  0.26245  0.18162  0.90871  1.0000
  C   C488      1.0  0.36516  0.16844  0.92886  1.0000
  C   C489      1.0  0.35244  0.17794  0.92256  1.0000
  C   C490      1.0  0.35112  0.17737  0.90780  1.0000
  C   C491      1.0  0.36261  0.16735  0.89923  1.0000
  C   C492      1.0  0.37549  0.15809  0.90539  1.0000
  C   C493      1.0  0.37676  0.15861  0.92016  1.0000
  H   H752      1.0  0.34347  0.18566  0.92919  1.0000
  H   H753      1.0  0.34117  0.18457  0.90311  1.0000
  H   H754      1.0  0.38443  0.15036  0.89876  1.0000
  H   H755      1.0  0.38669  0.15138  0.92477  1.0000
  H   H756      1.0  0.43861  0.16142  0.91482  1.0000
  H   H757      1.0  0.10294  0.21729  0.72927  1.0000
  S   S226      1.0  0.28867  0.21832  0.88449  1.0000
  S   S227      1.0  0.13997  0.20812  0.78070  1.0000
  N   N48       1.0  0.07643  0.20098  0.87129  1.0000
  C   C494      1.0  0.98907  0.18132  0.93826  1.0000
  H   H758      1.0  0.99050  0.02712  0.82999  1.0000
  S   S228      1.0  0.05483  0.22739  0.93759  1.0000
  H   H759      1.0  0.03989  0.11551  0.76020  1.0000
  H   H760      1.0  0.43771  0.17708  0.93285  1.0000
  H   H761      1.0  0.34321  0.18359  0.73162  1.0000
  C   C495      1.0  0.31336  0.05292  0.89491  1.0000
  H   H762      1.0  0.42134  0.16263  0.90828  1.0000
  H   H763      1.0  0.05080  0.02395  0.87304  1.0000
  C   C496      1.0  0.19617  0.99041  0.90396  1.0000
  H   H764      1.0  0.38681  0.06579  0.96044  1.0000
  C   C497      1.0  0.22085  0.99855  0.89288  1.0000
  C   C498      1.0  0.21387  0.01321  0.89650  1.0000
  C   C499      1.0  0.19793  0.01656  0.90353  1.0000
  C   C500      1.0  0.18905  0.00519  0.90720  1.0000
  H   H765      1.0  0.19248  0.02792  0.90624  1.0000
  H   H766      1.0  0.17679  0.00780  0.91272  1.0000
  C   C501      1.0  0.24544  0.10232  0.74336  1.0000
  H   H767      1.0  0.26751  0.15950  0.89568  1.0000
  H   H768      1.0  0.30550  0.17169  0.75136  1.0000
  C   C502      1.0  0.07998  0.00661  0.87274  1.0000
  H   H769      1.0  0.09297  0.12589  0.81595  1.0000
  H   H770      1.0  0.06450  0.03417  0.85845  1.0000
  H   H771      1.0  0.01042  0.10268  0.77647  1.0000
  H   H772      1.0  0.99318  0.00241  0.86941  1.0000
  S   S229      1.0  0.12468  0.17701  0.79788  1.0000
  H   H773      1.0  0.25055  0.10928  0.76155  1.0000
  Fe  Fe112     1.0  0.41744  0.13696  0.96287  1.0000
  H   H774      1.0  0.25336  0.08129  0.79161  1.0000
  H   H775      1.0  0.23322  0.10298  0.74895  1.0000
  S   S230      1.0  0.44196  0.14030  0.95037  1.0000
  C   C503      1.0  0.25126  0.09801  0.72895  1.0000
  H   H776      1.0  0.03333  0.10163  0.75434  1.0000
  H   H777      1.0  0.46530  0.22824  0.76219  1.0000
  H   H778      1.0  0.34368  0.17834  0.75197  1.0000
  C   C504      1.0  0.07286  0.05350  0.90584  1.0000
  C   C505      1.0  0.08411  0.06253  0.89885  1.0000
  C   C506      1.0  0.09902  0.05725  0.90227  1.0000
  C   C507      1.0  0.10283  0.04277  0.91236  1.0000
  C   C508      1.0  0.09150  0.03387  0.91946  1.0000
  C   C509      1.0  0.07653  0.03927  0.91629  1.0000
  H   H779      1.0  0.08149  0.07338  0.89054  1.0000
  H   H780      1.0  0.10777  0.06416  0.89672  1.0000
  H   H781      1.0  0.09416  0.02294  0.92763  1.0000
  H   H782      1.0  0.06782  0.03234  0.92192  1.0000
  C   C510      1.0  0.03144  0.14372  0.90135  1.0000
  C   C511      1.0  0.04573  0.14380  0.89066  1.0000
  C   C512      1.0  0.05647  0.15116  0.89233  1.0000
  C   C513      1.0  0.05309  0.15817  0.90498  1.0000
  C   C514      1.0  0.03860  0.15855  0.91550  1.0000
  C   C515      1.0  0.02770  0.15138  0.91363  1.0000
  H   H783      1.0  0.04858  0.13794  0.88120  1.0000
  H   H784      1.0  0.06762  0.15093  0.88410  1.0000
  H   H785      1.0  0.03595  0.16393  0.92534  1.0000
  H   H786      1.0  0.01667  0.15133  0.92200  1.0000
  C   C516      1.0  0.01314  0.09210  0.84094  1.0000
  C   C517      1.0  0.00534  0.09290  0.82951  1.0000
  H   H787      1.0  0.98996  0.06371  0.74017  1.0000
  Fe  Fe113     1.0  0.13047  0.98017  0.91088  1.0000
  H   H788      1.0  0.14602  0.22968  0.83288  1.0000
  C   C518      1.0  0.01006  0.08198  0.85549  1.0000
  H   H789      1.0  0.14469  0.22471  0.80820  1.0000
  H   H790      1.0  0.24731  0.18332  0.87435  1.0000
  H   H791      1.0  0.46483  0.18284  0.77526  1.0000
  H   H792      1.0  0.01618  0.08115  0.86428  1.0000
  C   C519      1.0  0.08669  0.16689  0.83743  1.0000
  C   C520      1.0  0.07328  0.16139  0.84592  1.0000
  C   C521      1.0  0.07394  0.14531  0.85055  1.0000
  C   C522      1.0  0.08798  0.13468  0.84679  1.0000
  C   C523      1.0  0.10156  0.14015  0.83883  1.0000
  C   C524      1.0  0.10093  0.15628  0.83419  1.0000
  H   H793      1.0  0.06224  0.16955  0.84850  1.0000
  H   H794      1.0  0.06350  0.14120  0.85670  1.0000
  H   H795      1.0  0.11250  0.13195  0.83600  1.0000
  H   H796      1.0  0.11140  0.16046  0.82796  1.0000
  H   H797      1.0  0.23303  0.99599  0.88719  1.0000
  C   C525      1.0  0.18162  0.18039  0.78164  1.0000
  C   C526      1.0  0.19622  0.17914  0.77112  1.0000
  C   C527      1.0  0.21004  0.17378  0.77665  1.0000
  H   H798      1.0  0.06978  0.22433  0.85807  1.0000
  N   N49       1.0  0.19664  0.12409  0.81656  1.0000
  C   C528      1.0  0.18377  0.11727  0.82760  1.0000
  C   C529      1.0  0.20227  0.13291  0.82438  1.0000
  C   C530      1.0  0.19093  0.13474  0.80291  1.0000
  C   C531      1.0  0.20961  0.11144  0.81140  1.0000
  H   H799      1.0  0.18768  0.10922  0.83808  1.0000
  H   H800      1.0  0.17924  0.11051  0.82212  1.0000
  H   H801      1.0  0.17378  0.12655  0.83170  1.0000
  H   H802      1.0  0.21192  0.13832  0.81635  1.0000
  H   H803      1.0  0.19273  0.14241  0.82863  1.0000
  H   H804      1.0  0.20696  0.12516  0.83456  1.0000
  H   H805      1.0  0.18090  0.14423  0.80646  1.0000
  H   H806      1.0  0.18687  0.12845  0.79653  1.0000
  H   H807      1.0  0.20022  0.14043  0.79450  1.0000
  H   H808      1.0  0.21954  0.11624  0.80316  1.0000
  H   H809      1.0  0.20585  0.10451  0.80543  1.0000
  H   H810      1.0  0.21427  0.10326  0.82142  1.0000
  C   C532      1.0  0.00632  0.12056  0.74854  1.0000
  H   H811      1.0  0.06939  0.98270  0.91678  1.0000
  N   N50       1.0  0.01589  0.12236  0.75825  1.0000
  H   H812      1.0  0.30239  0.06841  0.79004  1.0000
  Fe  Fe114     1.0  0.39490  0.11517  0.96998  1.0000
  H   H813      1.0  0.08787  0.17749  0.88041  1.0000
  Fe  Fe115     1.0  0.03463  0.17789  0.95891  1.0000
  C   C533      1.0  0.27379  0.19291  0.86939  1.0000
  H   H814      1.0  0.09725  0.98112  0.91526  1.0000
  C   C534      1.0  0.07341  0.20608  0.88604  1.0000
  H   H815      1.0  0.28418  0.05014  0.89730  1.0000
  H   H816      1.0  0.43192  0.19226  0.74689  1.0000
  H   H817      1.0  0.07086  0.19651  0.89634  1.0000
  C   C535      1.0  0.12831  0.03591  0.95262  1.0000
  H   H818      1.0  0.32150  0.15385  0.73395  1.0000
  N   N51       1.0  0.35717  0.11952  0.93856  1.0000
  C   C536      1.0  0.34742  0.13156  0.92859  1.0000
  C   C537      1.0  0.35789  0.12584  0.95148  1.0000
  C   C538      1.0  0.37315  0.11506  0.92926  1.0000
  C   C539      1.0  0.35026  0.10559  0.94495  1.0000
  H   H819      1.0  0.35203  0.14239  0.92394  1.0000
  H   H820      1.0  0.24679  0.13244  0.72412  1.0000
  H   H821      1.0  0.36560  0.11723  0.95888  1.0000
  H   H822      1.0  0.24797  0.98989  0.86028  1.0000
  C   C540      1.0  0.36311  0.22739  0.79104  1.0000
  H   H823      1.0  0.46513  0.17259  0.74604  1.0000
  C   C541      1.0  0.27698  0.10060  0.72905  1.0000
  S   S231      1.0  0.34288  0.22320  0.81942  1.0000
  H   H824      1.0  0.33842  0.10830  0.95253  1.0000
  H   H825      1.0  0.35754  0.09614  0.95218  1.0000
  H   H826      1.0  0.09988  0.12999  0.79515  1.0000
  N   N52       1.0  0.07562  0.11046  0.92282  1.0000
  C   C542      1.0  0.05856  0.11676  0.92636  1.0000
  C   C543      1.0  0.08242  0.11257  0.93476  1.0000
  C   C544      1.0  0.08269  0.11895  0.90732  1.0000
  C   C545      1.0  0.07881  0.09363  0.92288  1.0000
  H   H827      1.0  0.05578  0.12926  0.92699  1.0000
  H   H828      1.0  0.05275  0.11032  0.93775  1.0000
  H   H829      1.0  0.05301  0.11602  0.91728  1.0000
  H   H830      1.0  0.09530  0.10799  0.93250  1.0000
  H   H831      1.0  0.08021  0.12519  0.93496  1.0000
  H   H832      1.0  0.07728  0.10645  0.94665  1.0000
  H   H833      1.0  0.09548  0.11419  0.90403  1.0000
  H   H834      1.0  0.08097  0.13158  0.90707  1.0000
  H   H835      1.0  0.07741  0.11820  0.89804  1.0000
  H   H836      1.0  0.07370  0.08684  0.93440  1.0000
  H   H837      1.0  0.09158  0.08849  0.92011  1.0000
  H   H838      1.0  0.07374  0.09165  0.91407  1.0000
  H   H839      1.0  0.32337  0.03221  0.87654  1.0000
  H   H840      1.0  0.30570  0.03616  0.86987  1.0000
  H   H841      1.0  0.32559  0.05975  0.86408  1.0000
  H   H842      1.0  0.30762  0.06363  0.85797  1.0000
  C   C546      1.0  0.38355  0.20686  0.78092  1.0000
  H   H843      1.0  0.36269  0.13658  0.94709  1.0000
  H   H844      1.0  0.44960  0.19948  0.73901  1.0000
  H   H845      1.0  0.09022  0.21788  0.85814  1.0000
  H   H846      1.0  0.24292  0.17996  0.89526  1.0000
  C   C547      1.0  0.08958  0.12770  0.80468  1.0000
  Fe  Fe116     1.0  0.15968  0.98387  0.91741  1.0000
  H   H847      1.0  0.47402  0.14316  0.94118  1.0000
  H   H848      1.0  0.99743  0.12094  0.77888  1.0000
  H   H849      1.0  0.34310  0.14402  0.75699  1.0000
  H   H850      1.0  0.34926  0.10067  0.93553  1.0000
  H   H851      1.0  0.22454  0.00099  0.73982  1.0000
  H   H852      1.0  0.99603  0.98903  0.79812  1.0000
  H   H853      1.0  0.06142  0.15260  0.78648  1.0000
  H   H854      1.0  0.07414  0.20747  0.95859  1.0000
  H   H855      1.0  0.43447  0.20774  0.75369  1.0000
  H   H856      1.0  0.03713  0.11927  0.74075  1.0000
  H   H857      1.0  0.33521  0.13492  0.93519  1.0000
  H   H858      1.0  0.30464  0.98258  0.94951  1.0000
  N   N53       1.0  0.30646  0.05276  0.88219  1.0000
  H   H859      1.0  0.30983  0.07564  0.86937  1.0000
  C   C548      1.0  0.19466  0.17167  0.80314  1.0000
  H   H860      1.0  0.08263  0.15407  0.81498  1.0000
  H   H861      1.0  0.05976  0.18629  0.88031  1.0000
  C   C549      1.0  0.27309  0.16689  0.88485  1.0000
  C   C550      1.0  0.26387  0.08500  0.79185  1.0000
  H   H862      1.0  0.28577  0.07002  0.88871  1.0000
  H   H863      1.0  0.01196  0.18160  0.94002  1.0000
  N   N54       1.0  0.26601  0.18371  0.88402  1.0000
  H   H864      1.0  0.26539  0.09527  0.78207  1.0000
  H   H865      1.0  0.32632  0.04915  0.89203  1.0000
  C   C551      1.0  0.06002  0.03047  0.87121  1.0000
  H   H866      1.0  0.28647  0.19074  0.86881  1.0000
  H   H867      1.0  0.33112  0.15687  0.76964  1.0000
  H   H868      1.0  0.27204  0.16306  0.87472  1.0000
  Fe  Fe117     1.0  0.27508  0.99850  0.86330  1.0000
  H   H869      1.0  0.29372  0.08778  0.78074  1.0000
  H   H870      1.0  0.28977  0.08192  0.80160  1.0000
  H   H871      1.0  0.09035  0.03290  0.86398  1.0000
  H   H872      1.0  0.30907  0.04484  0.90586  1.0000
  H   H873      1.0  0.37313  0.11027  0.91935  1.0000
  C   C552      1.0  0.37914  0.19612  0.79471  1.0000
  C   C553      1.0  0.24919  0.18670  0.88436  1.0000
  H   H874      1.0  0.42004  0.19078  0.93918  1.0000
  H   H875      1.0  0.28370  0.05808  0.87713  1.0000
  H   H876      1.0  0.08200  0.20733  0.72563  1.0000
  H   H877      1.0  0.24357  0.19932  0.88366  1.0000
  C   C554      1.0  0.99335  0.02252  0.84168  1.0000
  C   C555      1.0  0.00991  0.11537  0.77476  1.0000
  H   H878      1.0  0.05929  0.12625  0.81594  1.0000
  H   H879      1.0  0.31440  0.18737  0.73884  1.0000
  C   C556      1.0  0.07945  0.15525  0.80382  1.0000
  C   C557      1.0  0.29157  0.07780  0.79075  1.0000
  H   H880      1.0  0.29117  0.05737  0.77465  1.0000
  H   H881      1.0  0.31029  0.06476  0.89751  1.0000
  H   H882      1.0  0.46866  0.19394  0.75559  1.0000
  N   N55       1.0  0.07579  0.14071  0.80316  1.0000
  S   S232      1.0  0.39914  0.20059  0.76607  1.0000
  N   N56       1.0  0.44776  0.18502  0.76224  1.0000
  N   N57       1.0  0.27794  0.07218  0.79063  1.0000
  H   H883      1.0  0.27334  0.06234  0.81525  1.0000
  C   C558      1.0  0.45920  0.19127  0.76600  1.0000
  C   C559      1.0  0.45576  0.17045  0.75669  1.0000
  Fe  Fe118     1.0  0.10598  0.19285  0.81172  1.0000
  H   H884      1.0  0.17788  0.20718  0.82785  1.0000
  H   H885      1.0  0.41802  0.19129  0.89915  1.0000
  S   S233      1.0  0.05438  0.15773  0.95348  1.0000
  C   C560      1.0  0.07337  0.21554  0.73255  1.0000
  C   C561      1.0  0.20921  0.17013  0.79268  1.0000
  H   H886      1.0  0.00769  0.10072  0.81826  1.0000
  C   C562      1.0  0.28070  0.06711  0.77591  1.0000
  H   H887      1.0  0.08365  0.20974  0.88707  1.0000
  H   H888      1.0  0.36335  0.19266  0.81721  1.0000
  H   H889      1.0  0.26546  0.05426  0.80423  1.0000
  H   H890      1.0  0.01098  0.00580  0.82045  1.0000
  H   H891      1.0  0.26903  0.20571  0.86842  1.0000
  C   C563      1.0  0.01502  0.13917  0.75646  1.0000
  C   C564      1.0  0.36667  0.20100  0.80662  1.0000
  H   H892      1.0  0.34616  0.12887  0.95912  1.0000
  C   C565      1.0  0.45502  0.14063  0.96127  1.0000
  S   S234      1.0  0.36874  0.00029  0.95674  1.0000
  H   H893      1.0  0.06534  0.13526  0.82761  1.0000
  Fe  Fe119     1.0  0.34714  0.01618  0.96739  1.0000
  C   C566      1.0  0.09380  0.22550  0.73586  1.0000
  H   H894      1.0  0.27054  0.06305  0.77528  1.0000
  C   C567      1.0  0.06255  0.19620  0.87050  1.0000
  C   C568      1.0  0.47033  0.14225  0.95363  1.0000
  H   H895      1.0  0.28608  0.04905  0.80363  1.0000
  Fe  Fe120     1.0  0.31586  0.03577  0.96105  1.0000
  C   C569      1.0  0.09411  0.17650  0.73938  1.0000
  H   H896      1.0  0.26456  0.13857  0.73700  1.0000
  H   H897      1.0  0.21979  0.16623  0.79702  1.0000
  C   C570      1.0  0.18086  0.17650  0.79767  1.0000
  H   H898      1.0  0.24507  0.99336  0.73922  1.0000
  C   C571      1.0  0.09002  0.18760  0.87060  1.0000
  H   H899      1.0  0.38530  0.18400  0.79617  1.0000
  H   H900      1.0  0.38079  0.10596  0.93650  1.0000
  C   C572      1.0  0.07977  0.21403  0.85796  1.0000
  H   H901      1.0  0.09223  0.21955  0.74841  1.0000
  C   C573      1.0  0.35860  0.21665  0.80479  1.0000
  C   C574      1.0  0.27105  0.10520  0.74335  1.0000
  H   H902      1.0  0.09393  0.02329  0.88307  1.0000
  H   H903      1.0  0.08722  0.11648  0.80439  1.0000
  H   H904      1.0  0.23890  0.15579  0.73539  1.0000
  H   H905      1.0  0.19411  0.16903  0.81552  1.0000
  C   C575      1.0  0.42471  0.17929  0.93577  1.0000
  H   H906      1.0  0.44020  0.17332  0.78605  1.0000
  C   C576      1.0  0.08463  0.02989  0.87652  1.0000
  H   H907      1.0  0.42870  0.19266  0.78043  1.0000
  C   C577      1.0  0.10674  0.18175  0.74040  1.0000
  C   C578      1.0  0.25526  0.10600  0.75048  1.0000
  H   H908      1.0  0.08150  0.14549  0.77807  1.0000
  H   H909      1.0  0.06318  0.21611  0.88701  1.0000
  C   C579      1.0  0.99137  0.07353  0.84717  1.0000
  C   C580      1.0  0.23542  0.99403  0.73370  1.0000
  H   H910      1.0  0.07938  0.04107  0.88045  1.0000
  C   C581      1.0  0.00073  0.17917  0.94634  1.0000
  C   C582      1.0  0.40142  0.18059  0.92755  1.0000
  H   H911      1.0  0.32218  0.14650  0.76193  1.0000
  H   H912      1.0  0.39627  0.18035  0.91798  1.0000
  H   H913      1.0  0.28920  0.09991  0.72345  1.0000
  H   H914      1.0  0.26298  0.20103  0.89709  1.0000
  H   H915      1.0  0.05958  0.02667  0.90096  1.0000
  H   H916      1.0  0.05783  0.00850  0.89841  1.0000
  S   S235      1.0  0.28353  0.10992  0.75209  1.0000
  H   H917      1.0  0.37877  0.12525  0.92436  1.0000
  H   H918      1.0  0.27264  0.18969  0.85895  1.0000
  H   H919      1.0  0.06881  0.13205  0.78716  1.0000
  C   C583      1.0  0.42247  0.19144  0.90923  1.0000
  C   C584      1.0  0.07165  0.21931  0.96014  1.0000
  H   H920      1.0  0.05205  0.20595  0.87106  1.0000
  H   H921      1.0  0.18303  0.98430  0.87595  1.0000
  Fe  Fe121     1.0  0.38336  0.15028  0.96016  1.0000
  H   H922      1.0  0.12479  0.00635  0.96539  1.0000
  H   H923      1.0  0.00711  0.10802  0.74914  1.0000
  S   S236      1.0  0.04840  0.18853  0.96838  1.0000
  H   H924      1.0  0.16018  0.20431  0.82524  1.0000
  H   H925      1.0  0.00825  0.98693  0.86246  1.0000
  H   H926      1.0  0.42664  0.17683  0.77388  1.0000
  S   S237      1.0  0.10171  0.21239  0.79119  1.0000
  C   C585      1.0  0.34372  0.17367  0.74195  1.0000
  H   H927      1.0  0.07069  0.18024  0.77483  1.0000
  H   H928      1.0  0.39815  0.17102  0.93754  1.0000
  H   H929      1.0  0.01947  0.14474  0.74409  1.0000
  H   H930      1.0  0.08501  0.00953  0.86001  1.0000
  H   H931      1.0  0.99672  0.06498  0.86991  1.0000
  S   S238      1.0  0.98857  0.02094  0.80058  1.0000
  C   C586      1.0  0.09361  0.18542  0.76645  1.0000
  H   H932      1.0  0.35520  0.16546  0.73920  1.0000
  H   H933      1.0  0.07135  0.99938  0.87461  1.0000
  C   C587      1.0  0.08089  0.18034  0.76534  1.0000
  C   C588      1.0  0.33120  0.15984  0.73178  1.0000
  S   S239      1.0  0.06449  0.17087  0.75020  1.0000
  C   C589      1.0  0.06249  0.13711  0.81610  1.0000
  C   C590      1.0  0.43536  0.18177  0.77630  1.0000
  H   H934      1.0  0.15200  0.02906  0.96677  1.0000
  H   H935      1.0  0.08211  0.21057  0.84664  1.0000
  H   H936      1.0  0.01011  0.12620  0.73611  1.0000
  C   C591      1.0  0.01368  0.00179  0.83225  1.0000
  H   H937      1.0  0.02293  0.00752  0.83221  1.0000
  H   H938      1.0  0.11672  0.18236  0.73068  1.0000
  C   C592      1.0  0.36825  0.98062  0.96511  1.0000
  H   H939      1.0  0.13462  0.04557  0.94911  1.0000
  Fe  Fe122     1.0  0.06368  0.17124  0.72564  1.0000
  C   C593      1.0  0.26969  0.14502  0.72529  1.0000
  Fe  Fe123     1.0  0.06858  0.16968  0.96078  1.0000
  C   C594      1.0  0.17042  0.20977  0.81934  1.0000
  N   N58       1.0  0.99956  0.00543  0.84448  1.0000
  C   C595      1.0  0.31565  0.17718  0.74880  1.0000
  H   H940      1.0  0.06445  0.19228  0.85951  1.0000
  H   H941      1.0  0.28068  0.18642  0.89735  1.0000
  H   H942      1.0  0.99216  0.13487  0.92880  1.0000
  C   C596      1.0  0.99764  0.17429  0.96257  1.0000
  H   H943      1.0  0.17720  0.20373  0.80971  1.0000
  C   C597      1.0  0.00358  0.99982  0.85994  1.0000
  H   H944      1.0  0.00192  0.02886  0.84217  1.0000
  H   H945      1.0  0.01265  0.00538  0.86068  1.0000
  C   C598      1.0  0.99448  0.08361  0.83261  1.0000
  Fe  Fe124     1.0  0.11995  0.22112  0.79621  1.0000
  C   C599      1.0  0.37554  0.22252  0.77912  1.0000
  H   H946      1.0  0.00276  0.14557  0.76006  1.0000
  H   H947      1.0  0.13407  0.02808  0.94427  1.0000
  H   H948      1.0  0.07122  0.20921  0.74495  1.0000
  H   H949      1.0  0.23370  0.98195  0.73602  1.0000
  N   N59       1.0  0.12847  0.02730  0.96886  1.0000
  H   H950      1.0  0.16147  0.22383  0.79238  1.0000
  H   H951      1.0  0.36287  0.05501  0.96972  1.0000
  H   H952      1.0  0.18619  0.22798  0.79524  1.0000
  S   S240      1.0  0.32447  0.01018  0.96943  1.0000
  H   H953      1.0  0.15044  0.01139  0.96290  1.0000
  H   H954      1.0  0.06225  0.21827  0.72866  1.0000
  H   H955      1.0  0.99376  0.12595  0.75241  1.0000
  C   C600      1.0  0.14478  0.02014  0.97032  1.0000
  C   C601      1.0  0.47010  0.22604  0.75057  1.0000
  H   H956      1.0  0.37549  0.18152  0.72278  1.0000
  C   C602      1.0  0.15532  0.22950  0.80240  1.0000
  H   H957      1.0  0.10725  0.01985  0.97186  1.0000
  H   H958      1.0  0.24834  0.17182  0.72653  1.0000
  H   H959      1.0  0.27459  0.15409  0.72707  1.0000
  C   C603      1.0  0.46634  0.22626  0.72533  1.0000
  H   H960      1.0  0.98980  0.06967  0.76509  1.0000
  S   S241      1.0  0.98909  0.05982  0.80750  1.0000
  C   C604      1.0  0.46015  0.22889  0.74040  1.0000
  H   H961      1.0  0.22583  0.98107  0.85736  1.0000
  C   C605      1.0  0.25021  0.98091  0.85384  1.0000
  C   C606      1.0  0.48624  0.22056  0.74573  1.0000
  C   C607      1.0  0.07777  0.22254  0.97103  1.0000
  C   C608      1.0  0.98762  0.99759  0.84400  1.0000
  N   N60       1.0  0.07897  0.22982  0.73058  1.0000
  H   H962      1.0  0.16835  0.98007  0.85170  1.0000
  S   S242      1.0  0.08344  0.29489  0.02099  1.0000
  H   H963      1.0  0.08077  0.41646  0.20344  1.0000
  H   H964      1.0  0.46347  0.26733  0.15509  1.0000
  Fe  Fe125     1.0  0.26221  0.30110  0.03407  1.0000
  S   S243      1.0  0.27507  0.27646  0.03271  1.0000
  Fe  Fe126     1.0  0.23312  0.32560  0.04326  1.0000
  S   S244      1.0  0.20965  0.32977  0.05960  1.0000
  Fe  Fe127     1.0  0.26488  0.33154  0.03979  1.0000
  S   S245      1.0  0.27843  0.33925  0.05226  1.0000
  S   S246      1.0  0.24101  0.31246  0.02400  1.0000
  S   S247      1.0  0.25309  0.31228  0.05464  1.0000
  Fe  Fe128     1.0  0.10632  0.34448  0.07049  1.0000
  S   S248      1.0  0.12114  0.36131  0.06795  1.0000
  S   S249      1.0  0.10555  0.32475  0.09171  1.0000
  Fe  Fe129     1.0  0.09458  0.36210  0.04121  1.0000
  S   S250      1.0  0.10854  0.38028  0.03582  1.0000
  S   S251      1.0  0.07862  0.36370  0.02588  1.0000
  Fe  Fe130     1.0  0.12791  0.36023  0.04267  1.0000
  S   S252      1.0  0.15221  0.35748  0.02743  1.0000
  Fe  Fe131     1.0  0.10066  0.37986  0.06133  1.0000
  S   S253      1.0  0.08955  0.40208  0.06982  1.0000
  S   S254      1.0  0.11465  0.34194  0.04566  1.0000
  S   S255      1.0  0.08511  0.36316  0.06629  1.0000
  H   H965      1.0  0.27928  0.25802  0.99193  1.0000
  H   H966      1.0  0.09437  0.23560  0.17728  1.0000
  H   H967      1.0  0.01089  0.35695  0.20300  1.0000
  Fe  Fe132     1.0  0.39424  0.25080  0.17814  1.0000
  S   S256      1.0  0.38797  0.27107  0.18990  1.0000
  S   S257      1.0  0.40942  0.25036  0.15420  1.0000
  Fe  Fe133     1.0  0.35459  0.37058  0.18154  1.0000
  S   S258      1.0  0.35507  0.36432  0.15945  1.0000
  S   S259      1.0  0.33549  0.36478  0.20239  1.0000
  Fe  Fe134     1.0  0.38108  0.38743  0.16651  1.0000
  S   S260      1.0  0.38375  0.38264  0.14306  1.0000
  S   S261      1.0  0.39449  0.40362  0.16904  1.0000
  Fe  Fe135     1.0  0.35755  0.38884  0.14789  1.0000
  S   S262      1.0  0.34442  0.40543  0.12999  1.0000
  Fe  Fe136     1.0  0.38104  0.35852  0.15653  1.0000
  S   S263      1.0  0.39486  0.33729  0.14697  1.0000
  S   S264      1.0  0.35505  0.39564  0.17032  1.0000
  S   S265      1.0  0.38050  0.36270  0.17972  1.0000
  H   H968      1.0  0.36326  0.42272  0.09015  1.0000
  C   C609      1.0  0.07465  0.23782  0.97308  1.0000
  Fe  Fe137     1.0  0.10530  0.41780  0.13505  1.0000
  S   S266      1.0  0.09266  0.44049  0.14201  1.0000
  S   S267      1.0  0.12414  0.41568  0.11354  1.0000
  Fe  Fe138     1.0  0.08753  0.39821  0.16343  1.0000
  C   C610      1.0  0.11993  0.45779  0.18089  1.0000
  S   S268      1.0  0.08732  0.37290  0.17409  1.0000
  Fe  Fe139     1.0  0.07136  0.43033  0.14815  1.0000
  Fe  Fe140     1.0  0.09578  0.42732  0.16600  1.0000
  S   S269      1.0  0.08391  0.40855  0.13931  1.0000
  S   S270      1.0  0.11022  0.40540  0.15842  1.0000
  S   S271      1.0  0.07324  0.41919  0.17300  1.0000
  H   H969      1.0  0.08933  0.46259  0.16450  1.0000
  Fe  Fe141     1.0  0.27089  0.40305  0.10951  1.0000
  S   S272      1.0  0.27959  0.41626  0.08548  1.0000
  S   S273      1.0  0.28760  0.38380  0.12170  1.0000
  Fe  Fe142     1.0  0.25775  0.41419  0.08049  1.0000
  S   S274      1.0  0.25758  0.41023  0.05733  1.0000
  S   S275      1.0  0.25017  0.39897  0.10381  1.0000
  H   H970      1.0  0.06507  0.42574  0.11957  1.0000
  H   H971      1.0  0.12756  0.44883  0.18755  1.0000
  C   C611      1.0  0.07063  0.36884  0.18824  1.0000
  H   H972      1.0  0.08218  0.34520  0.19697  1.0000
  Fe  Fe143     1.0  0.08270  0.26690  0.98220  1.0000
  C   C612      1.0  0.04372  0.37679  0.20171  1.0000
  C   C613      1.0  0.05671  0.38020  0.18989  1.0000
  H   H973      1.0  0.03298  0.38561  0.20302  1.0000
  H   H974      1.0  0.05593  0.39157  0.18206  1.0000
  C   C614      1.0  0.40573  0.39689  0.18327  1.0000
  C   C615      1.0  0.41296  0.40726  0.18592  1.0000
  C   C616      1.0  0.42181  0.40237  0.19737  1.0000
  C   C617      1.0  0.42313  0.38716  0.20647  1.0000
  C   C618      1.0  0.41575  0.37683  0.20396  1.0000
  C   C619      1.0  0.40719  0.38164  0.19225  1.0000
  H   H975      1.0  0.41151  0.41919  0.17930  1.0000
  C   C620      1.0  0.27642  0.29619  0.99108  1.0000
  H   H976      1.0  0.41678  0.36505  0.21099  1.0000
  H   H977      1.0  0.40175  0.37353  0.19023  1.0000
  C   C621      1.0  0.32864  0.39937  0.12765  1.0000
  C   C622      1.0  0.31714  0.41034  0.12048  1.0000
  C   C623      1.0  0.30449  0.40567  0.11859  1.0000
  C   C624      1.0  0.30333  0.39000  0.12383  1.0000
  C   C625      1.0  0.31489  0.37905  0.13083  1.0000
  C   C626      1.0  0.32751  0.38371  0.13270  1.0000
  H   H978      1.0  0.31785  0.42248  0.11658  1.0000
  H   H979      1.0  0.29560  0.41419  0.11319  1.0000
  H   H980      1.0  0.31411  0.36691  0.13476  1.0000
  H   H981      1.0  0.33648  0.37511  0.13779  1.0000
  C   C627      1.0  0.38926  0.28957  0.17786  1.0000
  C   C628      1.0  0.39157  0.29207  0.16169  1.0000
  C   C629      1.0  0.39320  0.30680  0.15228  1.0000
  C   C630      1.0  0.39202  0.31922  0.15903  1.0000
  C   C631      1.0  0.38933  0.31684  0.17523  1.0000
  C   C632      1.0  0.38818  0.30196  0.18460  1.0000
  H   H982      1.0  0.39219  0.28264  0.15640  1.0000
  H   H983      1.0  0.39523  0.30864  0.13975  1.0000
  H   H984      1.0  0.38866  0.32633  0.18047  1.0000
  H   H985      1.0  0.38660  0.30000  0.19710  1.0000
  N   N61       1.0  0.08075  0.39337  0.21789  1.0000
  C   C633      1.0  0.06445  0.39410  0.21768  1.0000
  H   H986      1.0  0.08681  0.30709  0.04511  1.0000
  H   H987      1.0  0.14685  0.31852  0.03441  1.0000
  H   H988      1.0  0.07563  0.32479  0.00002  1.0000
  C   C634      1.0  0.07933  0.34470  0.02468  1.0000
  C   C635      1.0  0.08289  0.33208  0.03685  1.0000
  S   S276      1.0  0.25782  0.34072  0.98519  1.0000
  H   H989      1.0  0.99510  0.32161  0.21003  1.0000
  H   H990      1.0  0.04644  0.36136  0.98431  1.0000
  C   C636      1.0  0.07655  0.34208  0.01145  1.0000
  H   H991      1.0  0.08472  0.33408  0.04723  1.0000
  C   C637      1.0  0.47028  0.44381  0.16224  1.0000
  H   H992      1.0  0.07396  0.35182  0.00196  1.0000
  C   C638      1.0  0.10002  0.40692  0.08051  1.0000
  C   C639      1.0  0.09229  0.41787  0.08976  1.0000
  C   C640      1.0  0.09990  0.42090  0.09955  1.0000
  C   C641      1.0  0.11540  0.41326  0.09986  1.0000
  C   C642      1.0  0.12342  0.40283  0.09008  1.0000
  C   C643      1.0  0.11568  0.39955  0.08049  1.0000
  H   H993      1.0  0.08029  0.42380  0.08958  1.0000
  H   H994      1.0  0.09372  0.42912  0.10693  1.0000
  H   H995      1.0  0.13543  0.39693  0.09027  1.0000
  H   H996      1.0  0.12182  0.39135  0.07311  1.0000
  C   C644      1.0  0.16826  0.35145  0.03630  1.0000
  C   C645      1.0  0.18330  0.34734  0.02723  1.0000
  C   C646      1.0  0.19617  0.34096  0.03426  1.0000
  C   C647      1.0  0.19397  0.33864  0.05040  1.0000
  C   C648      1.0  0.17901  0.34311  0.05942  1.0000
  C   C649      1.0  0.16619  0.34964  0.05237  1.0000
  H   H997      1.0  0.18496  0.34878  0.01478  1.0000
  H   H998      1.0  0.20772  0.33760  0.02722  1.0000
  H   H999      1.0  0.17731  0.34144  0.07190  1.0000
  H   H1000     1.0  0.15471  0.35305  0.05940  1.0000
  C   C650      1.0  0.27299  0.35910  0.05325  1.0000
  C   C651      1.0  0.26544  0.37039  0.04232  1.0000
  C   C652      1.0  0.26099  0.38613  0.04348  1.0000
  C   C653      1.0  0.26382  0.39058  0.05573  1.0000
  C   C654      1.0  0.27126  0.37926  0.06673  1.0000
  C   C655      1.0  0.27597  0.36358  0.06539  1.0000
  H   H1001     1.0  0.26326  0.36706  0.03282  1.0000
  H   H1002     1.0  0.25526  0.39486  0.03494  1.0000
  H   H1003     1.0  0.27349  0.38259  0.07622  1.0000
  H   H1004     1.0  0.28178  0.35489  0.07390  1.0000
  H   H1005     1.0  0.08958  0.39182  0.19389  1.0000
  C   C656      1.0  0.26864  0.28530  0.97401  1.0000
  N   N62       1.0  0.02834  0.36206  0.00523  1.0000
  H   H1006     1.0  0.38460  0.40810  0.20978  1.0000
  C   C657      1.0  0.08317  0.40940  0.21491  1.0000
  C   C658      1.0  0.36716  0.23266  0.11545  1.0000
  C   C659      1.0  0.29426  0.25208  0.04804  1.0000
  C   C660      1.0  0.28168  0.26495  0.04943  1.0000
  C   C661      1.0  0.27482  0.26867  0.06400  1.0000
  C   C662      1.0  0.28062  0.25960  0.07713  1.0000
  C   C663      1.0  0.46709  0.46148  0.13742  1.0000
  H   H1007     1.0  0.29962  0.24917  0.03678  1.0000
  H   H1008     1.0  0.26493  0.27839  0.06521  1.0000
  H   H1009     1.0  0.27526  0.26247  0.08841  1.0000
  S   S277      1.0  0.24431  0.34572  0.02964  1.0000
  C   C664      1.0  0.11615  0.27617  0.08141  1.0000
  C   C665      1.0  0.11178  0.28950  0.07016  1.0000
  C   C666      1.0  0.10796  0.30441  0.07345  1.0000
  C   C667      1.0  0.10869  0.30609  0.08793  1.0000
  C   C668      1.0  0.11273  0.29272  0.09930  1.0000
  C   C669      1.0  0.11643  0.27777  0.09607  1.0000
  H   H1010     1.0  0.11138  0.28832  0.05885  1.0000
  H   H1011     1.0  0.10439  0.31459  0.06479  1.0000
  H   H1012     1.0  0.11325  0.29392  0.11056  1.0000
  H   H1013     1.0  0.11976  0.26752  0.10483  1.0000
  H   H1014     1.0  0.43863  0.23588  0.18285  1.0000
  H   H1015     1.0  0.16725  0.43700  0.14230  1.0000
  S   S278      1.0  0.98872  0.41873  0.08485  1.0000
  C   C670      1.0  0.34043  0.35996  0.22056  1.0000
  C   C671      1.0  0.24903  0.46128  0.13388  1.0000
  H   H1016     1.0  0.14591  0.33136  0.05478  1.0000
  S   S279      1.0  0.98857  0.34779  0.99924  1.0000
  H   H1017     1.0  0.08336  0.23214  0.15749  1.0000
  H   H1018     1.0  0.35616  0.38603  0.20950  1.0000
  S   S280      1.0  0.04844  0.44467  0.14229  1.0000
  N   N63       1.0  0.04913  0.40775  0.05280  1.0000
  C   C672      1.0  0.03477  0.41002  0.04725  1.0000
  C   C673      1.0  0.04887  0.39561  0.06738  1.0000
  C   C674      1.0  0.04989  0.42263  0.05572  1.0000
  C   C675      1.0  0.06300  0.40275  0.04088  1.0000
  H   H1019     1.0  0.02408  0.41366  0.05608  1.0000
  H   H1020     1.0  0.03381  0.39908  0.04483  1.0000
  H   H1021     1.0  0.03436  0.41926  0.03639  1.0000
  H   H1022     1.0  0.05906  0.39428  0.07239  1.0000
  H   H1023     1.0  0.03815  0.39861  0.07638  1.0000
  H   H1024     1.0  0.04912  0.38404  0.06541  1.0000
  H   H1025     1.0  0.06031  0.42124  0.06041  1.0000
  H   H1026     1.0  0.03944  0.42693  0.06438  1.0000
  H   H1027     1.0  0.05045  0.43196  0.04489  1.0000
  H   H1028     1.0  0.06359  0.41155  0.02967  1.0000
  H   H1029     1.0  0.06292  0.39148  0.03846  1.0000
  H   H1030     1.0  0.07400  0.40102  0.04476  1.0000
  H   H1031     1.0  0.19592  0.47674  0.09544  1.0000
  H   H1032     1.0  0.02204  0.38258  0.98779  1.0000
  H   H1033     1.0  0.42172  0.30125  0.16721  1.0000
  H   H1034     1.0  0.42030  0.27487  0.16591  1.0000
  H   H1035     1.0  0.34937  0.43615  0.07948  1.0000
  S   S281      1.0  0.00582  0.44773  0.06414  1.0000
  S   S282      1.0  0.08205  0.24153  0.98707  1.0000
  H   H1036     1.0  0.07371  0.26385  0.06788  1.0000
  S   S283      1.0  0.08801  0.30935  0.97460  1.0000
  S   S284      1.0  0.47216  0.46590  0.11702  1.0000
  C   C676      1.0  0.47461  0.44745  0.14589  1.0000
  C   C677      1.0  0.03203  0.42725  0.10865  1.0000
  H   H1037     1.0  0.29135  0.46598  0.02908  1.0000
  C   C678      1.0  0.08488  0.26623  0.05998  1.0000
  H   H1038     1.0  0.00921  0.44050  0.11731  1.0000
  H   H1039     1.0  0.17750  0.30898  0.05680  1.0000
  C   C679      1.0  0.36074  0.44025  0.11013  1.0000
  C   C680      1.0  0.34922  0.32089  0.17376  1.0000
  C   C681      1.0  0.33346  0.31024  0.19831  1.0000
  H   H1040     1.0  0.35868  0.31018  0.17507  1.0000
  H   H1041     1.0  0.35491  0.33071  0.16672  1.0000
  C   C682      1.0  0.30017  0.24312  0.06113  1.0000
  Fe  Fe144     1.0  0.12415  0.23752  0.09721  1.0000
  C   C683      1.0  0.03983  0.35350  0.99381  1.0000
  H   H1042     1.0  0.32575  0.30765  0.19232  1.0000
  C   C684      1.0  0.43275  0.27080  0.16664  1.0000
  H   H1043     1.0  0.01809  0.44979  0.13572  1.0000
  C   C685      1.0  0.07768  0.32679  0.01027  1.0000
  Fe  Fe145     1.0  0.45125  0.39528  0.21764  1.0000
  H   H1044     1.0  0.10538  0.26883  0.03238  1.0000
  S   S285      1.0  0.02620  0.41958  0.09616  1.0000
  C   C686      1.0  0.19507  0.45075  0.13698  1.0000
  H   H1045     1.0  0.36060  0.24451  0.11235  1.0000
  C   C687      1.0  0.20290  0.45356  0.10901  1.0000
  H   H1046     1.0  0.37098  0.46210  0.08542  1.0000
  C   C688      1.0  0.08153  0.31414  0.02232  1.0000
  H   H1047     1.0  0.11929  0.23444  0.18474  1.0000
  N   N64       1.0  0.36428  0.39853  0.22127  1.0000
  S   S286      1.0  0.48303  0.41815  0.21208  1.0000
  H   H1048     1.0  0.48333  0.47453  0.19133  1.0000
  C   C689      1.0  0.31729  0.44677  0.07059  1.0000
  C   C690      1.0  0.16079  0.46757  0.21918  1.0000
  N   N65       1.0  0.22116  0.36429  0.07323  1.0000
  C   C691      1.0  0.23294  0.34941  0.07495  1.0000
  C   C692      1.0  0.22019  0.37013  0.05669  1.0000
  C   C693      1.0  0.22577  0.37595  0.07846  1.0000
  C   C694      1.0  0.20576  0.36167  0.08278  1.0000
  H   H1049     1.0  0.24463  0.35087  0.06767  1.0000
  H   H1050     1.0  0.22976  0.34028  0.07129  1.0000
  H   H1051     1.0  0.21147  0.38138  0.05493  1.0000
  H   H1052     1.0  0.23164  0.37213  0.04912  1.0000
  H   H1053     1.0  0.21664  0.36163  0.05242  1.0000
  H   H1054     1.0  0.23742  0.37804  0.07158  1.0000
  H   H1055     1.0  0.22655  0.37200  0.09092  1.0000
  H   H1056     1.0  0.19658  0.37266  0.08174  1.0000
  H   H1057     1.0  0.20606  0.35717  0.09532  1.0000
  H   H1058     1.0  0.20196  0.35295  0.07905  1.0000
  H   H1059     1.0  0.01957  0.33752  0.21156  1.0000
  S   S287      1.0  0.30118  0.23647  0.09203  1.0000
  N   N66       1.0  0.15504  0.30689  0.05546  1.0000
  C   C695      1.0  0.01657  0.37392  0.99743  1.0000
  H   H1060     1.0  0.16964  0.44786  0.12251  1.0000
  H   H1061     1.0  0.01411  0.34501  0.01353  1.0000
  H   H1062     1.0  0.34325  0.33007  0.20882  1.0000
  S   S288      1.0  0.10483  0.23535  0.11858  1.0000
  H   H1063     1.0  0.32565  0.43584  0.06959  1.0000
  S   S289      1.0  0.12190  0.25772  0.07664  1.0000
  C   C696      1.0  0.29336  0.24687  0.07570  1.0000
  H   H1064     1.0  0.19509  0.44357  0.14859  1.0000
  H   H1065     1.0  0.36502  0.35178  0.21177  1.0000
  N   N67       1.0  0.44117  0.42637  0.14226  1.0000
  C   C697      1.0  0.45010  0.41527  0.15354  1.0000
  C   C698      1.0  0.42969  0.41903  0.14003  1.0000
  C   C699      1.0  0.45200  0.43060  0.12717  1.0000
  C   C700      1.0  0.43288  0.44062  0.14830  1.0000
  H   H1066     1.0  0.45647  0.40434  0.14942  1.0000
  H   H1067     1.0  0.44231  0.41188  0.16509  1.0000
  H   H1068     1.0  0.42267  0.42709  0.13166  1.0000
  H   H1069     1.0  0.43548  0.40818  0.13556  1.0000
  H   H1070     1.0  0.42134  0.41569  0.15118  1.0000
  H   H1071     1.0  0.42446  0.43795  0.15956  1.0000
  H   H1072     1.0  0.42630  0.44944  0.13995  1.0000
  H   H1073     1.0  0.44118  0.44626  0.15038  1.0000
  N   N68       1.0  0.99446  0.34272  0.21660  1.0000
  H   H1074     1.0  0.06915  0.47631  0.10030  1.0000
  H   H1075     1.0  0.22221  0.47303  0.11149  1.0000
  H   H1076     1.0  0.44671  0.29903  0.13735  1.0000
  H   H1077     1.0  0.11399  0.24839  0.03402  1.0000
  H   H1078     1.0  0.43783  0.26090  0.16059  1.0000
  H   H1079     1.0  0.14054  0.43393  0.15787  1.0000
  H   H1080     1.0  0.46482  0.28657  0.15521  1.0000
  H   H1081     1.0  0.37535  0.37722  0.21326  1.0000
  H   H1082     1.0  0.42731  0.41045  0.19942  1.0000
  H   H1083     1.0  0.13471  0.30632  0.04839  1.0000
  H   H1084     1.0  0.09487  0.23694  0.22012  1.0000
  C   C701      1.0  0.14017  0.45137  0.11996  1.0000
  H   H1085     1.0  0.13090  0.46817  0.14217  1.0000
  H   H1086     1.0  0.99788  0.40499  0.01933  1.0000
  H   H1087     1.0  0.04522  0.36115  0.01796  1.0000
  H   H1088     1.0  0.07154  0.24975  0.04925  1.0000
  C   C702      1.0  0.02644  0.44247  0.12827  1.0000
  C   C703      1.0  0.29100  0.46064  0.08010  1.0000
  H   H1089     1.0  0.14289  0.29055  0.07292  1.0000
  H   H1090     1.0  0.37951  0.44294  0.08149  1.0000
  H   H1091     1.0  0.07570  0.23873  0.19049  1.0000
  C   C704      1.0  0.32187  0.46099  0.06370  1.0000
  C   C705      1.0  0.19557  0.46948  0.10706  1.0000
  H   H1092     1.0  0.35814  0.41974  0.20461  1.0000
  C   C706      1.0  0.17130  0.30846  0.04814  1.0000
  H   H1093     1.0  0.35948  0.31660  0.20008  1.0000
  H   H1094     1.0  0.18280  0.47180  0.14510  1.0000
  S   S290      1.0  0.37619  0.24044  0.17475  1.0000
  C   C707      1.0  0.02138  0.43722  0.11786  1.0000
  Fe  Fe146     1.0  0.25405  0.33143  0.01119  1.0000
  C   C708      1.0  0.99352  0.32610  0.22061  1.0000
  H   H1095     1.0  0.01243  0.32059  0.00571  1.0000
  H   H1096     1.0  0.25263  0.46633  0.14171  1.0000
  N   N69       1.0  0.44131  0.28351  0.15962  1.0000
  H   H1097     1.0  0.06416  0.23602  0.16971  1.0000
  C   C709      1.0  0.44043  0.28937  0.14306  1.0000
  C   C710      1.0  0.43415  0.29638  0.16798  1.0000
  C   C711      1.0  0.27761  0.26848  0.99669  1.0000
  S   S291      1.0  0.45317  0.45055  0.19039  1.0000
  C   C712      1.0  0.23411  0.31611  0.97310  1.0000
  C   C713      1.0  0.14346  0.46212  0.13984  1.0000
  H   H1098     1.0  0.34295  0.29961  0.20021  1.0000
  Fe  Fe147     1.0  0.46130  0.42584  0.20270  1.0000
  S   S292      1.0  0.99601  0.42349  0.04072  1.0000
  H   H1099     1.0  0.15267  0.32046  0.07215  1.0000
  C   C714      1.0  0.05284  0.42853  0.11959  1.0000
  S   S293      1.0  0.34114  0.46076  0.05329  1.0000
  C   C715      1.0  0.08396  0.31682  0.03569  1.0000
  C   C716      1.0  0.10764  0.25750  0.04085  1.0000
  C   C717      1.0  0.14672  0.31996  0.06330  1.0000
  H   H1100     1.0  0.37115  0.43035  0.10975  1.0000
  N   N70       1.0  0.08713  0.36907  0.11946  1.0000
  C   C718      1.0  0.07515  0.37266  0.13342  1.0000
  C   C719      1.0  0.08031  0.37561  0.10555  1.0000
  C   C720      1.0  0.09264  0.35194  0.12127  1.0000
  C   C721      1.0  0.10045  0.37612  0.11755  1.0000
  H   H1101     1.0  0.08002  0.36838  0.14412  1.0000
  H   H1102     1.0  0.06510  0.36717  0.13548  1.0000
  H   H1103     1.0  0.07042  0.38549  0.13218  1.0000
  H   H1104     1.0  0.08909  0.37321  0.09480  1.0000
  H   H1105     1.0  0.07024  0.37055  0.10650  1.0000
  H   H1106     1.0  0.07606  0.38854  0.10377  1.0000
  H   H1107     1.0  0.10173  0.34884  0.11093  1.0000
  H   H1108     1.0  0.08295  0.34621  0.12254  1.0000
  H   H1109     1.0  0.09779  0.34660  0.13172  1.0000
  H   H1110     1.0  0.10985  0.37342  0.10728  1.0000
  H   H1111     1.0  0.10565  0.37184  0.12801  1.0000
  H   H1112     1.0  0.09678  0.38907  0.11568  1.0000
  H   H1113     1.0  0.02902  0.34170  0.02401  1.0000
  N   N71       1.0  0.28817  0.44253  0.03950  1.0000
  C   C722      1.0  0.28298  0.44107  0.02617  1.0000
  C   C723      1.0  0.29741  0.42723  0.04613  1.0000
  C   C724      1.0  0.27434  0.44744  0.05149  1.0000
  C   C725      1.0  0.29790  0.45431  0.03426  1.0000
  H   H1114     1.0  0.27565  0.43218  0.02986  1.0000
  H   H1115     1.0  0.29309  0.43740  0.01684  1.0000
  H   H1116     1.0  0.27583  0.45235  0.02094  1.0000
  H   H1117     1.0  0.30783  0.42307  0.03735  1.0000
  H   H1118     1.0  0.30166  0.42792  0.05613  1.0000
  H   H1119     1.0  0.29032  0.41811  0.05040  1.0000
  H   H1120     1.0  0.27777  0.44831  0.06187  1.0000
  H   H1121     1.0  0.26660  0.43895  0.05553  1.0000
  H   H1122     1.0  0.99419  0.47844  0.09778  1.0000
  C   C726      1.0  0.35333  0.41338  0.21653  1.0000
  H   H1123     1.0  0.47911  0.46736  0.17702  1.0000
  H   H1124     1.0  0.30858  0.45091  0.02536  1.0000
  H   H1125     1.0  0.44573  0.43927  0.11848  1.0000
  H   H1126     1.0  0.21730  0.38742  0.07713  1.0000
  H   H1127     1.0  0.26574  0.27028  0.00447  1.0000
  C   C727      1.0  0.09843  0.46550  0.16786  1.0000
  C   C728      1.0  0.04217  0.43798  0.12928  1.0000
  H   H1128     1.0  0.04283  0.37805  0.00243  1.0000
  C   C729      1.0  0.14706  0.30732  0.04331  1.0000
  H   H1129     1.0  0.13458  0.31890  0.06936  1.0000
  C   C730      1.0  0.03646  0.36982  0.01174  1.0000
  H   H1130     1.0  0.14750  0.45968  0.15085  1.0000
  H   H1131     1.0  0.23418  0.34476  0.08723  1.0000
  H   H1132     1.0  0.17164  0.31937  0.03894  1.0000
  H   H1133     1.0  0.45888  0.42043  0.15551  1.0000
  C   C731      1.0  0.10826  0.45387  0.17647  1.0000
  C   C732      1.0  0.36719  0.38859  0.21005  1.0000
  H   H1134     1.0  0.43439  0.29232  0.18058  1.0000
  H   H1135     1.0  0.48389  0.43951  0.13981  1.0000
  S   S294      1.0  0.27581  0.31921  0.02011  1.0000
  Fe  Fe148     1.0  0.48562  0.39537  0.20575  1.0000
  S   S295      1.0  0.10608  0.43439  0.18193  1.0000
  N   N72       1.0  0.09294  0.25375  0.05125  1.0000
  S   S296      1.0  0.10229  0.27227  0.98845  1.0000
  H   H1136     1.0  0.02810  0.37661  0.02020  1.0000
  H   H1137     1.0  0.08569  0.23551  0.07042  1.0000
  H   H1138     1.0  0.05615  0.46325  0.10974  1.0000
  H   H1139     1.0  0.32646  0.31218  0.20997  1.0000
  C   C733      1.0  0.08274  0.25257  0.04181  1.0000
  H   H1140     1.0  0.28614  0.26566  0.00421  1.0000
  C   C734      1.0  0.15501  0.29193  0.06705  1.0000
  H   H1141     1.0  0.08850  0.24338  0.03493  1.0000
  N   N73       1.0  0.23617  0.47231  0.12706  1.0000
  S   S297      1.0  0.46528  0.40408  0.19398  1.0000
  H   H1142     1.0  0.11560  0.25852  0.04756  1.0000
  H   H1143     1.0  0.24179  0.46216  0.10709  1.0000
  H   H1144     1.0  0.33168  0.45377  0.10536  1.0000
  Fe  Fe149     1.0  0.98921  0.43503  0.06138  1.0000
  C   C735      1.0  0.29582  0.28002  0.97480  1.0000
  H   H1145     1.0  0.44034  0.30617  0.16304  1.0000
  H   H1146     1.0  0.36517  0.45609  0.07126  1.0000
  C   C736      1.0  0.09651  0.23869  0.06235  1.0000
  H   H1147     1.0  0.31988  0.34064  0.19812  1.0000
  N   N74       1.0  0.33993  0.32400  0.18907  1.0000
  H   H1148     1.0  0.03742  0.30941  0.98945  1.0000
  H   H1149     1.0  0.45897  0.27332  0.17315  1.0000
  C   C737      1.0  0.23188  0.46505  0.11681  1.0000
  S   S298      1.0  0.12272  0.23391  0.15297  1.0000
  C   C738      1.0  0.45837  0.45417  0.17006  1.0000
  H   H1150     1.0  0.43293  0.26621  0.17920  1.0000
  N   N75       1.0  0.30867  0.29446  0.06325  1.0000
  C   C739      1.0  0.30860  0.27945  0.07477  1.0000
  C   C740      1.0  0.30490  0.30736  0.07144  1.0000
  C   C741      1.0  0.29687  0.29714  0.05403  1.0000
  C   C742      1.0  0.32428  0.29392  0.05272  1.0000
  H   H1151     1.0  0.31139  0.26946  0.06899  1.0000
  H   H1152     1.0  0.29697  0.27940  0.08288  1.0000
  H   H1153     1.0  0.31735  0.27699  0.08197  1.0000
  H   H1154     1.0  0.30535  0.31880  0.06305  1.0000
  H   H1155     1.0  0.29289  0.30856  0.07895  1.0000
  H   H1156     1.0  0.31322  0.30551  0.07895  1.0000
  H   H1157     1.0  0.29933  0.28769  0.04761  1.0000
  H   H1158     1.0  0.29650  0.30845  0.04533  1.0000
  H   H1159     1.0  0.28496  0.29756  0.06162  1.0000
  H   H1160     1.0  0.32747  0.28427  0.04639  1.0000
  H   H1161     1.0  0.33347  0.29199  0.05927  1.0000
  H   H1162     1.0  0.32467  0.30506  0.04382  1.0000
  H   H1163     1.0  0.12417  0.44211  0.14884  1.0000
  C   C743      1.0  0.18802  0.46674  0.13502  1.0000
  C   C744      1.0  0.22240  0.47607  0.13961  1.0000
  Fe  Fe150     1.0  0.00398  0.43241  0.08814  1.0000
  H   H1164     1.0  0.34334  0.46825  0.09982  1.0000
  H   H1165     1.0  0.07978  0.26376  0.03335  1.0000
  N   N76       1.0  0.35589  0.44574  0.09507  1.0000
  H   H1166     1.0  0.01173  0.35700  0.02683  1.0000
  H   H1167     1.0  0.22822  0.45395  0.12332  1.0000
  S   S299      1.0  0.06415  0.28508  0.99309  1.0000
  H   H1168     1.0  0.09225  0.26742  0.06723  1.0000
  H   H1169     1.0  0.33767  0.46278  0.08525  1.0000
  C   C745      1.0  0.04467  0.36208  0.21193  1.0000
  H   H1170     1.0  0.06336  0.47142  0.12123  1.0000
  H   H1171     1.0  0.16484  0.42905  0.12748  1.0000
  Fe  Fe151     1.0  0.23752  0.42160  0.11113  1.0000
  H   H1172     1.0  0.15294  0.29758  0.03716  1.0000
  S   S300      1.0  0.27138  0.46062  0.08931  1.0000
  H   H1173     1.0  0.06223  0.38218  0.21993  1.0000
  C   C746      1.0  0.00545  0.33930  0.98696  1.0000
  S   S301      1.0  0.25761  0.42434  0.11894  1.0000
  H   H1174     1.0  0.35129  0.43595  0.11970  1.0000
  H   H1175     1.0  0.47629  0.43313  0.16878  1.0000
  H   H1176     1.0  0.45833  0.42019  0.12213  1.0000
  S   S302      1.0  0.21335  0.42478  0.12665  1.0000
  C   C747      1.0  0.13692  0.43684  0.14658  1.0000
  H   H1177     1.0  0.46096  0.43600  0.12843  1.0000
  H   H1178     1.0  0.05601  0.41539  0.10228  1.0000
  S   S303      1.0  0.24345  0.43660  0.08733  1.0000
  H   H1179     1.0  0.06170  0.40058  0.20619  1.0000
  C   C748      1.0  0.32698  0.33780  0.18680  1.0000
  H   H1180     1.0  0.34185  0.31922  0.16679  1.0000
  C   C749      1.0  0.45784  0.27745  0.16078  1.0000
  Fe  Fe152     1.0  0.26473  0.43740  0.09442  1.0000
  C   C750      1.0  0.45518  0.47173  0.14533  1.0000
  H   H1181     1.0  0.37243  0.39437  0.19806  1.0000
  C   C751      1.0  0.34151  0.45819  0.09647  1.0000
  C   C752      1.0  0.04774  0.42293  0.10955  1.0000
  C   C753      1.0  0.07146  0.35406  0.19827  1.0000
  H   H1182     1.0  0.23323  0.32354  0.99375  1.0000
  C   C754      1.0  0.20285  0.44424  0.12398  1.0000
  H   H1183     1.0  0.44569  0.27992  0.13641  1.0000
  H   H1184     1.0  0.21814  0.46538  0.14665  1.0000
  Fe  Fe153     1.0  0.39234  0.23812  0.15160  1.0000
  C   C755      1.0  0.36844  0.45197  0.08280  1.0000
  C   C756      1.0  0.35003  0.32699  0.19751  1.0000
  H   H1185     1.0  0.27814  0.30696  0.98201  1.0000
  N   N77       1.0  0.14579  0.44760  0.13449  1.0000
  H   H1186     1.0  0.01131  0.34087  0.19501  1.0000
  H   H1187     1.0  0.16091  0.28174  0.06156  1.0000
  C   C757      1.0  0.16260  0.44003  0.13157  1.0000
  H   H1188     1.0  0.16102  0.29122  0.07632  1.0000
  H   H1189     1.0  0.29864  0.43559  0.08460  1.0000
  H   H1190     1.0  0.05932  0.33927  0.21788  1.0000
  H   H1191     1.0  0.44139  0.47598  0.16760  1.0000
  H   H1192     1.0  0.24556  0.45016  0.14081  1.0000
  H   H1193     1.0  0.45465  0.24750  0.19242  1.0000
  H   H1194     1.0  0.20874  0.44855  0.09892  1.0000
  C   C758      1.0  0.05853  0.35069  0.21013  1.0000
  H   H1195     1.0  0.13055  0.47632  0.18046  1.0000
  C   C759      1.0  0.30193  0.44660  0.07894  1.0000
  C   C760      1.0  0.35280  0.43252  0.09091  1.0000
  S   S304      1.0  0.38106  0.24467  0.13098  1.0000
  H   H1196     1.0  0.26722  0.45906  0.04703  1.0000
  C   C761      1.0  0.47653  0.23694  0.17903  1.0000
  H   H1197     1.0  0.12753  0.45715  0.12174  1.0000
  H   H1198     1.0  0.03401  0.34806  0.98820  1.0000
  H   H1199     1.0  0.36368  0.44976  0.11341  1.0000
  C   C762      1.0  0.02973  0.31961  0.98428  1.0000
  C   C763      1.0  0.01554  0.32597  0.99348  1.0000
  Fe  Fe154     1.0  0.08410  0.29191  0.99727  1.0000
  C   C764      1.0  0.45078  0.46806  0.16159  1.0000
  H   H1200     1.0  0.28420  0.29428  0.99918  1.0000
  C   C765      1.0  0.37919  0.40178  0.22144  1.0000
  H   H1201     1.0  0.00752  0.38044  0.00574  1.0000
  H   H1202     1.0  0.34319  0.42773  0.09977  1.0000
  H   H1203     1.0  0.14669  0.45936  0.11049  1.0000
  H   H1204     1.0  0.02871  0.47386  0.12358  1.0000
  H   H1205     1.0  0.42808  0.29399  0.14182  1.0000
  H   H1206     1.0  0.17812  0.29851  0.04257  1.0000
  H   H1207     1.0  0.13853  0.42568  0.14300  1.0000
  H   H1208     1.0  0.33142  0.34841  0.17991  1.0000
  H   H1209     1.0  0.08212  0.27779  0.05199  1.0000
  C   C766      1.0  0.02048  0.35096  0.01799  1.0000
  H   H1210     1.0  0.10419  0.23922  0.06964  1.0000
  H   H1211     1.0  0.31012  0.23343  0.05990  1.0000
  H   H1212     1.0  0.01032  0.36842  0.99230  1.0000
  H   H1213     1.0  0.25953  0.45817  0.12463  1.0000
  C   C767      1.0  0.00969  0.34458  0.20603  1.0000
  C   C768      1.0  0.23913  0.32350  0.98175  1.0000
  H   H1214     1.0  0.04844  0.34392  0.99941  1.0000
  H   H1215     1.0  0.35563  0.33692  0.19062  1.0000
  C   C769      1.0  0.12168  0.47333  0.17682  1.0000
  H   H1216     1.0  0.31904  0.33602  0.18053  1.0000
  H   H1217     1.0  0.15007  0.47051  0.13104  1.0000
  H   H1218     1.0  0.14157  0.44061  0.11572  1.0000
  C   C770      1.0  0.48545  0.47540  0.17857  1.0000
  H   H1219     1.0  0.34196  0.41126  0.21633  1.0000
  C   C771      1.0  0.18740  0.47941  0.21341  1.0000
  H   H1220     1.0  0.09545  0.40934  0.21462  1.0000
  C   C772      1.0  0.46025  0.23996  0.18425  1.0000
  H   H1221     1.0  0.30180  0.45578  0.04415  1.0000
  C   C773      1.0  0.45118  0.23339  0.17885  1.0000
  H   H1222     1.0  0.26418  0.29864  0.99792  1.0000
  C   C774      1.0  0.35597  0.35407  0.22186  1.0000
  C   C775      1.0  0.31112  0.47506  0.06527  1.0000
  C   C776      1.0  0.09154  0.38541  0.20567  1.0000
  H   H1223     1.0  0.22455  0.31022  0.97858  1.0000
  C   C777      1.0  0.05920  0.47406  0.11026  1.0000
  H   H1224     1.0  0.08991  0.37335  0.20735  1.0000
  C   C778      1.0  0.18846  0.47619  0.12005  1.0000
  N   N78       1.0  0.27962  0.28249  0.98415  1.0000
  H   H1225     1.0  0.10397  0.38456  0.20546  1.0000
  C   C779      1.0  0.29564  0.47487  0.07340  1.0000
  H   H1226     1.0  0.30440  0.27795  0.98210  1.0000
  C   C780      1.0  0.25141  0.33119  0.97473  1.0000
  H   H1227     1.0  0.15040  0.46310  0.22146  1.0000
  H   H1228     1.0  0.25627  0.28746  0.98061  1.0000
  S   S305      1.0  0.43352  0.38110  0.22133  1.0000
  H   H1229     1.0  0.03560  0.47969  0.09544  1.0000
  S   S306      1.0  0.14343  0.23030  0.11014  1.0000
  Fe  Fe155     1.0  0.33362  0.35863  0.28657  1.0000
  S   S307      1.0  0.31793  0.34204  0.29954  1.0000
  S   S308      1.0  0.35366  0.35315  0.26667  1.0000
  Fe  Fe156     1.0  0.31825  0.38119  0.30788  1.0000
  S   S309      1.0  0.30132  0.36654  0.32284  1.0000
  S   S310      1.0  0.31733  0.40464  0.31189  1.0000
  Fe  Fe157     1.0  0.32184  0.34632  0.32093  1.0000
  S   S311      1.0  0.32445  0.32695  0.34211  1.0000
  Fe  Fe158     1.0  0.29881  0.36356  0.30029  1.0000
  S   S312      1.0  0.27477  0.36292  0.29908  1.0000
  S   S313      1.0  0.33917  0.36122  0.30796  1.0000
  S   S314      1.0  0.31410  0.38000  0.28528  1.0000
  Fe  Fe159     1.0  0.36391  0.45155  0.35831  1.0000
  S   S315      1.0  0.36804  0.43845  0.33955  1.0000
  Fe  Fe160     1.0  0.38628  0.42652  0.37587  1.0000
  S   S316      1.0  0.39236  0.41128  0.35875  1.0000
  S   S317      1.0  0.39628  0.42079  0.39710  1.0000
  Fe  Fe161     1.0  0.39319  0.43349  0.34060  1.0000
  S   S318      1.0  0.41299  0.43342  0.31951  1.0000
  Fe  Fe162     1.0  0.36670  0.41751  0.35936  1.0000
  S   S319      1.0  0.35507  0.39775  0.36258  1.0000
  S   S320      1.0  0.38926  0.44834  0.35770  1.0000
  S   S321      1.0  0.36043  0.43102  0.37810  1.0000
  H   H1230     1.0  0.13074  0.45594  0.44322  1.0000
  C   C781      1.0  0.07796  0.23970  0.28859  1.0000
  H   H1231     1.0  0.12228  0.44973  0.43111  1.0000
  S   S322      1.0  0.03880  0.31515  0.29919  1.0000
  C   C782      1.0  0.35941  0.29896  0.45336  1.0000
  Fe  Fe163     1.0  0.04941  0.40658  0.44343  1.0000
  S   S323      1.0  0.06525  0.40168  0.42082  1.0000
  Fe  Fe164     1.0  0.07884  0.35367  0.36328  1.0000
  S   S324      1.0  0.10431  0.35179  0.36127  1.0000
  S   S325      1.0  0.06290  0.35082  0.38722  1.0000
  Fe  Fe165     1.0  0.08270  0.35800  0.32817  1.0000
  S   S326      1.0  0.10842  0.35659  0.32348  1.0000
  S   S327      1.0  0.07416  0.36246  0.30615  1.0000
  Fe  Fe166     1.0  0.10814  0.33668  0.34434  1.0000
  S   S328      1.0  0.12405  0.31305  0.34315  1.0000
  Fe  Fe167     1.0  0.10199  0.37188  0.34068  1.0000
  S   S329      1.0  0.11007  0.39412  0.33643  1.0000
  S   S330      1.0  0.08281  0.33693  0.34792  1.0000
  S   S331      1.0  0.07615  0.37489  0.34386  1.0000
  C   C783      1.0  0.08962  0.32383  0.41529  1.0000
  H   H1232     1.0  0.16495  0.38943  0.28450  1.0000
  H   H1233     1.0  0.41757  0.41333  0.25961  1.0000
  S   S332      1.0  0.13902  0.24098  0.42412  1.0000
  Fe  Fe168     1.0  0.01906  0.30592  0.25716  1.0000
  Fe  Fe169     1.0  0.15672  0.25520  0.41035  1.0000
  S   S333      1.0  0.15004  0.28152  0.40423  1.0000
  S   S334      1.0  0.98999  0.42351  0.46062  1.0000
  H   H1234     1.0  0.31665  0.36690  0.23285  1.0000
  C   C784      1.0  0.41399  0.47893  0.31249  1.0000
  H   H1235     1.0  0.00426  0.42700  0.41191  1.0000
  S   S335      1.0  0.16807  0.23949  0.39347  1.0000
  H   H1236     1.0  0.35769  0.23809  0.37173  1.0000
  S   S336      1.0  0.29563  0.25463  0.36358  1.0000
  Fe  Fe170     1.0  0.03716  0.31577  0.27487  1.0000
  Fe  Fe171     1.0  0.31049  0.25033  0.34048  1.0000
  S   S337      1.0  0.32622  0.26523  0.32320  1.0000
  H   H1237     1.0  0.45785  0.47074  0.33745  1.0000
  Fe  Fe172     1.0  0.46753  0.40840  0.23432  1.0000
  Fe  Fe173     1.0  0.18543  0.45001  0.29066  1.0000
  N   N79       1.0  0.41164  0.29201  0.43566  1.0000
  Fe  Fe174     1.0  0.05432  0.30189  0.24669  1.0000
  C   C785      1.0  0.34212  0.23080  0.41071  1.0000
  H   H1238     1.0  0.48027  0.43482  0.23438  1.0000
  Fe  Fe175     1.0  0.21317  0.43089  0.27239  1.0000
  S   S338      1.0  0.19888  0.41710  0.26762  1.0000
  S   S339      1.0  0.23921  0.42723  0.26433  1.0000
  Fe  Fe176     1.0  0.18660  0.41598  0.29266  1.0000
  S   S340      1.0  0.18151  0.39314  0.30775  1.0000
  H   H1239     1.0  0.28588  0.38748  0.27415  1.0000
  S   S341      1.0  0.03336  0.39303  0.46229  1.0000
  S   S342      1.0  0.21906  0.46525  0.34877  1.0000
  Fe  Fe177     1.0  0.03335  0.33426  0.24264  1.0000
  H   H1240     1.0  0.20348  0.24996  0.39615  1.0000
  C   C786      1.0  0.10761  0.29919  0.41248  1.0000
  H   H1241     1.0  0.42584  0.44053  0.35884  1.0000
  H   H1242     1.0  0.98878  0.40680  0.42499  1.0000
  H   H1243     1.0  0.35616  0.27691  0.46864  1.0000
  C   C787      1.0  0.12183  0.44962  0.44341  1.0000
  C   C788      1.0  0.17140  0.46093  0.22895  1.0000
  S   S343      1.0  0.44551  0.41775  0.22547  1.0000
  H   H1244     1.0  0.43730  0.40525  0.26181  1.0000
  H   H1245     1.0  0.45653  0.36573  0.45592  1.0000
  C   C789      1.0  0.01207  0.41890  0.40440  1.0000
  C   C790      1.0  0.36685  0.31630  0.46447  1.0000
  H   H1246     1.0  0.15543  0.39150  0.25468  1.0000
  Fe  Fe178     1.0  0.01570  0.41596  0.46111  1.0000
  C   C791      1.0  0.18229  0.47640  0.32829  1.0000
  C   C792      1.0  0.40957  0.30920  0.43203  1.0000
  H   H1247     1.0  0.16725  0.40558  0.34207  1.0000
  H   H1248     1.0  0.07718  0.23089  0.25528  1.0000
  N   N80       1.0  0.99131  0.46649  0.46920  1.0000
  S   S344      1.0  0.17592  0.46901  0.30413  1.0000
  N   N81       1.0  0.44402  0.45347  0.34856  1.0000
  C   C793      1.0  0.13010  0.39337  0.32952  1.0000
  C   C794      1.0  0.13533  0.40733  0.32502  1.0000
  C   C795      1.0  0.15112  0.40730  0.31839  1.0000
  C   C796      1.0  0.16180  0.39327  0.31655  1.0000
  C   C797      1.0  0.15667  0.37922  0.32149  1.0000
  C   C798      1.0  0.14078  0.37927  0.32786  1.0000
  H   H1249     1.0  0.12704  0.41823  0.32636  1.0000
  H   H1250     1.0  0.15502  0.41812  0.31481  1.0000
  H   H1251     1.0  0.16494  0.36831  0.32016  1.0000
  H   H1252     1.0  0.13679  0.36845  0.33143  1.0000
  C   C799      1.0  0.06333  0.34997  0.30469  1.0000
  C   C800      1.0  0.06126  0.35032  0.29000  1.0000
  C   C801      1.0  0.05341  0.33993  0.28826  1.0000
  C   C802      1.0  0.04753  0.32916  0.30123  1.0000
  C   C803      1.0  0.04925  0.32907  0.31601  1.0000
  C   C804      1.0  0.05722  0.33940  0.31773  1.0000
  H   H1253     1.0  0.06584  0.35857  0.27991  1.0000
  H   H1254     1.0  0.05191  0.34027  0.27689  1.0000
  H   H1255     1.0  0.05856  0.33922  0.32914  1.0000
  C   C805      1.0  0.13245  0.30421  0.35941  1.0000
  C   C806      1.0  0.13572  0.31332  0.36757  1.0000
  C   C807      1.0  0.14151  0.30618  0.38111  1.0000
  C   C808      1.0  0.14409  0.28992  0.38651  1.0000
  C   C809      1.0  0.14112  0.28077  0.37818  1.0000
  C   C810      1.0  0.13540  0.28791  0.36457  1.0000
  H   H1256     1.0  0.13376  0.32587  0.36347  1.0000
  H   H1257     1.0  0.14391  0.31329  0.38747  1.0000
  H   H1258     1.0  0.14299  0.26822  0.38234  1.0000
  H   H1259     1.0  0.13292  0.28081  0.35827  1.0000
  C   C811      1.0  0.06457  0.38703  0.41217  1.0000
  C   C812      1.0  0.07246  0.38738  0.39663  1.0000
  C   C813      1.0  0.07197  0.37625  0.38902  1.0000
  C   C814      1.0  0.06361  0.36464  0.39691  1.0000
  C   C815      1.0  0.05584  0.36409  0.41257  1.0000
  C   C816      1.0  0.05632  0.37529  0.42023  1.0000
  H   H1260     1.0  0.07892  0.39639  0.39038  1.0000
  H   H1261     1.0  0.07803  0.37676  0.37697  1.0000
  H   H1262     1.0  0.04944  0.35503  0.41876  1.0000
  H   H1263     1.0  0.05043  0.37481  0.43232  1.0000
  H   H1264     1.0  0.15381  0.43351  0.33407  1.0000
  C   C817      1.0  0.27440  0.43103  0.31516  1.0000
  S   S345      1.0  0.16859  0.43797  0.28770  1.0000
  H   H1265     1.0  0.25401  0.44042  0.29621  1.0000
  H   H1266     1.0  0.43595  0.28760  0.43590  1.0000
  S   S346      1.0  0.42309  0.24340  0.42931  1.0000
  C   C818      1.0  0.41842  0.45148  0.31234  1.0000
  C   C819      1.0  0.43293  0.45227  0.30214  1.0000
  H   H1267     1.0  0.43878  0.47801  0.34842  1.0000
  H   H1268     1.0  0.42241  0.39460  0.27232  1.0000
  H   H1269     1.0  0.44041  0.44196  0.29823  1.0000
  C   C820      1.0  0.05675  0.25476  0.23113  1.0000
  C   C821      1.0  0.40055  0.40084  0.40587  1.0000
  C   C822      1.0  0.39984  0.39625  0.42194  1.0000
  C   C823      1.0  0.40183  0.38036  0.42937  1.0000
  C   C824      1.0  0.40486  0.36904  0.42066  1.0000
  C   C825      1.0  0.40637  0.37358  0.40450  1.0000
  C   C826      1.0  0.40402  0.38947  0.39714  1.0000
  H   H1270     1.0  0.39721  0.40503  0.42873  1.0000
  S   S347      1.0  0.02856  0.35818  0.22703  1.0000
  H   H1271     1.0  0.40898  0.36483  0.39770  1.0000
  H   H1272     1.0  0.40500  0.39288  0.38471  1.0000
  C   C827      1.0  0.32761  0.40278  0.32612  1.0000
  C   C828      1.0  0.33206  0.38821  0.33575  1.0000
  C   C829      1.0  0.34038  0.38681  0.34700  1.0000
  C   C830      1.0  0.34444  0.39992  0.34854  1.0000
  C   C831      1.0  0.33986  0.41452  0.33902  1.0000
  C   C832      1.0  0.33138  0.41596  0.32787  1.0000
  H   H1273     1.0  0.32903  0.37802  0.33460  1.0000
  H   H1274     1.0  0.34382  0.37551  0.35439  1.0000
  H   H1275     1.0  0.34267  0.42473  0.34033  1.0000
  H   H1276     1.0  0.32788  0.42726  0.32051  1.0000
  C   C833      1.0  0.32669  0.30906  0.33736  1.0000
  C   C834      1.0  0.32034  0.29720  0.34850  1.0000
  C   C835      1.0  0.32084  0.28335  0.34441  1.0000
  C   C836      1.0  0.32740  0.28147  0.32912  1.0000
  C   C837      1.0  0.33423  0.29312  0.31814  1.0000
  C   C838      1.0  0.33392  0.30689  0.32228  1.0000
  H   H1277     1.0  0.31461  0.29890  0.36014  1.0000
  H   H1278     1.0  0.31596  0.27426  0.35303  1.0000
  H   H1279     1.0  0.33949  0.29165  0.30634  1.0000
  H   H1280     1.0  0.33924  0.31585  0.31375  1.0000
  C   C839      1.0  0.26496  0.38025  0.28849  1.0000
  C   C840      1.0  0.24860  0.38406  0.29183  1.0000
  C   C841      1.0  0.24059  0.39831  0.28413  1.0000
  C   C842      1.0  0.24893  0.40872  0.27297  1.0000
  C   C843      1.0  0.26528  0.40470  0.26930  1.0000
  C   C844      1.0  0.27329  0.39052  0.27710  1.0000
  H   H1281     1.0  0.24210  0.37610  0.30054  1.0000
  H   H1282     1.0  0.22796  0.40124  0.28690  1.0000
  H   H1283     1.0  0.27174  0.41264  0.26050  1.0000
  C   C845      1.0  0.22439  0.25581  0.37999  1.0000
  C   C846      1.0  0.04961  0.46336  0.46795  1.0000
  H   H1284     1.0  0.26013  0.25175  0.40525  1.0000
  H   H1285     1.0  0.11476  0.46275  0.46793  1.0000
  H   H1286     1.0  0.18451  0.40099  0.34961  1.0000
  C   C847      1.0  0.34954  0.23500  0.38259  1.0000
  H   H1287     1.0  0.33205  0.26850  0.46580  1.0000
  C   C848      1.0  0.23898  0.25008  0.37096  1.0000
  H   H1288     1.0  0.03089  0.40212  0.42376  1.0000
  H   H1289     1.0  0.25933  0.24253  0.39072  1.0000
  S   S348      1.0  0.03108  0.42868  0.44087  1.0000
  S   S349      1.0  0.03875  0.29293  0.26914  1.0000
  S   S350      1.0  0.36941  0.24110  0.39627  1.0000
  H   H1290     1.0  0.05594  0.40007  0.22671  1.0000
  H   H1291     1.0  0.34630  0.38744  0.23727  1.0000
  H   H1292     1.0  0.14332  0.42883  0.26802  1.0000
  Fe  Fe179     1.0  0.39723  0.24557  0.43347  1.0000
  H   H1293     1.0  0.09738  0.43592  0.45736  1.0000
  H   H1294     1.0  0.40069  0.37693  0.44186  1.0000
  C   C849      1.0  0.34749  0.47294  0.38785  1.0000
  H   H1295     1.0  0.40518  0.29172  0.41491  1.0000
  H   H1296     1.0  0.17011  0.41687  0.36948  1.0000
  C   C850      1.0  0.08685  0.25938  0.22637  1.0000
  S   S351      1.0  0.38455  0.26291  0.41604  1.0000
  C   C851      1.0  0.33593  0.23092  0.38241  1.0000
  H   H1297     1.0  0.26358  0.23551  0.43141  1.0000
  H   H1298     1.0  0.00751  0.42145  0.39369  1.0000
  S   S352      1.0  0.46796  0.41008  0.25827  1.0000
  N   N82       1.0  0.10606  0.45699  0.45121  1.0000
  H   H1299     1.0  0.16329  0.47870  0.25239  1.0000
  H   H1300     1.0  0.12546  0.43726  0.44950  1.0000
  H   H1301     1.0  0.17187  0.43704  0.32116  1.0000
  C   C852      1.0  0.09927  0.31729  0.39005  1.0000
  C   C853      1.0  0.16493  0.43669  0.33331  1.0000
  H   H1302     1.0  0.33365  0.23102  0.37145  1.0000
  C   C854      1.0  0.21460  0.24556  0.38896  1.0000
  H   H1303     1.0  0.46549  0.44318  0.33446  1.0000
  S   S353      1.0  0.41672  0.35314  0.46781  1.0000
  N   N83       1.0  0.48111  0.35595  0.45457  1.0000
  H   H1304     1.0  0.09932  0.32982  0.41321  1.0000
  S   S354      1.0  0.35246  0.25248  0.43799  1.0000
  C   C855      1.0  0.48571  0.36467  0.43840  1.0000
  H   H1305     1.0  0.07583  0.39013  0.24282  1.0000
  H   H1306     1.0  0.07095  0.31229  0.40559  1.0000
  H   H1307     1.0  0.25364  0.42124  0.29518  1.0000
  H   H1308     1.0  0.22083  0.26808  0.38035  1.0000
  S   S355      1.0  0.20234  0.42776  0.29791  1.0000
  H   H1309     1.0  0.09851  0.26111  0.22461  1.0000
  N   N84       1.0  0.27192  0.42200  0.30528  1.0000
  H   H1310     1.0  0.47370  0.41812  0.28395  1.0000
  C   C856      1.0  0.42821  0.28473  0.43013  1.0000
  S   S356      1.0  0.17377  0.24381  0.42592  1.0000
  C   C857      1.0  0.36311  0.31324  0.45193  1.0000
  S   S357      1.0  0.05437  0.32382  0.25320  1.0000
  S   S358      1.0  0.25227  0.26227  0.36169  1.0000
  H   H1311     1.0  0.13483  0.39322  0.26286  1.0000
  C   C858      1.0  0.47814  0.42595  0.27337  1.0000
  H   H1312     1.0  0.11782  0.30441  0.41061  1.0000
  H   H1313     1.0  0.37000  0.32721  0.46319  1.0000
  C   C859      1.0  0.08479  0.24566  0.22393  1.0000
  H   H1314     1.0  0.28206  0.41683  0.28260  1.0000
  C   C860      1.0  0.35986  0.35134  0.23628  1.0000
  C   C861      1.0  0.28343  0.42368  0.29025  1.0000
  Fe  Fe180     1.0  0.27695  0.24818  0.35684  1.0000
  H   H1315     1.0  0.05264  0.25008  0.26458  1.0000
  S   S359      1.0  0.07675  0.28640  0.23703  1.0000
  S   S360      1.0  0.34797  0.47536  0.35711  1.0000
  N   N85       1.0  0.35659  0.38487  0.40898  1.0000
  C   C862      1.0  0.35245  0.37114  0.42097  1.0000
  C   C863      1.0  0.34265  0.39443  0.40302  1.0000
  C   C864      1.0  0.36891  0.37950  0.39600  1.0000
  C   C865      1.0  0.36238  0.39435  0.41590  1.0000
  H   H1316     1.0  0.34318  0.37474  0.43095  1.0000
  H   H1317     1.0  0.36277  0.36372  0.42571  1.0000
  H   H1318     1.0  0.34812  0.36368  0.41610  1.0000
  H   H1319     1.0  0.33304  0.39866  0.41245  1.0000
  H   H1320     1.0  0.34543  0.40486  0.39395  1.0000
  H   H1321     1.0  0.33814  0.38775  0.39742  1.0000
  H   H1322     1.0  0.37307  0.38951  0.38720  1.0000
  H   H1323     1.0  0.36461  0.37327  0.38976  1.0000
  H   H1324     1.0  0.37918  0.37139  0.40021  1.0000
  H   H1325     1.0  0.37253  0.38729  0.42100  1.0000
  H   H1326     1.0  0.35325  0.39910  0.42536  1.0000
  H   H1327     1.0  0.36632  0.40445  0.40705  1.0000
  S   S361      1.0  0.38031  0.25381  0.45402  1.0000
  C   C866      1.0  0.40876  0.46492  0.31717  1.0000
  C   C867      1.0  0.05453  0.47740  0.46456  1.0000
  H   H1328     1.0  0.01136  0.40730  0.43480  1.0000
  H   H1329     1.0  0.35262  0.46066  0.38846  1.0000
  H   H1330     1.0  0.47807  0.37658  0.43634  1.0000
  H   H1331     1.0  0.46299  0.44912  0.35983  1.0000
  C   C868      1.0  0.45043  0.44860  0.36272  1.0000
  C   C869      1.0  0.18819  0.46856  0.31601  1.0000
  C   C870      1.0  0.42739  0.45261  0.35291  1.0000
  H   H1332     1.0  0.43756  0.42957  0.26926  1.0000
  H   H1333     1.0  0.43215  0.28880  0.41732  1.0000
  C   C871      1.0  0.33260  0.35976  0.24824  1.0000
  C   C872      1.0  0.32871  0.36245  0.23381  1.0000
  C   C873      1.0  0.47631  0.42495  0.25902  1.0000
  H   H1334     1.0  0.41412  0.28908  0.45904  1.0000
  H   H1335     1.0  0.16217  0.40996  0.28286  1.0000
  H   H1336     1.0  0.19323  0.46146  0.23319  1.0000
  C   C874      1.0  0.42883  0.47949  0.30292  1.0000
  H   H1337     1.0  0.26546  0.40353  0.32462  1.0000
  C   C875      1.0  0.99708  0.39907  0.41734  1.0000
  H   H1338     1.0  0.36347  0.32178  0.44101  1.0000
  H   H1339     1.0  0.12240  0.40501  0.28587  1.0000
  S   S362      1.0  0.47184  0.38490  0.22880  1.0000
  C   C876      1.0  0.08108  0.30362  0.40972  1.0000
  C   C877      1.0  0.05876  0.25163  0.27279  1.0000
  N   N86       1.0  0.14636  0.40382  0.27330  1.0000
  C   C878      1.0  0.13425  0.40334  0.28794  1.0000
  C   C879      1.0  0.40184  0.28780  0.42779  1.0000
  C   C880      1.0  0.14303  0.41930  0.26277  1.0000
  C   C881      1.0  0.14634  0.39151  0.26572  1.0000
  H   H1340     1.0  0.99821  0.39043  0.45966  1.0000
  H   H1341     1.0  0.23686  0.23230  0.40894  1.0000
  C   C882      1.0  0.43809  0.46628  0.29740  1.0000
  C   C883      1.0  0.48610  0.43677  0.27402  1.0000
  H   H1342     1.0  0.44405  0.45632  0.37106  1.0000
  N   N87       1.0  0.09440  0.31096  0.40691  1.0000
  C   C884      1.0  0.48204  0.43515  0.24541  1.0000
  H   H1343     1.0  0.14876  0.37970  0.27344  1.0000
  C   C885      1.0  0.00001  0.46124  0.45467  1.0000
  H   H1344     1.0  0.01917  0.39377  0.39169  1.0000
  H   H1345     1.0  0.08429  0.29394  0.40345  1.0000
  H   H1346     1.0  0.00704  0.46967  0.44666  1.0000
  N   N88       1.0  0.10192  0.30889  0.30739  1.0000
  C   C886      1.0  0.11229  0.30499  0.29277  1.0000
  C   C887      1.0  0.10099  0.32535  0.30728  1.0000
  C   C888      1.0  0.10823  0.29856  0.32083  1.0000
  C   C889      1.0  0.08615  0.30671  0.30869  1.0000
  H   H1347     1.0  0.11343  0.29259  0.29254  1.0000
  H   H1348     1.0  0.12423  0.30676  0.29133  1.0000
  H   H1349     1.0  0.10768  0.31246  0.28244  1.0000
  H   H1350     1.0  0.09262  0.32893  0.31774  1.0000
  H   H1351     1.0  0.11251  0.32728  0.30722  1.0000
  H   H1352     1.0  0.09686  0.33351  0.29697  1.0000
  H   H1353     1.0  0.10109  0.30174  0.33201  1.0000
  H   H1354     1.0  0.12035  0.29951  0.31995  1.0000
  H   H1355     1.0  0.10853  0.28609  0.32172  1.0000
  H   H1356     1.0  0.07816  0.30909  0.31984  1.0000
  H   H1357     1.0  0.08638  0.29458  0.30830  1.0000
  H   H1358     1.0  0.08077  0.31476  0.29904  1.0000
  C   C890      1.0  0.34822  0.35447  0.24941  1.0000
  H   H1359     1.0  0.28639  0.42680  0.31751  1.0000
  H   H1360     1.0  0.39736  0.46448  0.32472  1.0000
  H   H1361     1.0  0.13133  0.42192  0.26004  1.0000
  C   C891      1.0  0.06975  0.24315  0.22672  1.0000
  Fe  Fe181     1.0  0.36650  0.26944  0.43672  1.0000
  H   H1362     1.0  0.11176  0.28945  0.40618  1.0000
  H   H1363     1.0  0.10365  0.30786  0.38335  1.0000
  H   H1364     1.0  0.13658  0.39195  0.29634  1.0000
  C   C892      1.0  0.20362  0.45995  0.31371  1.0000
  H   H1365     1.0  0.07536  0.41574  0.22397  1.0000
  Fe  Fe182     1.0  0.37186  0.24425  0.41886  1.0000
  H   H1366     1.0  0.43012  0.27175  0.43261  1.0000
  C   C893      1.0  0.27398  0.40531  0.31327  1.0000
  C   C894      1.0  0.07388  0.27057  0.23169  1.0000
  C   C895      1.0  0.34302  0.47890  0.40142  1.0000
  H   H1367     1.0  0.32356  0.36214  0.25836  1.0000
  H   H1368     1.0  0.35483  0.39756  0.24580  1.0000
  S   S363      1.0  0.47564  0.46353  0.30119  1.0000
  Fe  Fe183     1.0  0.03963  0.43458  0.45864  1.0000
  C   C896      1.0  0.24341  0.23428  0.37041  1.0000
  H   H1369     1.0  0.19577  0.43094  0.33165  1.0000
  S   S364      1.0  0.35616  0.29467  0.43718  1.0000
  H   H1370     1.0  0.27241  0.39807  0.30609  1.0000
  S   S365      1.0  0.29093  0.24647  0.33285  1.0000
  C   C897      1.0  0.05881  0.26843  0.23371  1.0000
  H   H1371     1.0  0.18518  0.40961  0.32936  1.0000
  C   C898      1.0  0.40692  0.28622  0.45267  1.0000
  S   S366      1.0  0.01592  0.32805  0.26493  1.0000
  H   H1372     1.0  0.07965  0.33289  0.41135  1.0000
  S   S367      1.0  0.04134  0.45960  0.45462  1.0000
  C   C899      1.0  0.21303  0.45890  0.32387  1.0000
  N   N89       1.0  0.35185  0.28768  0.37767  1.0000
  C   C900      1.0  0.34492  0.30420  0.37151  1.0000
  C   C901      1.0  0.34509  0.28337  0.39455  1.0000
  C   C902      1.0  0.36895  0.28553  0.37513  1.0000
  C   C903      1.0  0.34848  0.27756  0.36949  1.0000
  H   H1373     1.0  0.34976  0.30788  0.35878  1.0000
  H   H1374     1.0  0.34715  0.31222  0.37742  1.0000
  H   H1375     1.0  0.33204  0.30622  0.37305  1.0000
  H   H1376     1.0  0.34983  0.27087  0.39948  1.0000
  H   H1377     1.0  0.34771  0.29052  0.40117  1.0000
  H   H1378     1.0  0.33217  0.28503  0.39692  1.0000
  H   H1379     1.0  0.37449  0.27316  0.37976  1.0000
  H   H1380     1.0  0.37195  0.29302  0.38108  1.0000
  H   H1381     1.0  0.37443  0.28851  0.36249  1.0000
  H   H1382     1.0  0.35464  0.26521  0.37291  1.0000
  H   H1383     1.0  0.35227  0.28126  0.35660  1.0000
  H   H1384     1.0  0.33580  0.27772  0.37225  1.0000
  H   H1385     1.0  0.04874  0.27708  0.23773  1.0000
  H   H1386     1.0  0.20841  0.45425  0.30400  1.0000
  H   H1387     1.0  0.31173  0.27645  0.46583  1.0000
  C   C904      1.0  0.25593  0.42792  0.30246  1.0000
  H   H1388     1.0  0.24694  0.42697  0.31356  1.0000
  Fe  Fe184     1.0  0.18208  0.44018  0.26296  1.0000
  H   H1389     1.0  0.34474  0.47116  0.41243  1.0000
  H   H1390     1.0  0.15187  0.42005  0.25153  1.0000
  H   H1391     1.0  0.29562  0.41941  0.29198  1.0000
  H   H1392     1.0  0.99207  0.45948  0.44837  1.0000
  H   H1393     1.0  0.27723  0.23891  0.39675  1.0000
  H   H1394     1.0  0.04969  0.25495  0.28301  1.0000
  S   S368      1.0  0.13895  0.47977  0.45464  1.0000
  H   H1395     1.0  0.47409  0.37629  0.46448  1.0000
  N   N90       1.0  0.01288  0.40240  0.41274  1.0000
  H   H1396     1.0  0.16050  0.43691  0.36344  1.0000
  H   H1397     1.0  0.39449  0.29152  0.45726  1.0000
  C   C905      1.0  0.17783  0.40976  0.34131  1.0000
  H   H1398     1.0  0.38928  0.29322  0.43157  1.0000
  H   H1399     1.0  0.26595  0.43001  0.32663  1.0000
  H   H1400     1.0  0.08257  0.45359  0.45712  1.0000
  C   C906      1.0  0.46486  0.35419  0.45759  1.0000
  H   H1401     1.0  0.17126  0.40184  0.26598  1.0000
  H   H1402     1.0  0.41742  0.31282  0.43703  1.0000
  H   H1403     1.0  0.10873  0.32364  0.38760  1.0000
  S   S369      1.0  0.16716  0.44611  0.24543  1.0000
  H   H1404     1.0  0.37194  0.34714  0.23721  1.0000
  H   H1405     1.0  0.99409  0.36023  0.22838  1.0000
  H   H1406     1.0  0.09604  0.38371  0.23390  1.0000
  N   N91       1.0  0.28177  0.31408  0.31980  1.0000
  C   C907      1.0  0.29316  0.31506  0.30467  1.0000
  C   C908      1.0  0.28303  0.29753  0.32815  1.0000
  C   C909      1.0  0.26579  0.32079  0.31712  1.0000
  C   C910      1.0  0.28512  0.32301  0.32923  1.0000
  H   H1407     1.0  0.29231  0.32740  0.29798  1.0000
  H   H1408     1.0  0.29118  0.30826  0.29731  1.0000
  H   H1409     1.0  0.30538  0.31035  0.30629  1.0000
  H   H1410     1.0  0.27470  0.29631  0.33969  1.0000
  H   H1411     1.0  0.28055  0.29044  0.32138  1.0000
  H   H1412     1.0  0.29499  0.29208  0.33022  1.0000
  H   H1413     1.0  0.26446  0.33330  0.31084  1.0000
  H   H1414     1.0  0.25690  0.32029  0.32830  1.0000
  H   H1415     1.0  0.26289  0.31440  0.30996  1.0000
  H   H1416     1.0  0.28415  0.33558  0.32330  1.0000
  H   H1417     1.0  0.29716  0.31846  0.33126  1.0000
  H   H1418     1.0  0.27690  0.32245  0.34082  1.0000
  H   H1419     1.0  0.07704  0.29870  0.42234  1.0000
  H   H1420     1.0  0.41223  0.31409  0.41926  1.0000
  H   H1421     1.0  0.13374  0.41267  0.29382  1.0000
  H   H1422     1.0  0.15289  0.42140  0.36185  1.0000
  C   C911      1.0  0.18810  0.43053  0.34351  1.0000
  C   C912      1.0  0.26433  0.24070  0.40098  1.0000
  H   H1423     1.0  0.10438  0.29397  0.42514  1.0000
  S   S370      1.0  0.03490  0.31304  0.23409  1.0000
  H   H1424     1.0  0.44928  0.46683  0.28947  1.0000
  H   H1425     1.0  0.04456  0.32087  0.32610  1.0000
  H   H1426     1.0  0.27300  0.44367  0.30949  1.0000
  H   H1427     1.0  0.28214  0.43610  0.28381  1.0000
  H   H1428     1.0  0.08590  0.31953  0.42808  1.0000
  C   C913      1.0  0.16186  0.40112  0.27678  1.0000
  S   S371      1.0  0.40579  0.34931  0.42983  1.0000
  H   H1429     1.0  0.08942  0.32568  0.38528  1.0000
  C   C914      1.0  0.44544  0.46969  0.34076  1.0000
  H   H1430     1.0  0.28590  0.40056  0.31565  1.0000
  H   H1431     1.0  0.19502  0.42243  0.35195  1.0000
  N   N92       1.0  0.42175  0.41427  0.28128  1.0000
  C   C915      1.0  0.42486  0.40653  0.26819  1.0000
  C   C916      1.0  0.40519  0.41553  0.28959  1.0000
  C   C917      1.0  0.42505  0.43008  0.27521  1.0000
  C   C918      1.0  0.43192  0.40495  0.29216  1.0000
  C   C919      1.0  0.48222  0.36460  0.46551  1.0000
  S   S372      1.0  0.00065  0.29368  0.25739  1.0000
  H   H1432     1.0  0.08407  0.24953  0.28330  1.0000
  H   H1433     1.0  0.40227  0.40382  0.29441  1.0000
  H   H1434     1.0  0.40246  0.42131  0.29955  1.0000
  H   H1435     1.0  0.39718  0.42256  0.28176  1.0000
  H   H1436     1.0  0.06439  0.26174  0.26680  1.0000
  H   H1437     1.0  0.41788  0.43736  0.26668  1.0000
  H   H1438     1.0  0.16202  0.44883  0.33517  1.0000
  H   H1439     1.0  0.42996  0.41050  0.30212  1.0000
  H   H1440     1.0  0.44450  0.40379  0.28628  1.0000
  H   H1441     1.0  0.42972  0.39297  0.29704  1.0000
  S   S373      1.0  0.19743  0.45428  0.26545  1.0000
  H   H1442     1.0  0.42245  0.43636  0.28477  1.0000
  H   H1443     1.0  0.34448  0.23072  0.42165  1.0000
  H   H1444     1.0  0.18543  0.44244  0.34587  1.0000
  C   C920      1.0  0.10185  0.47340  0.44280  1.0000
  N   N93       1.0  0.17369  0.42553  0.34468  1.0000
  C   C921      1.0  0.16386  0.42516  0.36058  1.0000
  H   H1445     1.0  0.04509  0.25290  0.23322  1.0000
  H   H1446     1.0  0.39738  0.31507  0.43679  1.0000
  H   H1447     1.0  0.23817  0.24100  0.42366  1.0000
  H   H1448     1.0  0.22496  0.45225  0.32207  1.0000
  Fe  Fe185     1.0  0.40314  0.34519  0.45567  1.0000
  C   C922      1.0  0.35259  0.23512  0.39669  1.0000
  H   H1449     1.0  0.08797  0.24372  0.25718  1.0000
  C   C923      1.0  0.35902  0.28793  0.46748  1.0000
  H   H1450     1.0  0.00265  0.31854  0.22699  1.0000
  H   H1451     1.0  0.32289  0.28716  0.47062  1.0000
  H   H1452     1.0  0.06928  0.24247  0.29925  1.0000
  H   H1453     1.0  0.37750  0.40906  0.22995  1.0000
  S   S374      1.0  0.40903  0.32005  0.46757  1.0000
  H   H1454     1.0  0.99213  0.40084  0.40702  1.0000
  H   H1455     1.0  0.40301  0.27492  0.43045  1.0000
  H   H1456     1.0  0.40817  0.27329  0.45575  1.0000
  H   H1457     1.0  0.46103  0.34784  0.46974  1.0000
  C   C924      1.0  0.35742  0.39037  0.23701  1.0000
  C   C925      1.0  0.02340  0.39205  0.40243  1.0000
  H   H1458     1.0  0.42225  0.45613  0.34247  1.0000
  C   C926      1.0  0.18482  0.46673  0.22592  1.0000
  C   C927      1.0  0.08234  0.23370  0.26351  1.0000
  H   H1459     1.0  0.38782  0.39076  0.22469  1.0000
  H   H1460     1.0  0.35087  0.42125  0.22468  1.0000
  H   H1461     1.0  0.00944  0.47709  0.46961  1.0000
  H   H1462     1.0  0.48500  0.35849  0.42981  1.0000
  H   H1463     1.0  0.09406  0.44859  0.43913  1.0000
  H   H1464     1.0  0.01983  0.38731  0.43344  1.0000
  H   H1465     1.0  0.16288  0.47090  0.42892  1.0000
  H   H1466     1.0  0.45181  0.43067  0.34318  1.0000
  N   N94       1.0  0.07037  0.23728  0.27744  1.0000
  C   C928      1.0  0.10605  0.45659  0.46745  1.0000
  C   C929      1.0  0.45284  0.44297  0.33781  1.0000
  H   H1467     1.0  0.36550  0.37920  0.24104  1.0000
  S   S375      1.0  0.05944  0.41360  0.45956  1.0000
  H   H1468     1.0  0.42029  0.46046  0.36093  1.0000
  H   H1469     1.0  0.44954  0.43641  0.36890  1.0000
  H   H1470     1.0  0.44844  0.44650  0.32690  1.0000
  C   C930      1.0  0.19174  0.47548  0.33836  1.0000
  C   C931      1.0  0.09455  0.44839  0.45119  1.0000
  H   H1471     1.0  0.02439  0.37950  0.40839  1.0000
  C   C932      1.0  0.32103  0.27526  0.47199  1.0000
  C   C933      1.0  0.20714  0.46675  0.33615  1.0000
  C   C934      1.0  0.08384  0.38451  0.23329  1.0000
  H   H1472     1.0  0.44087  0.47369  0.32992  1.0000
  H   H1473     1.0  0.02383  0.42175  0.40084  1.0000
  C   C935      1.0  0.01901  0.39964  0.42680  1.0000
  H   H1474     1.0  0.30202  0.47014  0.39282  1.0000
  H   H1475     1.0  0.00217  0.34067  0.23729  1.0000
  H   H1476     1.0  0.08212  0.37236  0.23583  1.0000
  H   H1477     1.0  0.10172  0.47416  0.43049  1.0000
  H   H1478     1.0  0.09003  0.47936  0.44839  1.0000
  H   H1479     1.0  0.03543  0.39427  0.39872  1.0000
  H   H1480     1.0  0.00831  0.44988  0.45721  1.0000
  H   H1481     1.0  0.99721  0.38678  0.42391  1.0000
  Fe  Fe186     1.0  0.36770  0.23604  0.45387  1.0000
  H   H1482     1.0  0.46359  0.34745  0.44976  1.0000
  C   C936      1.0  0.99291  0.34790  0.23098  1.0000
  C   C937      1.0  0.24270  0.23036  0.41868  1.0000
  H   H1483     1.0  0.30303  0.47924  0.36451  1.0000
  H   H1484     1.0  0.27731  0.47963  0.38308  1.0000
  Fe  Fe187     1.0  0.32677  0.32344  0.62528  1.0000
  S   S376      1.0  0.32156  0.34597  0.60791  1.0000
  S   S377      1.0  0.32008  0.30113  0.62601  1.0000
  Fe  Fe188     1.0  0.34290  0.33717  0.64137  1.0000
  S   S378      1.0  0.33914  0.36075  0.62532  1.0000
  Fe  Fe189     1.0  0.31501  0.35741  0.62823  1.0000
  S   S379      1.0  0.29525  0.37875  0.62859  1.0000
  Fe  Fe190     1.0  0.34598  0.34740  0.60644  1.0000
  S   S380      1.0  0.36076  0.35556  0.58296  1.0000
  S   S381      1.0  0.31809  0.33476  0.64596  1.0000
  S   S382      1.0  0.35185  0.32396  0.62213  1.0000
  Fe  Fe191     1.0  0.38721  0.32587  0.48532  1.0000
  H   H1485     1.0  0.11238  0.42542  0.69475  1.0000
  C   C938      1.0  0.47531  0.32517  0.50150  1.0000
  Fe  Fe192     1.0  0.40330  0.41983  0.56712  1.0000
  S   S383      1.0  0.41167  0.44085  0.56663  1.0000
  S   S384      1.0  0.38852  0.40878  0.58914  1.0000
  Fe  Fe193     1.0  0.42175  0.41700  0.53473  1.0000
  S   S385      1.0  0.43192  0.43763  0.53143  1.0000
  S   S386      1.0  0.43105  0.40313  0.51601  1.0000
  Fe  Fe194     1.0  0.43512  0.42786  0.55585  1.0000
  S   S387      1.0  0.45808  0.42742  0.56062  1.0000
  Fe  Fe195     1.0  0.40775  0.44878  0.54240  1.0000
  H   H1486     1.0  0.14711  0.28781  0.50833  1.0000
  S   S388      1.0  0.42714  0.40610  0.55832  1.0000
  S   S389      1.0  0.39704  0.42902  0.54370  1.0000
  H   H1487     1.0  0.35368  0.24647  0.61108  1.0000
  H   H1488     1.0  0.33405  0.47677  0.50850  1.0000
  Fe  Fe196     1.0  0.39962  0.23137  0.71070  1.0000
  H   H1489     1.0  0.44965  0.40892  0.66909  1.0000
  H   H1490     1.0  0.05932  0.44730  0.50310  1.0000
  H   H1491     1.0  0.47437  0.39900  0.54701  1.0000
  C   C939      1.0  0.17247  0.45492  0.60655  1.0000
  C   C940      1.0  0.47483  0.39415  0.71884  1.0000
  H   H1492     1.0  0.46170  0.37720  0.55071  1.0000
  H   H1493     1.0  0.47302  0.39922  0.70677  1.0000
  H   H1494     1.0  0.47974  0.44203  0.56568  1.0000
  S   S390      1.0  0.39938  0.33167  0.50038  1.0000
  H   H1495     1.0  0.18642  0.32859  0.59343  1.0000
  H   H1496     1.0  0.32695  0.26027  0.50874  1.0000
  H   H1497     1.0  0.04652  0.35476  0.65472  1.0000
  S   S391      1.0  0.38366  0.37574  0.49850  1.0000
  S   S392      1.0  0.99985  0.33567  0.67617  1.0000
  H   H1498     1.0  0.38105  0.33485  0.67202  1.0000
  H   H1499     1.0  0.46603  0.41724  0.65779  1.0000
  Fe  Fe197     1.0  0.09500  0.36031  0.58095  1.0000
  S   S393      1.0  0.09523  0.38522  0.56825  1.0000
  S   S394      1.0  0.07380  0.35162  0.59644  1.0000
  Fe  Fe198     1.0  0.12892  0.34813  0.56696  1.0000
  S   S395      1.0  0.13224  0.37182  0.55304  1.0000
  S   S396      1.0  0.14895  0.32717  0.56944  1.0000
  Fe  Fe199     1.0  0.11843  0.38050  0.57451  1.0000
  S   S397      1.0  0.12699  0.39916  0.57945  1.0000
  Fe  Fe200     1.0  0.10897  0.37481  0.54768  1.0000
  S   S398      1.0  0.10665  0.38757  0.52327  1.0000
  S   S399      1.0  0.11702  0.35649  0.58903  1.0000
  S   S400      1.0  0.10676  0.35024  0.55973  1.0000
  C   C941      1.0  0.17530  0.33472  0.58965  1.0000
  S   S401      1.0  0.04688  0.38673  0.50155  1.0000
  N   N95       1.0  0.12493  0.40442  0.70750  1.0000
  H   H1500     1.0  0.37062  0.46263  0.53338  1.0000
  S   S402      1.0  0.41170  0.25076  0.70706  1.0000
  H   H1501     1.0  0.14674  0.27072  0.47583  1.0000
  H   H1502     1.0  0.36034  0.38581  0.63188  1.0000
  H   H1503     1.0  0.30516  0.25210  0.48442  1.0000
  H   H1504     1.0  0.31204  0.24528  0.50217  1.0000
  H   H1505     1.0  0.18605  0.35276  0.56212  1.0000
  Fe  Fe201     1.0  0.16546  0.24855  0.54703  1.0000
  S   S403      1.0  0.14734  0.27090  0.54275  1.0000
  H   H1506     1.0  0.18087  0.46364  0.55174  1.0000
  C   C942      1.0  0.35903  0.39861  0.63047  1.0000
  S   S404      1.0  0.19047  0.24597  0.53397  1.0000
  N   N96       1.0  0.15643  0.47484  0.55517  1.0000
  Fe  Fe202     1.0  0.30241  0.27437  0.56361  1.0000
  S   S405      1.0  0.28275  0.26171  0.57209  1.0000
  S   S406      1.0  0.30275  0.29850  0.56483  1.0000
  Fe  Fe203     1.0  0.32544  0.24793  0.55015  1.0000
  C   C943      1.0  0.01575  0.36899  0.65614  1.0000
  S   S407      1.0  0.35031  0.24345  0.53678  1.0000
  Fe  Fe204     1.0  0.29120  0.25444  0.54908  1.0000
  S   S408      1.0  0.27686  0.25343  0.53311  1.0000
  C   C944      1.0  0.22996  0.23997  0.55782  1.0000
  S   S409      1.0  0.30918  0.26908  0.53987  1.0000
  S   S410      1.0  0.31998  0.25423  0.57333  1.0000
  H   H1507     1.0  0.16552  0.33102  0.59917  1.0000
  N   N97       1.0  0.47482  0.38802  0.52887  1.0000
  C   C945      1.0  0.32958  0.26622  0.49623  1.0000
  Fe  Fe205     1.0  0.05502  0.31580  0.68287  1.0000
  S   S411      1.0  0.05473  0.30454  0.70811  1.0000
  S   S412      1.0  0.07775  0.31901  0.66615  1.0000
  Fe  Fe206     1.0  0.03681  0.29308  0.70612  1.0000
  H   H1508     1.0  0.47378  0.38258  0.50785  1.0000
  C   C946      1.0  0.36023  0.47937  0.56765  1.0000
  C   C947      1.0  0.02436  0.37439  0.62809  1.0000
  S   S413      1.0  0.03867  0.30275  0.68040  1.0000
  H   H1509     1.0  0.16458  0.35364  0.60986  1.0000
  C   C948      1.0  0.06345  0.46955  0.48875  1.0000
  N   N98       1.0  0.33746  0.24162  0.63301  1.0000
  H   H1510     1.0  0.06944  0.45172  0.53169  1.0000
  C   C949      1.0  0.33086  0.40281  0.63697  1.0000
  H   H1511     1.0  0.43205  0.34143  0.49823  1.0000
  C   C950      1.0  0.19306  0.44272  0.70100  1.0000
  H   H1512     1.0  0.06051  0.33916  0.71244  1.0000
  Fe  Fe207     1.0  0.20649  0.38727  0.64681  1.0000
  S   S414      1.0  0.18266  0.38549  0.66153  1.0000
  S   S415      1.0  0.22634  0.36829  0.65472  1.0000
  Fe  Fe208     1.0  0.19350  0.41709  0.62538  1.0000
  S   S416      1.0  0.16860  0.41773  0.63843  1.0000
  S   S417      1.0  0.20167  0.43532  0.60468  1.0000
  Fe  Fe209     1.0  0.17858  0.41118  0.65973  1.0000
  Fe  Fe210     1.0  0.17495  0.39201  0.63896  1.0000
  S   S418      1.0  0.15919  0.37793  0.63696  1.0000
  S   S419      1.0  0.20307  0.41256  0.64670  1.0000
  S   S420      1.0  0.19920  0.39173  0.62425  1.0000
  S   S421      1.0  0.37151  0.30882  0.49419  1.0000
  C   C951      1.0  0.09320  0.43217  0.51660  1.0000
  Fe  Fe211     1.0  0.01989  0.32282  0.68779  1.0000
  H   H1513     1.0  0.44659  0.42077  0.70410  1.0000
  C   C952      1.0  0.03893  0.25394  0.70883  1.0000
  H   H1514     1.0  0.32985  0.40543  0.64841  1.0000
  C   C953      1.0  0.15831  0.35943  0.58143  1.0000
  C   C954      1.0  0.15748  0.26628  0.48061  1.0000
  C   C955      1.0  0.04592  0.24517  0.68459  1.0000
  C   C956      1.0  0.04367  0.25699  0.69259  1.0000
  S   S422      1.0  0.40946  0.37531  0.68646  1.0000
  S   S423      1.0  0.42706  0.40402  0.69829  1.0000
  H   H1515     1.0  0.04943  0.24758  0.67200  1.0000
  H   H1516     1.0  0.04555  0.26842  0.68618  1.0000
  C   C957      1.0  0.31484  0.25163  0.48978  1.0000
  H   H1517     1.0  0.36955  0.40196  0.62190  1.0000
  H   H1518     1.0  0.33867  0.36267  0.65839  1.0000
  C   C958      1.0  0.46678  0.33870  0.50681  1.0000
  S   S424      1.0  0.38011  0.36274  0.71277  1.0000
  H   H1519     1.0  0.38699  0.28388  0.66244  1.0000
  H   H1520     1.0  0.14963  0.45429  0.57090  1.0000
  H   H1521     1.0  0.38770  0.33188  0.71424  1.0000
  H   H1522     1.0  0.45529  0.41036  0.64839  1.0000
  H   H1523     1.0  0.22960  0.39531  0.66633  1.0000
  C   C959      1.0  0.36525  0.23821  0.50777  1.0000
  N   N99       1.0  0.22139  0.39059  0.69121  1.0000
  H   H1524     1.0  0.37390  0.24387  0.50845  1.0000
  H   H1525     1.0  0.01600  0.26560  0.68082  1.0000
  H   H1526     1.0  0.48268  0.25459  0.71620  1.0000
  S   S425      1.0  0.02312  0.42336  0.47884  1.0000
  C   C960      1.0  0.25042  0.24391  0.53446  1.0000
  C   C961      1.0  0.25842  0.24905  0.54244  1.0000
  C   C962      1.0  0.25187  0.25012  0.55794  1.0000
  C   C963      1.0  0.41814  0.30063  0.71737  1.0000
  C   C964      1.0  0.47406  0.39268  0.51224  1.0000
  H   H1527     1.0  0.17137  0.46475  0.57149  1.0000
  C   C965      1.0  0.99134  0.26628  0.67016  1.0000
  H   H1528     1.0  0.39704  0.32775  0.55944  1.0000
  C   C966      1.0  0.02664  0.34774  0.64274  1.0000
  H   H1529     1.0  0.01100  0.45726  0.48009  1.0000
  H   H1530     1.0  0.19785  0.35079  0.57559  1.0000
  H   H1531     1.0  0.37708  0.26985  0.70527  1.0000
  H   H1532     1.0  0.39391  0.34297  0.56953  1.0000
  C   C967      1.0  0.13507  0.39389  0.59600  1.0000
  C   C968      1.0  0.14525  0.40238  0.59701  1.0000
  C   C969      1.0  0.15249  0.39782  0.60973  1.0000
  C   C970      1.0  0.14944  0.38481  0.62153  1.0000
  C   C971      1.0  0.13901  0.37655  0.62066  1.0000
  C   C972      1.0  0.13187  0.38105  0.60792  1.0000
  H   H1533     1.0  0.14773  0.41236  0.58783  1.0000
  H   H1534     1.0  0.16054  0.40424  0.61034  1.0000
  H   H1535     1.0  0.13652  0.36656  0.62984  1.0000
  H   H1536     1.0  0.12379  0.37464  0.60741  1.0000
  C   C973      1.0  0.07553  0.34202  0.61553  1.0000
  C   C974      1.0  0.06593  0.33160  0.62423  1.0000
  C   C975      1.0  0.06632  0.32464  0.63990  1.0000
  C   C976      1.0  0.07670  0.32775  0.64674  1.0000
  C   C977      1.0  0.08664  0.33778  0.63789  1.0000
  C   C978      1.0  0.08589  0.34509  0.62239  1.0000
  H   H1537     1.0  0.05809  0.32899  0.61885  1.0000
  H   H1538     1.0  0.05881  0.31669  0.64663  1.0000
  H   H1539     1.0  0.09465  0.34024  0.64317  1.0000
  H   H1540     1.0  0.09299  0.35345  0.61597  1.0000
  C   C979      1.0  0.14909  0.31185  0.56122  1.0000
  C   C980      1.0  0.13805  0.31344  0.55266  1.0000
  C   C981      1.0  0.13767  0.30079  0.54702  1.0000
  C   C982      1.0  0.14840  0.28653  0.54977  1.0000
  C   C983      1.0  0.15961  0.28495  0.55815  1.0000
  C   C984      1.0  0.15994  0.29762  0.56386  1.0000
  H   H1541     1.0  0.12984  0.32441  0.55030  1.0000
  H   H1542     1.0  0.12904  0.30209  0.54046  1.0000
  H   H1543     1.0  0.16797  0.27397  0.56027  1.0000
  H   H1544     1.0  0.16855  0.29631  0.57044  1.0000
  C   C985      1.0  0.08996  0.38727  0.51743  1.0000
  C   C986      1.0  0.08733  0.39623  0.50288  1.0000
  C   C987      1.0  0.07406  0.39631  0.49797  1.0000
  C   C988      1.0  0.06340  0.38733  0.50754  1.0000
  C   C989      1.0  0.06595  0.37854  0.52219  1.0000
  C   C990      1.0  0.07916  0.37856  0.52717  1.0000
  H   H1545     1.0  0.09564  0.40300  0.49531  1.0000
  H   H1546     1.0  0.07219  0.40315  0.48672  1.0000
  H   H1547     1.0  0.05773  0.37160  0.52966  1.0000
  H   H1548     1.0  0.08106  0.37167  0.53845  1.0000
  H   H1549     1.0  0.00998  0.25455  0.70016  1.0000
  C   C991      1.0  0.19854  0.44015  0.68586  1.0000
  C   C992      1.0  0.05803  0.34629  0.72087  1.0000
  H   H1550     1.0  0.17531  0.33041  0.57940  1.0000
  H   H1551     1.0  0.35618  0.30109  0.69267  1.0000
  H   H1552     1.0  0.10650  0.41163  0.53894  1.0000
  S   S426      1.0  0.30818  0.23262  0.55732  1.0000
  C   C993      1.0  0.00565  0.26258  0.68989  1.0000
  H   H1553     1.0  0.40816  0.37171  0.53462  1.0000
  Fe  Fe212     1.0  0.42823  0.23306  0.72076  1.0000
  H   H1554     1.0  0.20934  0.44334  0.67885  1.0000
  H   H1555     1.0  0.15657  0.37240  0.57818  1.0000
  H   H1556     1.0  0.38203  0.30431  0.66272  1.0000
  C   C994      1.0  0.45261  0.32331  0.49392  1.0000
  S   S427      1.0  0.38020  0.35050  0.47241  1.0000
  H   H1557     1.0  0.37634  0.23505  0.48445  1.0000
  C   C995      1.0  0.48687  0.44203  0.67239  1.0000
  H   H1558     1.0  0.18495  0.45150  0.63247  1.0000
  H   H1559     1.0  0.35412  0.47206  0.57759  1.0000
  C   C996      1.0  0.41767  0.39644  0.51044  1.0000
  C   C997      1.0  0.42332  0.38565  0.50080  1.0000
  C   C998      1.0  0.41295  0.37937  0.49690  1.0000
  C   C999      1.0  0.39686  0.38409  0.50242  1.0000
  C   C1000     1.0  0.39118  0.39510  0.51184  1.0000
  C   C1001     1.0  0.40157  0.40123  0.51591  1.0000
  H   H1560     1.0  0.43577  0.38201  0.49648  1.0000
  H   H1561     1.0  0.09447  0.46241  0.47356  1.0000
  H   H1562     1.0  0.37872  0.39873  0.51616  1.0000
  H   H1563     1.0  0.39713  0.40955  0.52332  1.0000
  C   C1002     1.0  0.45605  0.43892  0.57387  1.0000
  H   H1564     1.0  0.40869  0.33206  0.53090  1.0000
  C   C1003     1.0  0.36824  0.30050  0.69353  1.0000
  C   C1004     1.0  0.19434  0.46616  0.59065  1.0000
  S   S428      1.0  0.44429  0.31431  0.48474  1.0000
  C   C1005     1.0  0.46865  0.44493  0.57363  1.0000
  C   C1006     1.0  0.12112  0.42162  0.70216  1.0000
  Fe  Fe213     1.0  0.19593  0.23049  0.55644  1.0000
  H   H1565     1.0  0.42474  0.33808  0.53348  1.0000
  H   H1566     1.0  0.10888  0.44439  0.47425  1.0000
  H   H1567     1.0  0.36259  0.23587  0.62730  1.0000
  C   C1007     1.0  0.20630  0.38827  0.69037  1.0000
  H   H1568     1.0  0.23449  0.36925  0.68404  1.0000
  S   S429      1.0  0.42069  0.33119  0.70837  1.0000
  H   H1569     1.0  0.37318  0.45551  0.51633  1.0000
  N   N100      1.0  0.40202  0.34944  0.54470  1.0000
  C   C1008     1.0  0.36958  0.36977  0.58420  1.0000
  C   C1009     1.0  0.37189  0.38237  0.57159  1.0000
  C   C1010     1.0  0.37849  0.39402  0.57277  1.0000
  C   C1011     1.0  0.38259  0.39316  0.58663  1.0000
  C   C1012     1.0  0.38062  0.38037  0.59909  1.0000
  C   C1013     1.0  0.37411  0.36869  0.59789  1.0000
  H   H1570     1.0  0.36812  0.38344  0.56109  1.0000
  H   H1571     1.0  0.37979  0.40398  0.56319  1.0000
  H   H1572     1.0  0.38410  0.37950  0.60971  1.0000
  H   H1573     1.0  0.37263  0.35882  0.60756  1.0000
  C   C1014     1.0  0.27608  0.37605  0.63657  1.0000
  C   C1015     1.0  0.27314  0.36231  0.64718  1.0000
  C   C1016     1.0  0.25778  0.36011  0.65278  1.0000
  C   C1017     1.0  0.24532  0.37166  0.64783  1.0000
  C   C1018     1.0  0.24820  0.38555  0.63747  1.0000
  C   C1019     1.0  0.26356  0.38777  0.63193  1.0000
  H   H1574     1.0  0.28271  0.35337  0.65105  1.0000
  H   H1575     1.0  0.25557  0.34940  0.66091  1.0000
  H   H1576     1.0  0.23863  0.39451  0.63359  1.0000
  H   H1577     1.0  0.26579  0.39846  0.62377  1.0000
  C   C1020     1.0  0.31611  0.30002  0.60871  1.0000
  C   C1021     1.0  0.30961  0.28781  0.60874  1.0000
  C   C1022     1.0  0.30575  0.28709  0.59520  1.0000
  C   C1023     1.0  0.30811  0.29877  0.58169  1.0000
  C   C1024     1.0  0.31471  0.31089  0.58163  1.0000
  C   C1025     1.0  0.31891  0.31139  0.59505  1.0000
  H   H1578     1.0  0.30727  0.27908  0.61932  1.0000
  H   H1579     1.0  0.30056  0.27774  0.59533  1.0000
  H   H1580     1.0  0.31669  0.31985  0.57115  1.0000
  H   H1581     1.0  0.32434  0.32056  0.59479  1.0000
  S   S430      1.0  0.01655  0.31217  0.71326  1.0000
  H   H1582     1.0  0.10934  0.43065  0.53766  1.0000
  N   N101      1.0  0.99652  0.25537  0.68398  1.0000
  H   H1583     1.0  0.29233  0.27775  0.49103  1.0000
  H   H1584     1.0  0.17213  0.37001  0.59731  1.0000
  Fe  Fe214     1.0  0.40625  0.35584  0.70757  1.0000
  C   C1026     1.0  0.35967  0.34728  0.66454  1.0000
  H   H1585     1.0  0.09646  0.42170  0.55440  1.0000
  C   C1027     1.0  0.05818  0.45567  0.49229  1.0000
  H   H1586     1.0  0.09901  0.42061  0.51358  1.0000
  H   H1587     1.0  0.35350  0.42848  0.61508  1.0000
  C   C1028     1.0  0.06912  0.35431  0.72086  1.0000
  N   N102      1.0  0.35165  0.47227  0.52158  1.0000
  N   N103      1.0  0.44361  0.43212  0.65534  1.0000
  C   C1029     1.0  0.45411  0.41646  0.65775  1.0000
  C   C1030     1.0  0.44241  0.43975  0.66804  1.0000
  C   C1031     1.0  0.42795  0.43048  0.65544  1.0000
  C   C1032     1.0  0.44999  0.44174  0.64021  1.0000
  H   H1588     1.0  0.10155  0.40206  0.70965  1.0000
  C   C1033     1.0  0.13156  0.39715  0.69384  1.0000
  C   C1034     1.0  0.36232  0.29116  0.48017  1.0000
  H   H1589     1.0  0.43477  0.45168  0.66649  1.0000
  H   H1590     1.0  0.43742  0.43289  0.67959  1.0000
  H   H1591     1.0  0.45406  0.44093  0.66849  1.0000
  H   H1592     1.0  0.41969  0.44206  0.65372  1.0000
  H   H1593     1.0  0.42286  0.42323  0.66673  1.0000
  H   H1594     1.0  0.42841  0.42472  0.64604  1.0000
  H   H1595     1.0  0.45106  0.43642  0.63030  1.0000
  H   H1596     1.0  0.46183  0.44312  0.63979  1.0000
  H   H1597     1.0  0.44247  0.45369  0.63801  1.0000
  H   H1598     1.0  0.38530  0.26399  0.68701  1.0000
  N   N104      1.0  0.31691  0.26745  0.48859  1.0000
  C   C1035     1.0  0.05147  0.45247  0.48181  1.0000
  C   C1036     1.0  0.22795  0.40058  0.67643  1.0000
  H   H1599     1.0  0.17290  0.24944  0.50331  1.0000
  H   H1600     1.0  0.00007  0.23490  0.67497  1.0000
  H   H1601     1.0  0.30330  0.28863  0.49587  1.0000
  H   H1602     1.0  0.41741  0.37089  0.48964  1.0000
  C   C1037     1.0  0.00245  0.46843  0.47716  1.0000
  H   H1603     1.0  0.08358  0.43743  0.51028  1.0000
  H   H1604     1.0  0.08012  0.35330  0.71239  1.0000
  H   H1605     1.0  0.34270  0.38538  0.66555  1.0000
  C   C1038     1.0  0.16931  0.47643  0.65708  1.0000
  C   C1039     1.0  0.23620  0.23935  0.54215  1.0000
  H   H1606     1.0  0.13953  0.26236  0.51899  1.0000
  H   H1607     1.0  0.38579  0.36438  0.53084  1.0000
  C   C1040     1.0  0.17919  0.43848  0.71013  1.0000
  H   H1608     1.0  0.47512  0.43359  0.71196  1.0000
  N   N105      1.0  0.37986  0.28886  0.68532  1.0000
  S   S431      1.0  0.45434  0.23007  0.71212  1.0000
  H   H1609     1.0  0.25774  0.25436  0.56410  1.0000
  C   C1041     1.0  0.37662  0.27315  0.69272  1.0000
  H   H1610     1.0  0.01047  0.23213  0.68985  1.0000
  H   H1611     1.0  0.46189  0.37010  0.53419  1.0000
  C   C1042     1.0  0.21894  0.39822  0.70425  1.0000
  H   H1612     1.0  0.17873  0.26770  0.49489  1.0000
  N   N106      1.0  0.15449  0.26875  0.49657  1.0000
  H   H1613     1.0  0.38524  0.35768  0.67865  1.0000
  H   H1614     1.0  0.39833  0.30079  0.68134  1.0000
  H   H1615     1.0  0.19776  0.39959  0.68821  1.0000
  H   H1616     1.0  0.20093  0.38094  0.70139  1.0000
  H   H1617     1.0  0.14993  0.47089  0.60854  1.0000
  H   H1618     1.0  0.46282  0.41077  0.53333  1.0000
  C   C1043     1.0  0.23241  0.37526  0.69373  1.0000
  C   C1044     1.0  0.23767  0.24565  0.56557  1.0000
  H   H1619     1.0  0.02488  0.38653  0.62774  1.0000
  H   H1620     1.0  0.02990  0.33909  0.65322  1.0000
  C   C1045     1.0  0.35124  0.37447  0.66655  1.0000
  H   H1621     1.0  0.33716  0.26627  0.62629  1.0000
  H   H1622     1.0  0.07569  0.44557  0.54979  1.0000
  C   C1046     1.0  0.37264  0.34585  0.67056  1.0000
  N   N107      1.0  0.27570  0.34153  0.61036  1.0000
  C   C1047     1.0  0.26112  0.35297  0.61483  1.0000
  C   C1048     1.0  0.27194  0.32784  0.60779  1.0000
  C   C1049     1.0  0.28437  0.33637  0.62295  1.0000
  C   C1050     1.0  0.28545  0.34896  0.59588  1.0000
  H   H1623     1.0  0.25411  0.35696  0.60574  1.0000
  H   H1624     1.0  0.26365  0.36353  0.61655  1.0000
  H   H1625     1.0  0.25361  0.34797  0.62596  1.0000
  H   H1626     1.0  0.28274  0.31900  0.60440  1.0000
  H   H1627     1.0  0.26466  0.32193  0.61853  1.0000
  H   H1628     1.0  0.26546  0.33124  0.59831  1.0000
  H   H1629     1.0  0.27715  0.33141  0.63429  1.0000
  H   H1630     1.0  0.28817  0.34624  0.62459  1.0000
  H   H1631     1.0  0.29506  0.32723  0.62030  1.0000
  H   H1632     1.0  0.27932  0.35298  0.58609  1.0000
  H   H1633     1.0  0.29660  0.34069  0.59222  1.0000
  H   H1634     1.0  0.28855  0.35931  0.59747  1.0000
  H   H1635     1.0  0.04414  0.37507  0.64516  1.0000
  H   H1636     1.0  0.43226  0.43751  0.58503  1.0000
  C   C1051     1.0  0.34478  0.40487  0.61014  1.0000
  H   H1637     1.0  0.34652  0.39219  0.61064  1.0000
  H   H1638     1.0  0.15742  0.35550  0.57131  1.0000
  H   H1639     1.0  0.35444  0.40915  0.60091  1.0000
  C   C1052     1.0  0.39571  0.28895  0.68626  1.0000
  C   C1053     1.0  0.19027  0.43327  0.67985  1.0000
  C   C1054     1.0  0.07569  0.42063  0.53924  1.0000
  H   H1640     1.0  0.11614  0.42748  0.71219  1.0000
  H   H1641     1.0  0.38155  0.34559  0.54041  1.0000
  H   H1642     1.0  0.47482  0.30696  0.49099  1.0000
  N   N108      1.0  0.34449  0.40768  0.62535  1.0000
  H   H1643     1.0  0.37772  0.36024  0.55133  1.0000
  C   C1055     1.0  0.40781  0.36266  0.54562  1.0000
  H   H1644     1.0  0.10179  0.43980  0.51192  1.0000
  C   C1056     1.0  0.45237  0.45922  0.59334  1.0000
  C   C1057     1.0  0.37503  0.35879  0.67433  1.0000
  H   H1645     1.0  0.08101  0.40864  0.53720  1.0000
  C   C1058     1.0  0.04384  0.23020  0.69284  1.0000
  C   C1059     1.0  0.40164  0.33776  0.55960  1.0000
  H   H1646     1.0  0.17099  0.46746  0.66794  1.0000
  H   H1647     1.0  0.35930  0.40055  0.64187  1.0000
  N   N109      1.0  0.02751  0.36365  0.64281  1.0000
  H   H1648     1.0  0.16785  0.44495  0.61372  1.0000
  H   H1649     1.0  0.47649  0.45996  0.58288  1.0000
  C   C1060     1.0  0.30220  0.27664  0.49642  1.0000
  H   H1650     1.0  0.13093  0.26548  0.50271  1.0000
  C   C1061     1.0  0.17076  0.43180  0.70399  1.0000
  H   H1651     1.0  0.21047  0.40970  0.70286  1.0000
  H   H1652     1.0  0.35975  0.44884  0.53392  1.0000
  H   H1653     1.0  0.36687  0.29379  0.66759  1.0000
  H   H1654     1.0  0.20675  0.46490  0.58573  1.0000
  H   H1655     1.0  0.16636  0.47487  0.53090  1.0000
  C   C1062     1.0  0.18622  0.35637  0.57272  1.0000
  H   H1656     1.0  0.33515  0.46701  0.54324  1.0000
  H   H1657     1.0  0.47932  0.35814  0.47782  1.0000
  H   H1658     1.0  0.08793  0.45433  0.53228  1.0000
  H   H1659     1.0  0.32562  0.24442  0.48375  1.0000
  H   H1660     1.0  0.00144  0.26924  0.66069  1.0000
  H   H1661     1.0  0.15999  0.42860  0.71107  1.0000
  C   C1063     1.0  0.37891  0.29284  0.66879  1.0000
  S   S432      1.0  0.39859  0.47403  0.53278  1.0000
  H   H1662     1.0  0.33369  0.41092  0.60626  1.0000
  C   C1064     1.0  0.10046  0.42336  0.54150  1.0000
  H   H1663     1.0  0.25538  0.24312  0.52244  1.0000
  H   H1664     1.0  0.37050  0.31245  0.68849  1.0000
  H   H1665     1.0  0.35189  0.46365  0.50189  1.0000
  H   H1666     1.0  0.36484  0.27257  0.69205  1.0000
  H   H1667     1.0  0.18527  0.35188  0.60320  1.0000
  H   H1668     1.0  0.32521  0.26024  0.64505  1.0000
  S   S433      1.0  0.36755  0.38977  0.67602  1.0000
  H   H1669     1.0  0.06583  0.42546  0.53315  1.0000
  S   S434      1.0  0.20398  0.45113  0.70806  1.0000
  C   C1065     1.0  0.39390  0.31996  0.71698  1.0000
  H   H1670     1.0  0.19469  0.43127  0.66823  1.0000
  C   C1066     1.0  0.36433  0.45923  0.52652  1.0000
  H   H1671     1.0  0.32504  0.25221  0.61454  1.0000
  H   H1672     1.0  0.01593  0.38100  0.65655  1.0000
  Fe  Fe215     1.0  0.04218  0.40165  0.47842  1.0000
  C   C1067     1.0  0.17634  0.45664  0.64201  1.0000
  H   H1673     1.0  0.34608  0.25581  0.64248  1.0000
  H   H1674     1.0  0.45027  0.38882  0.53682  1.0000
  H   H1675     1.0  0.20775  0.38237  0.68078  1.0000
  C   C1068     1.0  0.16233  0.46959  0.60356  1.0000
  H   H1676     1.0  0.22785  0.36736  0.70475  1.0000
  C   C1069     1.0  0.00643  0.24068  0.67965  1.0000
  C   C1070     1.0  0.07977  0.44621  0.53704  1.0000
  H   H1677     1.0  0.22013  0.41234  0.67426  1.0000
  H   H1678     1.0  0.01461  0.34724  0.64271  1.0000
  C   C1071     1.0  0.14203  0.26082  0.50683  1.0000
  S   S435      1.0  0.16587  0.42050  0.68137  1.0000
  Fe  Fe216     1.0  0.40944  0.38915  0.70330  1.0000
  N   N110      1.0  0.17345  0.35189  0.58587  1.0000
  S   S436      1.0  0.03640  0.33682  0.68799  1.0000
  C   C1072     1.0  0.17634  0.42913  0.68884  1.0000
  C   C1073     1.0  0.42670  0.41022  0.71496  1.0000
  H   H1679     1.0  0.23002  0.40047  0.70506  1.0000
  H   H1680     1.0  0.41986  0.35881  0.54772  1.0000
  H   H1681     1.0  0.36844  0.29762  0.70611  1.0000
  C   C1074     1.0  0.18852  0.45323  0.60028  1.0000
  C   C1075     1.0  0.44178  0.44269  0.58423  1.0000
  H   H1682     1.0  0.33251  0.43175  0.61994  1.0000
  H   H1683     1.0  0.07075  0.41943  0.55198  1.0000
  C   C1076     1.0  0.11057  0.39897  0.71667  1.0000
  C   C1077     1.0  0.36440  0.37318  0.67217  1.0000
  Fe  Fe217     1.0  0.39427  0.35604  0.48594  1.0000
  H   H1684     1.0  0.01785  0.36112  0.66739  1.0000
  H   H1685     1.0  0.41272  0.35077  0.52045  1.0000
  H   H1686     1.0  0.03312  0.37068  0.61781  1.0000
  C   C1078     1.0  0.46819  0.31742  0.49515  1.0000
  C   C1079     1.0  0.43988  0.45295  0.59384  1.0000
  C   C1080     1.0  0.34367  0.46721  0.51248  1.0000
  C   C1081     1.0  0.41252  0.34224  0.53185  1.0000
  C   C1082     1.0  0.38610  0.35515  0.54169  1.0000
  H   H1687     1.0  0.05235  0.36034  0.63396  1.0000
  Fe  Fe218     1.0  0.38334  0.38314  0.69291  1.0000
  H   H1688     1.0  0.18515  0.36927  0.56964  1.0000
  C   C1083     1.0  0.35249  0.23739  0.62208  1.0000
  H   H1689     1.0  0.13459  0.38417  0.69744  1.0000
  H   H1690     1.0  0.44449  0.35485  0.51007  1.0000
  H   H1691     1.0  0.14841  0.35654  0.59119  1.0000
  C   C1084     1.0  0.17391  0.35706  0.59963  1.0000
  H   H1692     1.0  0.48430  0.39752  0.50483  1.0000
  C   C1085     1.0  0.16896  0.26226  0.50253  1.0000
  H   H1693     1.0  0.39699  0.28549  0.69852  1.0000
  N   N111      1.0  0.35352  0.28719  0.53855  1.0000
  C   C1086     1.0  0.34261  0.28857  0.52876  1.0000
  C   C1087     1.0  0.34786  0.27865  0.55453  1.0000
  C   C1088     1.0  0.35437  0.30300  0.53897  1.0000
  C   C1089     1.0  0.36919  0.27850  0.53199  1.0000
  H   H1694     1.0  0.33056  0.29468  0.53366  1.0000
  H   H1695     1.0  0.34198  0.27688  0.52785  1.0000
  H   H1696     1.0  0.34636  0.29528  0.51671  1.0000
  H   H1697     1.0  0.35559  0.27771  0.56235  1.0000
  H   H1698     1.0  0.33589  0.28460  0.55973  1.0000
  H   H1699     1.0  0.34745  0.26657  0.55460  1.0000
  H   H1700     1.0  0.36252  0.30247  0.54620  1.0000
  H   H1701     1.0  0.34268  0.30977  0.54390  1.0000
  H   H1702     1.0  0.35855  0.30978  0.52705  1.0000
  H   H1703     1.0  0.37386  0.28451  0.51992  1.0000
  H   H1704     1.0  0.36888  0.26655  0.53148  1.0000
  H   H1705     1.0  0.37772  0.27724  0.53908  1.0000
  C   C1090     1.0  0.33645  0.25661  0.63688  1.0000
  N   N112      1.0  0.08728  0.43059  0.53360  1.0000
  C   C1091     1.0  0.34332  0.42451  0.62379  1.0000
  C   C1092     1.0  0.41019  0.31632  0.71438  1.0000
  H   H1706     1.0  0.24396  0.37654  0.69438  1.0000
  S   S437      1.0  0.35691  0.33100  0.65976  1.0000
  C   C1093     1.0  0.34893  0.36162  0.66258  1.0000
  H   H1707     1.0  0.41349  0.33306  0.56216  1.0000
  C   C1094     1.0  0.46682  0.45506  0.58338  1.0000
  H   H1708     1.0  0.34317  0.42702  0.63506  1.0000
  H   H1709     1.0  0.23031  0.23497  0.53609  1.0000
  C   C1095     1.0  0.48687  0.45211  0.69859  1.0000
  C   C1096     1.0  0.45107  0.34437  0.50597  1.0000
  H   H1710     1.0  0.11295  0.38606  0.72102  1.0000
  H   H1711     1.0  0.16723  0.26425  0.51438  1.0000
  S   S438      1.0  0.21346  0.23240  0.56861  1.0000
  C   C1097     1.0  0.48031  0.43436  0.68732  1.0000
  C   C1098     1.0  0.14949  0.28566  0.49638  1.0000
  H   H1712     1.0  0.10151  0.28094  0.61165  1.0000
  C   C1099     1.0  0.04329  0.36346  0.64425  1.0000
  H   H1713     1.0  0.40021  0.36841  0.55519  1.0000
  C   C1100     1.0  0.46162  0.38069  0.53809  1.0000
  S   S439      1.0  0.03587  0.26837  0.71929  1.0000
  H   H1714     1.0  0.99577  0.30480  0.69416  1.0000
  H   H1715     1.0  0.08562  0.24880  0.71204  1.0000
  H   H1716     1.0  0.31973  0.40889  0.63317  1.0000
  H   H1717     1.0  0.13861  0.29100  0.49194  1.0000
  H   H1718     1.0  0.47531  0.42452  0.68868  1.0000
  Fe  Fe219     1.0  0.30113  0.24085  0.57968  1.0000
  H   H1719     1.0  0.33175  0.39001  0.63891  1.0000
  H   H1720     1.0  0.23267  0.24645  0.57759  1.0000
  H   H1721     1.0  0.13171  0.42612  0.69526  1.0000
  H   H1722     1.0  0.42878  0.45593  0.60173  1.0000
  H   H1723     1.0  0.16450  0.45880  0.63972  1.0000
  N   N113      1.0  0.11133  0.30115  0.60037  1.0000
  C   C1101     1.0  0.11008  0.30535  0.61521  1.0000
  C   C1102     1.0  0.12721  0.29191  0.59534  1.0000
  C   C1103     1.0  0.10833  0.31556  0.58833  1.0000
  C   C1104     1.0  0.09968  0.29187  0.60255  1.0000
  H   H1724     1.0  0.11836  0.31281  0.61385  1.0000
  H   H1725     1.0  0.11262  0.29478  0.62453  1.0000
  H   H1726     1.0  0.09813  0.31201  0.61951  1.0000
  H   H1727     1.0  0.12864  0.28878  0.58401  1.0000
  H   H1728     1.0  0.13627  0.29858  0.59370  1.0000
  H   H1729     1.0  0.12987  0.28082  0.60401  1.0000
  H   H1730     1.0  0.09647  0.32290  0.59172  1.0000
  H   H1731     1.0  0.10914  0.31289  0.57695  1.0000
  H   H1732     1.0  0.11695  0.32282  0.58633  1.0000
  H   H1733     1.0  0.10038  0.28846  0.59156  1.0000
  H   H1734     1.0  0.08757  0.29862  0.60620  1.0000
  H   H1735     1.0  0.12315  0.40026  0.68614  1.0000
  H   H1736     1.0  0.19923  0.47882  0.64504  1.0000
  H   H1737     1.0  0.15924  0.45188  0.55144  1.0000
  H   H1738     1.0  0.37929  0.46034  0.56160  1.0000
  H   H1739     1.0  0.23952  0.40227  0.67650  1.0000
  H   H1740     1.0  0.14745  0.40401  0.71078  1.0000
  C   C1105     1.0  0.34029  0.47692  0.53546  1.0000
  H   H1741     1.0  0.14536  0.24806  0.50733  1.0000
  C   C1106     1.0  0.36655  0.23338  0.49410  1.0000
  C   C1107     1.0  0.15092  0.46026  0.55836  1.0000
  C   C1108     1.0  0.35261  0.23603  0.52038  1.0000
  C   C1109     1.0  0.44402  0.33676  0.49937  1.0000
  H   H1742     1.0  0.14241  0.40104  0.68667  1.0000
  Fe  Fe220     1.0  0.47229  0.47179  0.61021  1.0000
  C   C1110     1.0  0.17184  0.47113  0.55915  1.0000
  H   H1743     1.0  0.40481  0.28060  0.67985  1.0000
  N   N114      1.0  0.17978  0.47114  0.64310  1.0000
  H   H1744     1.0  0.03456  0.34374  0.63229  1.0000
  H   H1745     1.0  0.19855  0.45897  0.65476  1.0000
  C   C1111     1.0  0.43784  0.41827  0.71463  1.0000
  H   H1746     1.0  0.32527  0.23184  0.65590  1.0000
  H   H1747     1.0  0.99861  0.27353  0.69355  1.0000
  S   S440      1.0  0.38349  0.39877  0.70801  1.0000
  H   H1748     1.0  0.46954  0.28183  0.71883  1.0000
  H   H1749     1.0  0.21423  0.39092  0.71564  1.0000
  Fe  Fe221     1.0  0.42068  0.32827  0.48120  1.0000
  H   H1750     1.0  0.46334  0.40178  0.51036  1.0000
  H   H1751     1.0  0.31289  0.24674  0.63346  1.0000
  C   C1112     1.0  0.37441  0.47275  0.55856  1.0000
  H   H1752     1.0  0.36215  0.28254  0.49103  1.0000
  H   H1753     1.0  0.20444  0.46400  0.63391  1.0000
  C   C1113     1.0  0.47394  0.40200  0.53448  1.0000
  H   H1754     1.0  0.04766  0.44162  0.48452  1.0000
  S   S441      1.0  0.47577  0.34908  0.51385  1.0000
  S   S442      1.0  0.17097  0.23477  0.56993  1.0000
  H   H1755     1.0  0.29877  0.27094  0.50895  1.0000
  H   H1756     1.0  0.01260  0.37472  0.62658  1.0000
  H   H1757     1.0  0.13934  0.46265  0.55539  1.0000
  H   H1758     1.0  0.43946  0.46688  0.55599  1.0000
  H   H1759     1.0  0.33841  0.45712  0.51951  1.0000
  C   C1114     1.0  0.19622  0.46810  0.64426  1.0000
  H   H1760     1.0  0.16157  0.25363  0.48035  1.0000
  H   H1761     1.0  0.43076  0.29773  0.71526  1.0000
  H   H1762     1.0  0.01716  0.24276  0.67064  1.0000
  C   C1115     1.0  0.48020  0.43947  0.70045  1.0000
  C   C1116     1.0  0.13650  0.40000  0.71734  1.0000
  H   H1763     1.0  0.17669  0.44757  0.65297  1.0000
  H   H1764     1.0  0.15864  0.29204  0.48888  1.0000
  H   H1765     1.0  0.15682  0.47873  0.65660  1.0000
  S   S443      1.0  0.44956  0.47275  0.60472  1.0000
  C   C1117     1.0  0.32443  0.24326  0.62567  1.0000
  S   S444      1.0  0.07293  0.47270  0.50150  1.0000
  H   H1766     1.0  0.42728  0.47282  0.54215  1.0000
  Fe  Fe222     1.0  0.03466  0.32456  0.71302  1.0000
  H   H1767     1.0  0.34083  0.25934  0.49062  1.0000
  H   H1768     1.0  0.99182  0.34506  0.70595  1.0000
  H   H1769     1.0  0.07061  0.24116  0.70962  1.0000
  C   C1118     1.0  0.08156  0.23786  0.71397  1.0000
  C   C1119     1.0  0.36642  0.30529  0.47861  1.0000
  H   H1770     1.0  0.99636  0.47239  0.48819  1.0000
  H   H1771     1.0  0.16664  0.27230  0.47248  1.0000
  H   H1772     1.0  0.13963  0.38712  0.72166  1.0000
  H   H1773     1.0  0.48371  0.40787  0.52777  1.0000
  C   C1120     1.0  0.03677  0.23899  0.71705  1.0000
  H   H1774     1.0  0.33146  0.27792  0.49561  1.0000
  H   H1775     1.0  0.99049  0.44313  0.48254  1.0000
  H   H1776     1.0  0.00372  0.36900  0.65557  1.0000
  H   H1777     1.0  0.32461  0.23207  0.62297  1.0000
  H   H1778     1.0  0.41601  0.47162  0.57711  1.0000
  H   H1779     1.0  0.40397  0.47745  0.56318  1.0000
  C   C1121     1.0  0.43370  0.47720  0.54814  1.0000
  S   S445      1.0  0.47171  0.47593  0.63335  1.0000
  H   H1780     1.0  0.09045  0.23025  0.70656  1.0000
  C   C1122     1.0  0.48076  0.28337  0.72008  1.0000
  H   H1781     1.0  0.17494  0.44040  0.72186  1.0000
  H   H1782     1.0  0.18526  0.47985  0.61833  1.0000
  H   H1783     1.0  0.31698  0.25719  0.84887  1.0000
  H   H1784     1.0  0.10987  0.23335  0.85234  1.0000
  H   H1785     1.0  0.17588  0.24627  0.80061  1.0000
  H   H1786     1.0  0.37241  0.40601  0.78495  1.0000
  C   C1123     1.0  0.05174  0.36492  0.74255  1.0000
  H   H1787     1.0  0.18622  0.29950  0.95307  1.0000
  C   C1124     1.0  0.48314  0.46189  0.81788  1.0000
  Fe  Fe223     1.0  0.24942  0.33913  0.89231  1.0000
  S   S446      1.0  0.22733  0.33372  0.90857  1.0000
  S   S447      1.0  0.24956  0.36482  0.88648  1.0000
  Fe  Fe224     1.0  0.26255  0.30518  0.89039  1.0000
  S   S448      1.0  0.24128  0.29709  0.90640  1.0000
  S   S449      1.0  0.28481  0.28975  0.87975  1.0000
  Fe  Fe225     1.0  0.22796  0.31863  0.89283  1.0000
  S   S450      1.0  0.20404  0.32240  0.88840  1.0000
  Fe  Fe226     1.0  0.24235  0.31292  0.92078  1.0000
  S   S451      1.0  0.23498  0.30676  0.94700  1.0000
  S   S452      1.0  0.24904  0.32558  0.87549  1.0000
  S   S453      1.0  0.26463  0.31948  0.90594  1.0000
  H   H1788     1.0  0.06536  0.32443  0.77932  1.0000
  C   C1125     1.0  0.99654  0.45337  0.88577  1.0000
  C   C1126     1.0  0.14431  0.46901  0.78593  1.0000
  C   C1127     1.0  0.30255  0.27423  0.82617  1.0000
  Fe  Fe227     1.0  0.13368  0.27539  0.85501  1.0000
  S   S454      1.0  0.15492  0.27858  0.83596  1.0000
  S   S455      1.0  0.12189  0.25558  0.85965  1.0000
  Fe  Fe228     1.0  0.13112  0.30504  0.86496  1.0000
  S   S456      1.0  0.15179  0.31120  0.84653  1.0000
  S   S457      1.0  0.11626  0.32038  0.88138  1.0000
  Fe  Fe229     1.0  0.14191  0.30358  0.83076  1.0000
  S   S458      1.0  0.14180  0.31762  0.80626  1.0000
  Fe  Fe230     1.0  0.16285  0.28576  0.85352  1.0000
  S   S459      1.0  0.18754  0.27736  0.85695  1.0000
  S   S460      1.0  0.12008  0.29981  0.84862  1.0000
  S   S461      1.0  0.14274  0.28011  0.87317  1.0000
  H   H1789     1.0  0.00174  0.35642  0.96600  1.0000
  S   S462      1.0  0.08614  0.28219  0.95822  1.0000
  S   S463      1.0  0.12782  0.28956  0.94893  1.0000
  H   H1790     1.0  0.00856  0.45045  0.87856  1.0000
  N   N115      1.0  0.09784  0.27180  0.91220  1.0000
  H   H1791     1.0  0.41577  0.45610  0.94624  1.0000
  C   C1128     1.0  0.16256  0.30225  0.93963  1.0000
  C   C1129     1.0  0.43767  0.42317  0.72795  1.0000
  H   H1792     1.0  0.47691  0.47899  0.73491  1.0000
  H   H1793     1.0  0.30990  0.45236  0.88949  1.0000
  H   H1794     1.0  0.24250  0.47956  0.78832  1.0000
  H   H1795     1.0  0.37291  0.31106  0.72524  1.0000
  H   H1796     1.0  0.37940  0.44410  0.76097  1.0000
  H   H1797     1.0  0.47034  0.40374  0.72530  1.0000
  S   S464      1.0  0.20885  0.46450  0.74263  1.0000
  H   H1798     1.0  0.39928  0.30959  0.74882  1.0000
  H   H1799     1.0  0.08688  0.31983  0.79311  1.0000
  H   H1800     1.0  0.17691  0.32513  0.93551  1.0000
  C   C1130     1.0  0.47801  0.45058  0.81416  1.0000
  C   C1131     1.0  0.29021  0.25390  0.84392  1.0000
  H   H1801     1.0  0.99824  0.43706  0.86450  1.0000
  H   H1802     1.0  0.08647  0.26326  0.93584  1.0000
  H   H1803     1.0  0.42293  0.46241  0.84644  1.0000
  H   H1804     1.0  0.09031  0.26854  0.89329  1.0000
  C   C1132     1.0  0.44793  0.47382  0.84380  1.0000
  S   S465      1.0  0.36864  0.37456  0.75228  1.0000
  H   H1805     1.0  0.38871  0.30945  0.78351  1.0000
  C   C1133     1.0  0.06598  0.36371  0.73164  1.0000
  C   C1134     1.0  0.37536  0.33440  0.75249  1.0000
  H   H1806     1.0  0.00059  0.39713  0.78319  1.0000
  C   C1135     1.0  0.09857  0.33295  0.75404  1.0000
  H   H1807     1.0  0.40667  0.40104  0.72894  1.0000
  C   C1136     1.0  0.14487  0.43346  0.75358  1.0000
  C   C1137     1.0  0.08091  0.34717  0.77300  1.0000
  S   S466      1.0  0.41429  0.23833  0.74383  1.0000
  Fe  Fe231     1.0  0.45928  0.45583  0.76869  1.0000
  S   S467      1.0  0.45363  0.43239  0.78020  1.0000
  H   H1808     1.0  0.07236  0.34668  0.78441  1.0000
  H   H1809     1.0  0.05572  0.24352  0.73657  1.0000
  S   S468      1.0  0.47138  0.42225  0.74642  1.0000
  C   C1138     1.0  0.47003  0.45475  0.80207  1.0000
  Fe  Fe232     1.0  0.44734  0.43379  0.75774  1.0000
  S   S469      1.0  0.42580  0.42603  0.75845  1.0000
  H   H1810     1.0  0.10858  0.25596  0.89666  1.0000
  H   H1811     1.0  0.36433  0.34088  0.75893  1.0000
  S   S470      1.0  0.45061  0.45833  0.74736  1.0000
  C   C1139     1.0  0.31689  0.45789  0.87884  1.0000
  Fe  Fe233     1.0  0.08860  0.41092  0.75751  1.0000
  S   S471      1.0  0.07162  0.41126  0.78069  1.0000
  S   S472      1.0  0.10721  0.42486  0.74520  1.0000
  C   C1140     1.0  0.32466  0.46345  0.85057  1.0000
  S   S473      1.0  0.05690  0.38618  0.77195  1.0000
  Fe  Fe234     1.0  0.05363  0.41218  0.76781  1.0000
  S   S474      1.0  0.02925  0.42743  0.76952  1.0000
  Fe  Fe235     1.0  0.07629  0.38524  0.78289  1.0000
  S   S475      1.0  0.07794  0.36657  0.80469  1.0000
  H   H1812     1.0  0.12008  0.25861  0.91716  1.0000
  S   S476      1.0  0.09474  0.38483  0.76087  1.0000
  H   H1813     1.0  0.09852  0.23594  0.73438  1.0000
  Fe  Fe236     1.0  0.28285  0.44177  0.81867  1.0000
  S   S477      1.0  0.29139  0.43396  0.84105  1.0000
  H   H1814     1.0  0.27056  0.27518  0.96865  1.0000
  Fe  Fe237     1.0  0.31542  0.43363  0.79868  1.0000
  S   S478      1.0  0.32674  0.42463  0.81909  1.0000
  S   S479      1.0  0.32881  0.43667  0.77380  1.0000
  Fe  Fe238     1.0  0.30614  0.41345  0.83074  1.0000
  S   S480      1.0  0.30949  0.38789  0.84257  1.0000
  Fe  Fe239     1.0  0.31130  0.44584  0.82765  1.0000
  H   H1815     1.0  0.07853  0.31370  0.76528  1.0000
  S   S481      1.0  0.29634  0.42050  0.80932  1.0000
  C   C1141     1.0  0.38769  0.45886  0.94049  1.0000
  H   H1816     1.0  0.48612  0.37102  0.74096  1.0000
  Fe  Fe240     1.0  0.39668  0.25416  0.73031  1.0000
  C   C1142     1.0  0.00947  0.34611  0.97111  1.0000
  H   H1817     1.0  0.99554  0.44392  0.89653  1.0000
  Fe  Fe241     1.0  0.20987  0.44349  0.76248  1.0000
  S   S482      1.0  0.23280  0.43170  0.76977  1.0000
  Fe  Fe242     1.0  0.19663  0.45190  0.73352  1.0000
  H   H1818     1.0  0.11792  0.47377  0.76429  1.0000
  S   S483      1.0  0.19927  0.43017  0.75233  1.0000
  C   C1143     1.0  0.17930  0.23344  0.80525  1.0000
  S   S484      1.0  0.32318  0.46244  0.83209  1.0000
  H   H1819     1.0  0.32914  0.25273  0.83084  1.0000
  H   H1820     1.0  0.13496  0.43690  0.73380  1.0000
  C   C1144     1.0  0.39029  0.33894  0.76808  1.0000
  C   C1145     1.0  0.30694  0.24941  0.81927  1.0000
  H   H1821     1.0  0.17458  0.32496  0.91668  1.0000
  C   C1146     1.0  0.40977  0.28868  0.72323  1.0000
  C   C1147     1.0  0.25050  0.44705  0.80397  1.0000
  H   H1822     1.0  0.18718  0.23162  0.81322  1.0000
  C   C1148     1.0  0.22884  0.44678  0.79344  1.0000
  C   C1149     1.0  0.23927  0.43862  0.78245  1.0000
  C   C1150     1.0  0.25531  0.43500  0.78207  1.0000
  C   C1151     1.0  0.26092  0.43941  0.79261  1.0000
  C   C1152     1.0  0.31809  0.25114  0.83952  1.0000
  H   H1823     1.0  0.26344  0.42880  0.77351  1.0000
  H   H1824     1.0  0.27332  0.43683  0.79191  1.0000
  C   C1153     1.0  0.11186  0.23974  0.82744  1.0000
  H   H1825     1.0  0.98855  0.41898  0.81460  1.0000
  C   C1154     1.0  0.40141  0.31889  0.75316  1.0000
  S   S485      1.0  0.07024  0.41387  0.74434  1.0000
  N   N116      1.0  0.39334  0.47099  0.94384  1.0000
  C   C1155     1.0  0.31595  0.45604  0.86440  1.0000
  Fe  Fe243     1.0  0.17617  0.44196  0.76520  1.0000
  H   H1826     1.0  0.43262  0.46545  0.88809  1.0000
  H   H1827     1.0  0.09037  0.35219  0.77377  1.0000
  H   H1828     1.0  0.30832  0.44908  0.86395  1.0000
  H   H1829     1.0  0.11059  0.27379  0.92781  1.0000
  C   C1156     1.0  0.12111  0.42553  0.75485  1.0000
  C   C1157     1.0  0.11965  0.41968  0.77089  1.0000
  C   C1158     1.0  0.13067  0.42094  0.77828  1.0000
  C   C1159     1.0  0.14327  0.42789  0.76967  1.0000
  C   C1160     1.0  0.13377  0.43237  0.74622  1.0000
  H   H1830     1.0  0.10991  0.41440  0.77762  1.0000
  H   H1831     1.0  0.12937  0.41662  0.79074  1.0000
  C   C1161     1.0  0.01951  0.43434  0.78663  1.0000
  S   S486      1.0  0.38262  0.27794  0.73354  1.0000
  C   C1162     1.0  0.02551  0.42900  0.80009  1.0000
  H   H1832     1.0  0.02150  0.42974  0.82428  1.0000
  H   H1833     1.0  0.03671  0.42088  0.79996  1.0000
  H   H1834     1.0  0.08590  0.29139  0.92294  1.0000
  S   S487      1.0  0.08025  0.37345  0.73146  1.0000
  H   H1835     1.0  0.27000  0.29567  0.96431  1.0000
  H   H1836     1.0  0.11362  0.47316  0.79873  1.0000
  H   H1837     1.0  0.27979  0.25765  0.83868  1.0000
  H   H1838     1.0  0.07491  0.35553  0.76397  1.0000
  H   H1839     1.0  0.10525  0.40434  0.72699  1.0000
  H   H1840     1.0  0.00725  0.40530  0.79521  1.0000
  H   H1841     1.0  0.25391  0.37005  0.91539  1.0000
  C   C1163     1.0  0.99751  0.40676  0.78948  1.0000
  H   H1842     1.0  0.10763  0.27619  0.88750  1.0000
  C   C1164     1.0  0.32666  0.46700  0.87957  1.0000
  N   N117      1.0  0.38686  0.32688  0.76239  1.0000
  H   H1843     1.0  0.11960  0.27870  0.90753  1.0000
  C   C1165     1.0  0.09505  0.32088  0.78147  1.0000
  H   H1844     1.0  0.39884  0.33376  0.77569  1.0000
  C   C1166     1.0  0.42634  0.42002  0.74161  1.0000
  C   C1167     1.0  0.41520  0.41203  0.74190  1.0000
  H   H1845     1.0  0.28754  0.26023  0.85345  1.0000
  H   H1846     1.0  0.39528  0.43586  0.78037  1.0000
  C   C1168     1.0  0.12770  0.46762  0.77026  1.0000
  H   H1847     1.0  0.35170  0.44593  0.78993  1.0000
  H   H1848     1.0  0.40649  0.40947  0.75243  1.0000
  H   H1849     1.0  0.99731  0.41794  0.78055  1.0000
  H   H1850     1.0  0.35386  0.41866  0.79043  1.0000
  S   S488      1.0  0.32620  0.47045  0.89777  1.0000
  C   C1169     1.0  0.35709  0.39183  0.75797  1.0000
  C   C1170     1.0  0.34753  0.39101  0.77300  1.0000
  C   C1171     1.0  0.33841  0.40471  0.77783  1.0000
  C   C1172     1.0  0.33889  0.41926  0.76764  1.0000
  C   C1173     1.0  0.34836  0.42007  0.75261  1.0000
  C   C1174     1.0  0.35747  0.40639  0.74780  1.0000
  H   H1851     1.0  0.34719  0.37977  0.78091  1.0000
  H   H1852     1.0  0.33116  0.40402  0.78948  1.0000
  H   H1853     1.0  0.34876  0.43131  0.74470  1.0000
  H   H1854     1.0  0.36482  0.40715  0.73625  1.0000
  H   H1855     1.0  0.15460  0.30879  0.93158  1.0000
  H   H1856     1.0  0.13191  0.40536  0.72772  1.0000
  H   H1857     1.0  0.19588  0.29437  0.91232  1.0000
  S   S489      1.0  0.38339  0.23596  0.73311  1.0000
  C   C1175     1.0  0.27325  0.24784  0.88828  1.0000
  C   C1176     1.0  0.23444  0.45084  0.80428  1.0000
  C   C1177     1.0  0.11657  0.25020  0.81357  1.0000
  N   N118      1.0  0.17908  0.30226  0.93183  1.0000
  S   S490      1.0  0.45556  0.47590  0.77986  1.0000
  H   H1858     1.0  0.31953  0.23840  0.84475  1.0000
  C   C1178     1.0  0.48064  0.47727  0.80921  1.0000
  H   H1859     1.0  0.39688  0.41594  0.78018  1.0000
  H   H1860     1.0  0.06514  0.23471  0.75262  1.0000
  N   N119      1.0  0.37333  0.42964  0.78377  1.0000
  H   H1861     1.0  0.39129  0.45871  0.92784  1.0000
  H   H1862     1.0  0.37469  0.46099  0.94375  1.0000
  H   H1863     1.0  0.21644  0.44956  0.79386  1.0000
  C   C1179     1.0  0.12007  0.31290  0.90005  1.0000
  C   C1180     1.0  0.10816  0.31578  0.91304  1.0000
  C   C1181     1.0  0.11057  0.30869  0.92809  1.0000
  C   C1182     1.0  0.12502  0.29902  0.93017  1.0000
  C   C1183     1.0  0.13712  0.29653  0.91717  1.0000
  C   C1184     1.0  0.13462  0.30342  0.90210  1.0000
  H   H1864     1.0  0.09691  0.32315  0.91150  1.0000
  H   H1865     1.0  0.10122  0.31074  0.93809  1.0000
  H   H1866     1.0  0.14827  0.28895  0.91873  1.0000
  H   H1867     1.0  0.14392  0.30134  0.89209  1.0000
  C   C1185     1.0  0.12383  0.33037  0.80415  1.0000
  C   C1186     1.0  0.12358  0.34520  0.79428  1.0000
  C   C1187     1.0  0.10943  0.35629  0.79404  1.0000
  C   C1188     1.0  0.09551  0.35250  0.80358  1.0000
  C   C1189     1.0  0.09567  0.33743  0.81284  1.0000
  C   C1190     1.0  0.10981  0.32635  0.81306  1.0000
  H   H1868     1.0  0.13443  0.34834  0.78736  1.0000
  H   H1869     1.0  0.10942  0.36797  0.78703  1.0000
  H   H1870     1.0  0.08489  0.33442  0.82013  1.0000
  H   H1871     1.0  0.10988  0.31477  0.82034  1.0000
  C   C1191     1.0  0.20004  0.30972  0.87945  1.0000
  C   C1192     1.0  0.21148  0.29717  0.87458  1.0000
  C   C1193     1.0  0.20762  0.28715  0.86772  1.0000
  C   C1194     1.0  0.19232  0.28962  0.86586  1.0000
  C   C1195     1.0  0.18088  0.30196  0.87111  1.0000
  C   C1196     1.0  0.18476  0.31206  0.87773  1.0000
  H   H1872     1.0  0.22329  0.29526  0.87597  1.0000
  H   H1873     1.0  0.21649  0.27756  0.86374  1.0000
  H   H1874     1.0  0.16901  0.30374  0.87009  1.0000
  H   H1875     1.0  0.17585  0.32167  0.88161  1.0000
  C   C1197     1.0  0.24130  0.31644  0.95738  1.0000
  C   C1198     1.0  0.38788  0.47114  0.96062  1.0000
  C   C1199     1.0  0.00214  0.44420  0.81422  1.0000
  Fe  Fe244     1.0  0.47519  0.44673  0.73787  1.0000
  C   C1200     1.0  0.25869  0.33142  0.95903  1.0000
  C   C1201     1.0  0.25361  0.32412  0.95033  1.0000
  H   H1876     1.0  0.25101  0.38110  0.84663  1.0000
  C   C1202     1.0  0.08915  0.26072  0.92406  1.0000
  H   H1877     1.0  0.26835  0.33719  0.95363  1.0000
  H   H1878     1.0  0.25937  0.32421  0.93828  1.0000
  C   C1203     1.0  0.26668  0.37080  0.87504  1.0000
  C   C1204     1.0  0.26695  0.38670  0.87149  1.0000
  C   C1205     1.0  0.28021  0.39198  0.86188  1.0000
  C   C1206     1.0  0.29321  0.38140  0.85564  1.0000
  C   C1207     1.0  0.29306  0.36544  0.85947  1.0000
  C   C1208     1.0  0.27979  0.36014  0.86913  1.0000
  H   H1879     1.0  0.25686  0.39498  0.87612  1.0000
  H   H1880     1.0  0.28034  0.40426  0.85919  1.0000
  H   H1881     1.0  0.30315  0.35720  0.85476  1.0000
  H   H1882     1.0  0.27967  0.34784  0.87187  1.0000
  H   H1883     1.0  0.36933  0.32107  0.78292  1.0000
  H   H1884     1.0  0.13798  0.46341  0.76134  1.0000
  C   C1209     1.0  0.30138  0.24371  0.87985  1.0000
  C   C1210     1.0  0.27218  0.26373  0.88731  1.0000
  C   C1211     1.0  0.28572  0.26967  0.88251  1.0000
  H   H1885     1.0  0.18786  0.28149  0.94772  1.0000
  S   S491      1.0  0.48417  0.44620  0.75837  1.0000
  H   H1886     1.0  0.17609  0.30047  0.90999  1.0000
  H   H1887     1.0  0.26088  0.27144  0.88994  1.0000
  H   H1888     1.0  0.31775  0.25140  0.81034  1.0000
  Fe  Fe245     1.0  0.10438  0.28902  0.96529  1.0000
  H   H1889     1.0  0.26999  0.47924  0.80276  1.0000
  H   H1890     1.0  0.99793  0.46487  0.85494  1.0000
  H   H1891     1.0  0.04912  0.37222  0.75081  1.0000
  H   H1892     1.0  0.45144  0.46201  0.84108  1.0000
  H   H1893     1.0  0.29152  0.24120  0.84941  1.0000
  N   N120      1.0  0.30444  0.25717  0.83222  1.0000
  H   H1894     1.0  0.36895  0.45332  0.78631  1.0000
  H   H1895     1.0  0.00032  0.44909  0.77651  1.0000
  H   H1896     1.0  0.45753  0.47997  0.83731  1.0000
  H   H1897     1.0  0.47791  0.29225  0.72725  1.0000
  H   H1898     1.0  0.07782  0.26128  0.92138  1.0000
  S   S492      1.0  0.02954  0.33774  0.73204  1.0000
  C   C1212     1.0  0.33563  0.47412  0.86574  1.0000
  H   H1899     1.0  0.37893  0.23090  0.76857  1.0000
  H   H1900     1.0  0.10372  0.32138  0.75085  1.0000
  H   H1901     1.0  0.41048  0.31329  0.76014  1.0000
  H   H1902     1.0  0.19359  0.31895  0.92095  1.0000
  S   S493      1.0  0.35728  0.47538  0.91714  1.0000
  C   C1213     1.0  0.30031  0.25958  0.87898  1.0000
  H   H1903     1.0  0.39523  0.34780  0.75820  1.0000
  C   C1214     1.0  0.18352  0.29442  0.91862  1.0000
  C   C1215     1.0  0.12143  0.26324  0.81412  1.0000
  C   C1216     1.0  0.12239  0.26533  0.82839  1.0000
  C   C1217     1.0  0.11857  0.25434  0.84214  1.0000
  Fe  Fe246     1.0  0.47798  0.42289  0.76800  1.0000
  H   H1904     1.0  0.31267  0.23603  0.87704  1.0000
  H   H1905     1.0  0.12491  0.27147  0.80346  1.0000
  H   H1906     1.0  0.12647  0.27525  0.82866  1.0000
  H   H1907     1.0  0.09981  0.30893  0.77912  1.0000
  C   C1218     1.0  0.08834  0.28792  0.91160  1.0000
  C   C1219     1.0  0.15665  0.23434  0.82655  1.0000
  H   H1908     1.0  0.47018  0.25980  0.74228  1.0000
  C   C1220     1.0  0.46691  0.47029  0.79387  1.0000
  S   S494      1.0  0.18701  0.45325  0.77723  1.0000
  H   H1909     1.0  0.20173  0.29353  0.93742  1.0000
  C   C1221     1.0  0.37337  0.43430  0.76696  1.0000
  H   H1910     1.0  0.03302  0.23660  0.72962  1.0000
  H   H1911     1.0  0.41920  0.47280  0.86157  1.0000
  S   S495      1.0  0.17268  0.46273  0.74552  1.0000
  C   C1222     1.0  0.06715  0.24032  0.73999  1.0000
  N   N121      1.0  0.11708  0.35663  0.84151  1.0000
  C   C1223     1.0  0.11304  0.34240  0.84064  1.0000
  C   C1224     1.0  0.10500  0.36397  0.85347  1.0000
  C   C1225     1.0  0.11785  0.36761  0.82615  1.0000
  C   C1226     1.0  0.13242  0.35242  0.84576  1.0000
  H   H1912     1.0  0.12234  0.33607  0.83239  1.0000
  H   H1913     1.0  0.10184  0.34520  0.83686  1.0000
  H   H1914     1.0  0.11158  0.33412  0.85211  1.0000
  H   H1915     1.0  0.10761  0.37481  0.85446  1.0000
  H   H1916     1.0  0.09325  0.36711  0.85069  1.0000
  H   H1917     1.0  0.10421  0.35586  0.86517  1.0000
  H   H1918     1.0  0.12094  0.37853  0.82625  1.0000
  H   H1919     1.0  0.10645  0.37095  0.82257  1.0000
  H   H1920     1.0  0.12677  0.36226  0.81689  1.0000
  H   H1921     1.0  0.13579  0.36284  0.84675  1.0000
  H   H1922     1.0  0.14183  0.34694  0.83690  1.0000
  H   H1923     1.0  0.13229  0.34386  0.85717  1.0000
  Fe  Fe247     1.0  0.06931  0.30113  0.96959  1.0000
  H   H1924     1.0  0.37950  0.34546  0.77482  1.0000
  H   H1925     1.0  0.05245  0.25612  0.94616  1.0000
  H   H1926     1.0  0.26272  0.24337  0.89179  1.0000
  H   H1927     1.0  0.43777  0.47262  0.81964  1.0000
  H   H1928     1.0  0.16384  0.23250  0.83516  1.0000
  H   H1929     1.0  0.18221  0.28209  0.92253  1.0000
  S   S496      1.0  0.30123  0.45554  0.80630  1.0000
  C   C1227     1.0  0.38035  0.31537  0.77577  1.0000
  S   S497      1.0  0.25730  0.45176  0.81795  1.0000
  C   C1228     1.0  0.39344  0.29248  0.72630  1.0000
  H   H1930     1.0  0.06814  0.33331  0.75890  1.0000
  H   H1931     1.0  0.37240  0.32572  0.74798  1.0000
  C   C1229     1.0  0.38956  0.42575  0.78580  1.0000
  H   H1932     1.0  0.06297  0.26176  0.96573  1.0000
  C   C1230     1.0  0.02363  0.33962  0.96186  1.0000
  H   H1933     1.0  0.22630  0.45682  0.81300  1.0000
  H   H1934     1.0  0.36351  0.43955  0.80412  1.0000
  Fe  Fe248     1.0  0.18508  0.47330  0.75658  1.0000
  C   C1231     1.0  0.07424  0.32547  0.76814  1.0000
  H   H1935     1.0  0.02966  0.35788  0.75103  1.0000
  H   H1936     1.0  0.36127  0.43820  0.76499  1.0000
  C   C1232     1.0  0.06562  0.24996  0.96402  1.0000
  C   C1233     1.0  0.01688  0.43401  0.81385  1.0000
  S   S498      1.0  0.15623  0.43033  0.77944  1.0000
  H   H1937     1.0  0.09444  0.29655  0.90254  1.0000
  H   H1938     1.0  0.37764  0.30614  0.77179  1.0000
  H   H1939     1.0  0.99530  0.46440  0.88939  1.0000
  H   H1940     1.0  0.36679  0.41154  0.80350  1.0000
  H   H1941     1.0  0.15457  0.43875  0.74684  1.0000
  Fe  Fe249     1.0  0.07499  0.38773  0.74963  1.0000
  C   C1234     1.0  0.36635  0.41582  0.79097  1.0000
  H   H1942     1.0  0.30061  0.28040  0.83572  1.0000
  N   N122      1.0  0.08720  0.33159  0.76917  1.0000
  H   H1943     1.0  0.47824  0.27062  0.75062  1.0000
  H   H1944     1.0  0.29697  0.25369  0.81336  1.0000
  H   H1945     1.0  0.02675  0.34492  0.94960  1.0000
  H   H1946     1.0  0.39005  0.42226  0.79832  1.0000
  C   C1235     1.0  0.04375  0.34756  0.73174  1.0000
  H   H1947     1.0  0.14120  0.45861  0.79489  1.0000
  H   H1948     1.0  0.31082  0.26410  0.87546  1.0000
  H   H1949     1.0  0.44776  0.23332  0.74414  1.0000
  H   H1950     1.0  0.31312  0.27710  0.81736  1.0000
  H   H1951     1.0  0.46581  0.44603  0.79946  1.0000
  H   H1952     1.0  0.40644  0.32724  0.74278  1.0000
  H   H1953     1.0  0.37941  0.42443  0.76101  1.0000
  N   N123      1.0  0.25892  0.39561  0.82434  1.0000
  C   C1236     1.0  0.24325  0.40144  0.82072  1.0000
  C   C1237     1.0  0.25967  0.38027  0.83540  1.0000
  C   C1238     1.0  0.26197  0.40683  0.83142  1.0000
  C   C1239     1.0  0.27088  0.39395  0.80983  1.0000
  H   H1954     1.0  0.24236  0.41301  0.81238  1.0000
  H   H1955     1.0  0.23397  0.40293  0.83140  1.0000
  H   H1956     1.0  0.24054  0.39329  0.81531  1.0000
  H   H1957     1.0  0.27141  0.37557  0.83826  1.0000
  H   H1958     1.0  0.25731  0.37147  0.83057  1.0000
  H   H1959     1.0  0.27400  0.40320  0.83352  1.0000
  H   H1960     1.0  0.25365  0.40794  0.84275  1.0000
  H   H1961     1.0  0.26093  0.41866  0.82369  1.0000
  H   H1962     1.0  0.28286  0.38961  0.81216  1.0000
  H   H1963     1.0  0.27071  0.40536  0.80129  1.0000
  H   H1964     1.0  0.26892  0.38562  0.80410  1.0000
  N   N124      1.0  0.23182  0.36905  0.93163  1.0000
  C   C1240     1.0  0.22305  0.37548  0.91910  1.0000
  C   C1241     1.0  0.24807  0.36166  0.92506  1.0000
  C   C1242     1.0  0.22427  0.35728  0.94378  1.0000
  C   C1243     1.0  0.23194  0.38181  0.93858  1.0000
  H   H1965     1.0  0.21077  0.38131  0.92352  1.0000
  H   H1966     1.0  0.22271  0.36611  0.91366  1.0000
  H   H1967     1.0  0.22861  0.38416  0.90956  1.0000
  H   H1968     1.0  0.25524  0.35725  0.93401  1.0000
  H   H1969     1.0  0.24850  0.35162  0.92017  1.0000
  C   C1244     1.0  0.42952  0.47800  0.88690  1.0000
  H   H1970     1.0  0.23019  0.35267  0.95374  1.0000
  H   H1971     1.0  0.22460  0.34712  0.93911  1.0000
  H   H1972     1.0  0.21181  0.36230  0.94856  1.0000
  H   H1973     1.0  0.23849  0.37732  0.94810  1.0000
  H   H1974     1.0  0.21987  0.38768  0.94365  1.0000
  H   H1975     1.0  0.23762  0.39086  0.92971  1.0000
  C   C1245     1.0  0.10122  0.26796  0.89677  1.0000
  S   S499      1.0  0.11767  0.24653  0.79541  1.0000
  S   S500      1.0  0.39929  0.47494  0.89449  1.0000
  C   C1246     1.0  0.18915  0.29380  0.94302  1.0000
  H   H1976     1.0  0.09592  0.24842  0.92486  1.0000
  H   H1977     1.0  0.46730  0.38549  0.72439  1.0000
  C   C1247     1.0  0.11297  0.24174  0.84170  1.0000
  H   H1978     1.0  0.09296  0.34081  0.74447  1.0000
  C   C1248     1.0  0.00496  0.44483  0.78693  1.0000
  Fe  Fe250     1.0  0.38259  0.37742  0.72746  1.0000
  H   H1979     1.0  0.37999  0.34307  0.74230  1.0000
  C   C1249     1.0  0.04069  0.35682  0.74263  1.0000
  H   H1980     1.0  0.16051  0.29016  0.94386  1.0000
  H   H1981     1.0  0.29768  0.29039  0.96520  1.0000
  H   H1982     1.0  0.30844  0.23651  0.82348  1.0000
  H   H1983     1.0  0.10831  0.33789  0.75428  1.0000
  H   H1984     1.0  0.15481  0.46455  0.77746  1.0000
  C   C1250     1.0  0.05963  0.24676  0.95300  1.0000
  H   H1985     1.0  0.29235  0.27920  0.82059  1.0000
  H   H1986     1.0  0.99067  0.33183  0.73341  1.0000
  H   H1987     1.0  0.10498  0.32515  0.78240  1.0000
  C   C1251     1.0  0.48124  0.26226  0.74288  1.0000
  H   H1988     1.0  0.34132  0.47818  0.84066  1.0000
  C   C1252     1.0  0.18108  0.31855  0.92603  1.0000
  C   C1253     1.0  0.33451  0.47246  0.85132  1.0000
  C   C1254     1.0  0.36401  0.44269  0.79136  1.0000
  C   C1255     1.0  0.11268  0.27065  0.91636  1.0000
  S   S501      1.0  0.99100  0.44948  0.83180  1.0000
  H   H1989     1.0  0.47980  0.43869  0.82090  1.0000
  C   C1256     1.0  0.03385  0.32643  0.96846  1.0000
  H   H1990     1.0  0.15875  0.30778  0.94987  1.0000
  C   C1257     1.0  0.38553  0.30810  0.72313  1.0000
  H   H1991     1.0  0.07689  0.28917  0.90885  1.0000
  H   H1992     1.0  0.35696  0.23951  0.78956  1.0000
  C   C1258     1.0  0.41060  0.46766  0.93952  1.0000
  H   H1993     1.0  0.44734  0.47222  0.85642  1.0000
  H   H1994     1.0  0.14779  0.47641  0.79163  1.0000
  H   H1995     1.0  0.29865  0.26974  0.96942  1.0000
  H   H1996     1.0  0.37488  0.47350  0.96417  1.0000
  C   C1259     1.0  0.28782  0.23785  0.88434  1.0000
  H   H1997     1.0  0.12440  0.45701  0.77869  1.0000
  C   C1260     1.0  0.99630  0.44975  0.80068  1.0000
  S   S502      1.0  0.05182  0.31886  0.95683  1.0000
  H   H1998     1.0  0.07077  0.25142  0.73846  1.0000
  H   H1999     1.0  0.15125  0.24221  0.79764  1.0000
  C   C1261     1.0  0.41538  0.40714  0.72861  1.0000
  H   H2000     1.0  0.99244  0.38999  0.81900  1.0000
  H   H2001     1.0  0.27138  0.47084  0.78680  1.0000
  H   H2002     1.0  0.41497  0.46752  0.92688  1.0000
  H   H2003     1.0  0.15275  0.24720  0.82247  1.0000
  H   H2004     1.0  0.39233  0.44699  0.94704  1.0000
  H   H2005     1.0  0.39247  0.45974  0.96799  1.0000
  C   C1262     1.0  0.42045  0.47428  0.84882  1.0000
  H   H2006     1.0  0.44613  0.42956  0.72758  1.0000
  S   S503      1.0  0.40856  0.36892  0.72386  1.0000
  H   H2007     1.0  0.41521  0.47671  0.94176  1.0000
  C   C1263     1.0  0.06256  0.23142  0.95113  1.0000
  H   H2008     1.0  0.41594  0.27657  0.72551  1.0000
  N   N125      1.0  0.13139  0.47785  0.77808  1.0000
  H   H2009     1.0  0.10731  0.23015  0.82719  1.0000
  H   H2010     1.0  0.04161  0.67394  0.21284  1.0000
  S   S504      1.0  0.47159  0.58072  0.18207  1.0000
  S   S505      1.0  0.46063  0.62207  0.15352  1.0000
  C   C1264     1.0  0.08399  0.67543  0.18989  1.0000
  C   C1265     1.0  0.35393  0.55112  0.00883  1.0000
  S   S506      1.0  0.07227  0.61255  0.13304  1.0000
  H   H2011     1.0  0.34152  0.53037  0.00310  1.0000
  S   S507      1.0  0.45099  0.53261  0.13984  1.0000
  H   H2012     1.0  0.09277  0.58083  0.14476  1.0000
  H   H2013     1.0  0.15490  0.57605  0.18909  1.0000
  Fe  Fe251     1.0  0.10199  0.62776  0.16227  1.0000
  S   S508      1.0  0.12186  0.63994  0.15265  1.0000
  S   S509      1.0  0.10163  0.60476  0.15840  1.0000
  H   H2014     1.0  0.13057  0.64132  0.11290  1.0000
  Fe  Fe252     1.0  0.00528  0.54941  0.10373  1.0000
  S   S510      1.0  0.37408  0.48176  0.03584  1.0000
  Fe  Fe253     1.0  0.01496  0.57136  0.11795  1.0000
  S   S511      1.0  0.00664  0.59260  0.10053  1.0000
  S   S512      1.0  0.02286  0.57288  0.13883  1.0000
  H   H2015     1.0  0.10991  0.67405  0.15441  1.0000
  H   H2016     1.0  0.18370  0.62904  0.18795  1.0000
  Fe  Fe254     1.0  0.01771  0.57767  0.08296  1.0000
  S   S513      1.0  0.03327  0.58666  0.06015  1.0000
  H   H2017     1.0  0.44316  0.58089  0.11870  1.0000
  S   S514      1.0  0.02779  0.55692  0.10009  1.0000
  Fe  Fe255     1.0  0.31945  0.61164  0.12186  1.0000
  S   S515      1.0  0.29546  0.62709  0.12390  1.0000
  S   S516      1.0  0.34065  0.61634  0.12613  1.0000
  Fe  Fe256     1.0  0.30897  0.58477  0.11707  1.0000
  S   S517      1.0  0.28387  0.59786  0.11902  1.0000
  S   S518      1.0  0.31854  0.55958  0.11503  1.0000
  Fe  Fe257     1.0  0.29432  0.61809  0.10394  1.0000
  S   S519      1.0  0.28313  0.63378  0.08447  1.0000
  Fe  Fe258     1.0  0.28708  0.60575  0.13883  1.0000
  S   S520      1.0  0.27066  0.60965  0.16160  1.0000
  S   S521      1.0  0.31919  0.60441  0.10043  1.0000
  S   S522      1.0  0.31120  0.59088  0.13833  1.0000
  C   C1266     1.0  0.40859  0.62824  0.17562  1.0000
  C   C1267     1.0  0.19425  0.72410  0.02626  1.0000
  S   S523      1.0  0.34040  0.50554  0.03119  1.0000
  Fe  Fe259     1.0  0.46710  0.49201  0.10775  1.0000
  Fe  Fe260     1.0  0.37416  0.49530  0.05285  1.0000
  C   C1268     1.0  0.48282  0.49213  0.15346  1.0000
  Fe  Fe261     1.0  0.34356  0.51779  0.04789  1.0000
  S   S524      1.0  0.32761  0.54118  0.05074  1.0000
  S   S525      1.0  0.34924  0.49558  0.06556  1.0000
  C   C1269     1.0  0.05018  0.50169  0.10995  1.0000
  H   H2018     1.0  0.09939  0.53761  0.15131  1.0000
  S   S526      1.0  0.17956  0.50285  0.18906  1.0000
  C   C1270     1.0  0.37038  0.53732  0.08361  1.0000
  S   S527      1.0  0.36859  0.51844  0.03649  1.0000
  H   H2019     1.0  0.40440  0.68389  0.18908  1.0000
  H   H2020     1.0  0.35643  0.54611  0.98069  1.0000
  H   H2021     1.0  0.20395  0.62336  0.14132  1.0000
  H   H2022     1.0  0.18181  0.57137  0.16105  1.0000
  H   H2023     1.0  0.18693  0.54120  0.19730  1.0000
  Fe  Fe262     1.0  0.15210  0.53761  0.14845  1.0000
  S   S528      1.0  0.17607  0.52211  0.14748  1.0000
  S   S529      1.0  0.14481  0.56413  0.14378  1.0000
  H   H2024     1.0  0.16950  0.61978  0.17413  1.0000
  S   S530      1.0  0.99324  0.56211  0.12321  1.0000
  C   C1271     1.0  0.07076  0.69507  0.97517  1.0000
  H   H2025     1.0  0.05920  0.59298  0.00554  1.0000
  S   S531      1.0  0.14454  0.52340  0.13667  1.0000
  S   S532      1.0  0.14190  0.52521  0.17249  1.0000
  Fe  Fe263     1.0  0.19379  0.58639  0.20751  1.0000
  H   H2026     1.0  0.11894  0.60176  0.10625  1.0000
  S   S533      1.0  0.21099  0.58010  0.18596  1.0000
  H   H2027     1.0  0.10142  0.56433  0.13580  1.0000
  H   H2028     1.0  0.01615  0.57774  0.02003  1.0000
  H   H2029     1.0  0.04717  0.56856  0.99712  1.0000
  S   S534      1.0  0.35009  0.69772  0.17020  1.0000
  C   C1272     1.0  0.41381  0.63736  0.16101  1.0000
  H   H2030     1.0  0.10880  0.56806  0.16465  1.0000
  H   H2031     1.0  0.44608  0.68095  0.16856  1.0000
  H   H2032     1.0  0.01958  0.66259  0.19648  1.0000
  S   S535      1.0  0.16927  0.59208  0.20440  1.0000
  H   H2033     1.0  0.48373  0.53202  0.12517  1.0000
  C   C1273     1.0  0.34775  0.55680  0.98363  1.0000
  C   C1274     1.0  0.46215  0.54325  0.15866  1.0000
  S   S536      1.0  0.02288  0.67894  0.97837  1.0000
  H   H2034     1.0  0.03704  0.48135  0.13467  1.0000
  H   H2035     1.0  0.23460  0.67443  0.09545  1.0000
  C   C1275     1.0  0.18380  0.56577  0.17296  1.0000
  H   H2036     1.0  0.02455  0.58109  0.03398  1.0000
  S   S537      1.0  0.29421  0.70209  0.06948  1.0000
  H   H2037     1.0  0.19189  0.65138  0.15530  1.0000
  C   C1276     1.0  0.99853  0.49855  0.10252  1.0000
  Fe  Fe264     1.0  0.19588  0.66113  0.09147  1.0000
  S   S538      1.0  0.17348  0.67862  0.09693  1.0000
  S   S539      1.0  0.21843  0.66480  0.07491  1.0000
  Fe  Fe265     1.0  0.18396  0.63411  0.11523  1.0000
  S   S540      1.0  0.16050  0.64914  0.12299  1.0000
  S   S541      1.0  0.19292  0.60834  0.12409  1.0000
  Fe  Fe266     1.0  0.16209  0.65967  0.09746  1.0000
  S   S542      1.0  0.14175  0.66590  0.08603  1.0000
  Fe  Fe267     1.0  0.17383  0.66694  0.12176  1.0000
  S   S543      1.0  0.16740  0.68150  0.13976  1.0000
  S   S544      1.0  0.18447  0.64311  0.08977  1.0000
  S   S545      1.0  0.19726  0.65094  0.11631  1.0000
  S   S546      1.0  0.09553  0.57577  0.19772  1.0000
  C   C1277     1.0  0.12382  0.67691  0.12405  1.0000
  H   H2038     1.0  0.41021  0.65513  0.18976  1.0000
  H   H2039     1.0  0.09192  0.49015  0.15798  1.0000
  S   S547      1.0  0.13578  0.70371  0.99362  1.0000
  S   S548      1.0  0.09081  0.70707  0.00957  1.0000
  H   H2040     1.0  0.99307  0.68957  0.22100  1.0000
  C   C1278     1.0  0.38276  0.72117  0.19766  1.0000
  H   H2041     1.0  0.19777  0.48391  0.21114  1.0000
  C   C1279     1.0  0.08657  0.70958  0.98042  1.0000
  C   C1280     1.0  0.13022  0.57912  0.21557  1.0000
  Fe  Fe268     1.0  0.02531  0.65647  0.99647  1.0000
  H   H2042     1.0  0.12076  0.65237  0.21484  1.0000
  S   S549      1.0  0.00916  0.65349  0.02022  1.0000
  C   C1281     1.0  0.99786  0.51472  0.09788  1.0000
  H   H2043     1.0  0.09011  0.53472  0.17156  1.0000
  C   C1282     1.0  0.44392  0.60583  0.12861  1.0000
  H   H2044     1.0  0.20271  0.63294  0.17845  1.0000
  S   S550      1.0  0.11251  0.50481  0.16456  1.0000
  H   H2045     1.0  0.13985  0.62422  0.08592  1.0000
  S   S551      1.0  0.05161  0.65103  0.99085  1.0000
  S   S552      1.0  0.02335  0.64214  0.98117  1.0000
  H   H2046     1.0  0.04945  0.49169  0.08487  1.0000
  C   C1283     1.0  0.35348  0.49849  0.98896  1.0000
  Fe  Fe269     1.0  0.16542  0.50875  0.17083  1.0000
  H   H2047     1.0  0.26157  0.67019  0.09782  1.0000
  H   H2048     1.0  0.00861  0.64760  0.20385  1.0000
  H   H2049     1.0  0.37640  0.52484  0.08683  1.0000
  C   C1284     1.0  0.19458  0.62551  0.17931  1.0000
  C   C1285     1.0  0.13276  0.62834  0.11517  1.0000
  C   C1286     1.0  0.08345  0.70226  0.99619  1.0000
  H   H2050     1.0  0.98828  0.69429  0.98813  1.0000
  H   H2051     1.0  0.36630  0.67497  0.21934  1.0000
  H   H2052     1.0  0.01785  0.60473  0.00332  1.0000
  C   C1287     1.0  0.06751  0.68782  0.99096  1.0000
  C   C1288     1.0  0.07374  0.69154  0.00149  1.0000
  H   H2053     1.0  0.33768  0.48754  0.98436  1.0000
  H   H2054     1.0  0.06725  0.56652  0.16956  1.0000
  H   H2055     1.0  0.06025  0.67932  0.99506  1.0000
  H   H2056     1.0  0.07118  0.68595  0.01372  1.0000
  C   C1289     1.0  0.14676  0.67765  0.06728  1.0000
  C   C1290     1.0  0.13559  0.68491  0.05818  1.0000
  C   C1291     1.0  0.13963  0.69467  0.04344  1.0000
  C   C1292     1.0  0.15483  0.69725  0.03785  1.0000
  C   C1293     1.0  0.16596  0.68986  0.04692  1.0000
  C   C1294     1.0  0.16199  0.68001  0.06149  1.0000
  H   H2057     1.0  0.12380  0.68309  0.06253  1.0000
  H   H2058     1.0  0.13097  0.70028  0.03648  1.0000
  H   H2059     1.0  0.17773  0.69167  0.04268  1.0000
  H   H2060     1.0  0.17082  0.67419  0.06816  1.0000
  C   C1295     1.0  0.22261  0.71551  0.05592  1.0000
  C   C1296     1.0  0.20922  0.71205  0.06686  1.0000
  C   C1297     1.0  0.20771  0.69649  0.07260  1.0000
  C   C1298     1.0  0.21955  0.68440  0.06735  1.0000
  C   C1299     1.0  0.23279  0.68790  0.05619  1.0000
  C   C1300     1.0  0.23427  0.70343  0.05044  1.0000
  C   C1301     1.0  0.33326  0.54132  0.00577  1.0000
  H   H2061     1.0  0.19753  0.69391  0.08129  1.0000
  H   H2062     1.0  0.24195  0.67859  0.05201  1.0000
  H   H2063     1.0  0.24436  0.70600  0.04160  1.0000
  H   H2064     1.0  0.13581  0.58801  0.21576  1.0000
  C   C1302     1.0  0.04065  0.58096  0.99568  1.0000
  H   H2065     1.0  0.41942  0.69465  0.17999  1.0000
  Fe  Fe270     1.0  0.37481  0.65539  0.17755  1.0000
  S   S553      1.0  0.48124  0.50560  0.11303  1.0000
  H   H2066     1.0  0.09778  0.69752  0.11781  1.0000
  Fe  Fe271     1.0  0.06911  0.63279  0.18130  1.0000
  C   C1303     1.0  0.10640  0.62992  0.11366  1.0000
  H   H2067     1.0  0.10286  0.62615  0.12654  1.0000
  C   C1304     1.0  0.42982  0.63514  0.15416  1.0000
  C   C1305     1.0  0.18067  0.61671  0.16574  1.0000
  C   C1306     1.0  0.46571  0.53772  0.14498  1.0000
  H   H2068     1.0  0.15505  0.48544  0.19926  1.0000
  Fe  Fe272     1.0  0.35070  0.67751  0.16038  1.0000
  H   H2069     1.0  0.11616  0.67170  0.12037  1.0000
  H   H2070     1.0  0.99784  0.60152  0.13069  1.0000
  C   C1307     1.0  0.40086  0.72758  0.16746  1.0000
  H   H2071     1.0  0.40549  0.64596  0.15491  1.0000
  H   H2072     1.0  0.21247  0.48433  0.13476  1.0000
  C   C1308     1.0  0.11148  0.48506  0.16869  1.0000
  N   N126      1.0  0.24403  0.69121  0.10034  1.0000
  C   C1309     1.0  0.23109  0.68353  0.10250  1.0000
  C   C1310     1.0  0.41911  0.51833  0.07388  1.0000
  H   H2073     1.0  0.47845  0.50411  0.14693  1.0000
  H   H2074     1.0  0.03357  0.56453  0.02525  1.0000
  H   H2075     1.0  0.18362  0.71928  0.02897  1.0000
  C   C1311     1.0  0.15843  0.57618  0.13796  1.0000
  C   C1312     1.0  0.17442  0.57034  0.13292  1.0000
  C   C1313     1.0  0.18492  0.58031  0.12862  1.0000
  C   C1314     1.0  0.17947  0.59619  0.12912  1.0000
  C   C1315     1.0  0.16348  0.60202  0.13416  1.0000
  C   C1316     1.0  0.15302  0.59202  0.13863  1.0000
  H   H2076     1.0  0.17871  0.55817  0.13227  1.0000
  H   H2077     1.0  0.19729  0.57572  0.12479  1.0000
  H   H2078     1.0  0.15918  0.61414  0.13496  1.0000
  H   H2079     1.0  0.14071  0.59652  0.14287  1.0000
  S   S554      1.0  0.42860  0.53125  0.07685  1.0000
  C   C1317     1.0  0.99297  0.59664  0.16158  1.0000
  H   H2080     1.0  0.17936  0.64474  0.14769  1.0000
  H   H2081     1.0  0.18331  0.57523  0.17863  1.0000
  H   H2082     1.0  0.07882  0.55786  0.18406  1.0000
  S   S555      1.0  0.44397  0.50790  0.11499  1.0000
  H   H2083     1.0  0.12022  0.62531  0.08477  1.0000
  S   S556      1.0  0.08668  0.69698  0.20406  1.0000
  H   H2084     1.0  0.11678  0.55122  0.15613  1.0000
  C   C1318     1.0  0.41271  0.49290  0.08004  1.0000
  H   H2085     1.0  0.17349  0.64778  0.16703  1.0000
  N   N127      1.0  0.19125  0.62699  0.16404  1.0000
  H   H2086     1.0  0.30064  0.72778  0.09175  1.0000
  H   H2087     1.0  0.12531  0.64189  0.08742  1.0000
  H   H2088     1.0  0.13038  0.66734  0.13184  1.0000
  H   H2089     1.0  0.45044  0.54431  0.16587  1.0000
  C   C1319     1.0  0.20602  0.62227  0.15299  1.0000
  S   S557      1.0  0.09219  0.62211  0.18796  1.0000
  S   S558      1.0  0.37694  0.67097  0.15363  1.0000
  C   C1320     1.0  0.12592  0.60602  0.11174  1.0000
  C   C1321     1.0  0.24833  0.69908  0.08381  1.0000
  H   H2090     1.0  0.33899  0.70608  0.07316  1.0000
  H   H2091     1.0  0.99372  0.62454  0.14180  1.0000
  C   C1322     1.0  0.29219  0.68288  0.07231  1.0000
  C   C1323     1.0  0.28274  0.67937  0.06468  1.0000
  C   C1324     1.0  0.28025  0.66416  0.06817  1.0000
  C   C1325     1.0  0.28742  0.65238  0.07911  1.0000
  C   C1326     1.0  0.29733  0.65579  0.08627  1.0000
  C   C1327     1.0  0.29961  0.67103  0.08298  1.0000
  H   H2092     1.0  0.27716  0.68839  0.05627  1.0000
  H   H2093     1.0  0.27267  0.66155  0.06249  1.0000
  H   H2094     1.0  0.30331  0.64669  0.09433  1.0000
  H   H2095     1.0  0.30710  0.67362  0.08877  1.0000
  C   C1328     1.0  0.25430  0.60111  0.16829  1.0000
  C   C1329     1.0  0.25136  0.59209  0.15980  1.0000
  C   C1330     1.0  0.23815  0.58548  0.16544  1.0000
  C   C1331     1.0  0.22785  0.58786  0.17958  1.0000
  C   C1332     1.0  0.23080  0.59688  0.18806  1.0000
  C   C1333     1.0  0.24398  0.60351  0.18240  1.0000
  H   H2096     1.0  0.25934  0.59007  0.14898  1.0000
  H   H2097     1.0  0.23593  0.57846  0.15887  1.0000
  H   H2098     1.0  0.22302  0.59865  0.19904  1.0000
  H   H2099     1.0  0.24626  0.61042  0.18905  1.0000
  C   C1334     1.0  0.32037  0.55469  0.09722  1.0000
  C   C1335     1.0  0.31668  0.56610  0.08422  1.0000
  C   C1336     1.0  0.31880  0.56184  0.07002  1.0000
  C   C1337     1.0  0.32483  0.54621  0.06871  1.0000
  C   C1338     1.0  0.32854  0.53483  0.08171  1.0000
  C   C1339     1.0  0.32620  0.53905  0.09595  1.0000
  H   H2100     1.0  0.31220  0.57820  0.08510  1.0000
  H   H2101     1.0  0.31587  0.57070  0.06000  1.0000
  H   H2102     1.0  0.33302  0.52275  0.08087  1.0000
  H   H2103     1.0  0.32893  0.53015  0.10602  1.0000
  C   C1340     1.0  0.02647  0.60610  0.05079  1.0000
  C   C1341     1.0  0.01053  0.61315  0.05335  1.0000
  C   C1342     1.0  0.00526  0.62798  0.04432  1.0000
  C   C1343     1.0  0.01590  0.63571  0.03263  1.0000
  C   C1344     1.0  0.03186  0.62887  0.03051  1.0000
  C   C1345     1.0  0.03713  0.61419  0.03964  1.0000
  C   C1346     1.0  0.22062  0.72377  0.01112  1.0000
  H   H2104     1.0  0.47254  0.59048  0.13355  1.0000
  H   H2105     1.0  0.04019  0.63489  0.02184  1.0000
  H   H2106     1.0  0.04951  0.60902  0.03790  1.0000
  Fe  Fe273     1.0  0.35040  0.68016  0.19282  1.0000
  Fe  Fe274     1.0  0.07755  0.61626  0.15429  1.0000
  H   H2107     1.0  0.47664  0.48426  0.15137  1.0000
  H   H2108     1.0  0.18521  0.53610  0.17279  1.0000
  H   H2109     1.0  0.05442  0.50024  0.12064  1.0000
  C   C1347     1.0  0.17905  0.72177  0.13854  1.0000
  H   H2110     1.0  0.99090  0.53575  0.08129  1.0000
  H   H2111     1.0  0.13422  0.70072  0.12625  1.0000
  H   H2112     1.0  0.10978  0.54721  0.21551  1.0000
  H   H2113     1.0  0.14546  0.62398  0.11066  1.0000
  S   S559      1.0  0.37384  0.51258  0.99444  1.0000
  C   C1348     1.0  0.44047  0.57981  0.13154  1.0000
  H   H2114     1.0  0.17778  0.61765  0.15444  1.0000
  C   C1349     1.0  0.13091  0.63820  0.16774  1.0000
  C   C1350     1.0  0.13662  0.65068  0.16830  1.0000
  C   C1351     1.0  0.14277  0.64989  0.18094  1.0000
  C   C1352     1.0  0.14406  0.63626  0.19262  1.0000
  C   C1353     1.0  0.13871  0.62360  0.19190  1.0000
  C   C1354     1.0  0.13195  0.62464  0.17956  1.0000
  H   H2115     1.0  0.13608  0.66108  0.15911  1.0000
  H   H2116     1.0  0.17477  0.55825  0.20401  1.0000
  H   H2117     1.0  0.13947  0.61315  0.20100  1.0000
  H   H2118     1.0  0.12771  0.61488  0.17908  1.0000
  C   C1355     1.0  0.16341  0.48021  0.20661  1.0000
  H   H2119     1.0  0.02979  0.58182  0.99197  1.0000
  H   H2120     1.0  0.09588  0.67571  0.18362  1.0000
  C   C1356     1.0  0.11074  0.57151  0.20748  1.0000
  N   N128      1.0  0.12309  0.62328  0.10782  1.0000
  C   C1357     1.0  0.23904  0.70293  0.11013  1.0000
  H   H2121     1.0  0.44382  0.56714  0.13688  1.0000
  H   H2122     1.0  0.20006  0.61326  0.18412  1.0000
  H   H2123     1.0  0.09870  0.62611  0.10860  1.0000
  H   H2124     1.0  0.03031  0.50036  0.09435  1.0000
  C   C1358     1.0  0.05823  0.60180  0.13484  1.0000
  C   C1359     1.0  0.05486  0.60032  0.12134  1.0000
  C   C1360     1.0  0.04399  0.59156  0.12237  1.0000
  C   C1361     1.0  0.03654  0.58406  0.13693  1.0000
  C   C1362     1.0  0.03995  0.58550  0.15044  1.0000
  C   C1363     1.0  0.05067  0.59441  0.14942  1.0000
  H   H2125     1.0  0.06065  0.60599  0.11001  1.0000
  H   H2126     1.0  0.04147  0.59054  0.11188  1.0000
  H   H2127     1.0  0.03423  0.57973  0.16175  1.0000
  H   H2128     1.0  0.05310  0.59553  0.15989  1.0000
  C   C1364     1.0  0.33664  0.66248  0.13895  1.0000
  C   C1365     1.0  0.32580  0.66128  0.13137  1.0000
  C   C1366     1.0  0.32704  0.64725  0.12710  1.0000
  C   C1367     1.0  0.33924  0.63444  0.13030  1.0000
  C   C1368     1.0  0.35025  0.63578  0.13757  1.0000
  C   C1369     1.0  0.34886  0.64969  0.14205  1.0000
  H   H2129     1.0  0.31638  0.67118  0.12887  1.0000
  H   H2130     1.0  0.31863  0.64638  0.12129  1.0000
  H   H2131     1.0  0.35975  0.62593  0.14000  1.0000
  H   H2132     1.0  0.35731  0.65054  0.14784  1.0000
  C   C1370     1.0  0.44066  0.62414  0.16209  1.0000
  C   C1371     1.0  0.41941  0.61690  0.18334  1.0000
  C   C1372     1.0  0.43546  0.61499  0.17669  1.0000
  H   H2133     1.0  0.41539  0.60985  0.19466  1.0000
  H   H2134     1.0  0.44376  0.60655  0.18293  1.0000
  C   C1373     1.0  0.40889  0.52397  0.06365  1.0000
  C   C1374     1.0  0.40059  0.51411  0.06161  1.0000
  C   C1375     1.0  0.40241  0.49856  0.06989  1.0000
  H   H2135     1.0  0.40745  0.53599  0.05723  1.0000
  H   H2136     1.0  0.39280  0.51852  0.05366  1.0000
  H   H2137     1.0  0.04008  0.51196  0.10969  1.0000
  H   H2138     1.0  0.23187  0.49529  0.11243  1.0000
  N   N129      1.0  0.20675  0.71711  0.01433  1.0000
  C   C1376     1.0  0.18375  0.64341  0.15822  1.0000
  H   H2139     1.0  0.25500  0.67332  0.11733  1.0000
  C   C1377     1.0  0.10677  0.55662  0.16455  1.0000
  H   H2140     1.0  0.46084  0.49732  0.18907  1.0000
  H   H2141     1.0  0.24467  0.49262  0.12517  1.0000
  Fe  Fe275     1.0  0.45840  0.52246  0.11837  1.0000
  Fe  Fe276     1.0  0.16756  0.50657  0.13805  1.0000
  C   C1378     1.0  0.25768  0.67932  0.10484  1.0000
  H   H2142     1.0  0.45197  0.59316  0.15663  1.0000
  C   C1379     1.0  0.38259  0.71333  0.18653  1.0000
  C   C1380     1.0  0.19381  0.71310  0.11491  1.0000
  C   C1381     1.0  0.18685  0.70016  0.11952  1.0000
  C   C1382     1.0  0.17599  0.69791  0.13370  1.0000
  C   C1383     1.0  0.17205  0.70878  0.14317  1.0000
  N   N130      1.0  0.17215  0.55635  0.18206  1.0000
  C   C1384     1.0  0.24131  0.48679  0.11783  1.0000
  H   H2143     1.0  0.18995  0.69190  0.11211  1.0000
  H   H2144     1.0  0.16367  0.70710  0.15416  1.0000
  H   H2145     1.0  0.31616  0.71705  0.10168  1.0000
  H   H2146     1.0  0.05667  0.72409  0.00530  1.0000
  H   H2147     1.0  0.22065  0.69435  0.01158  1.0000
  H   H2148     1.0  0.46916  0.58532  0.11738  1.0000
  H   H2149     1.0  0.99291  0.69036  0.20128  1.0000
  C   C1385     1.0  0.46329  0.49715  0.17651  1.0000
  H   H2150     1.0  0.11046  0.72610  0.19787  1.0000
  H   H2151     1.0  0.23864  0.70879  0.08023  1.0000
  N   N131      1.0  0.42618  0.67045  0.17854  1.0000
  C   C1386     1.0  0.42176  0.67373  0.16343  1.0000
  C   C1387     1.0  0.42272  0.65532  0.18804  1.0000
  H   H2152     1.0  0.11456  0.59492  0.20136  1.0000
  C   C1388     1.0  0.44307  0.66973  0.17577  1.0000
  H   H2153     1.0  0.42344  0.68544  0.15627  1.0000
  H   H2154     1.0  0.02282  0.49423  0.12410  1.0000
  H   H2155     1.0  0.42885  0.66492  0.15647  1.0000
  H   H2156     1.0  0.44619  0.60778  0.11571  1.0000
  H   H2157     1.0  0.99290  0.63326  0.04611  1.0000
  N   N132      1.0  0.44883  0.58913  0.13584  1.0000
  C   C1389     1.0  0.11816  0.58303  0.20749  1.0000
  Fe  Fe277     1.0  0.04937  0.63838  0.97413  1.0000
  H   H2158     1.0  0.37531  0.70495  0.18970  1.0000
  H   H2159     1.0  0.44683  0.66728  0.18692  1.0000
  N   N133      1.0  0.11474  0.68967  0.13208  1.0000
  H   H2160     1.0  0.99349  0.58387  0.16392  1.0000
  C   C1390     1.0  0.08983  0.54304  0.16009  1.0000
  H   H2161     1.0  0.25163  0.48429  0.10819  1.0000
  H   H2162     1.0  0.35385  0.56667  0.97928  1.0000
  S   S560      1.0  0.39189  0.70665  0.15732  1.0000
  C   C1391     1.0  0.36436  0.50795  0.98253  1.0000
  H   H2163     1.0  0.31992  0.57177  0.99829  1.0000
  H   H2164     1.0  0.00115  0.66572  0.19148  1.0000
  H   H2165     1.0  0.09902  0.71195  0.12708  1.0000
  H   H2166     1.0  0.43123  0.61042  0.13297  1.0000
  H   H2167     1.0  0.31465  0.48607  0.06003  1.0000
  Fe  Fe278     1.0  0.44806  0.52071  0.09000  1.0000
  H   H2168     1.0  0.22881  0.71217  0.10697  1.0000
  Fe  Fe279     1.0  0.34881  0.48341  0.04757  1.0000
  H   H2169     1.0  0.04796  0.58800  0.98593  1.0000
  Fe  Fe280     1.0  0.13629  0.50968  0.16060  1.0000
  N   N134      1.0  0.09175  0.55848  0.16041  1.0000
  S   S561      1.0  0.27024  0.71793  0.03475  1.0000
  H   H2170     1.0  0.28723  0.48578  0.07436  1.0000
  C   C1392     1.0  0.17663  0.48626  0.20385  1.0000
  S   S562      1.0  0.47021  0.50365  0.08228  1.0000
  C   C1393     1.0  0.07879  0.56526  0.17212  1.0000
  S   S563      1.0  0.46046  0.53685  0.09401  1.0000
  H   H2171     1.0  0.13024  0.62392  0.12802  1.0000
  H   H2172     1.0  0.13235  0.68713  0.14459  1.0000
  H   H2173     1.0  0.20200  0.71492  0.10382  1.0000
  H   H2174     1.0  0.08051  0.57048  0.14129  1.0000
  S   S564      1.0  0.15882  0.49188  0.16131  1.0000
  S   S565      1.0  0.05212  0.65015  0.19478  1.0000
  C   C1394     1.0  0.07636  0.68519  0.20043  1.0000
  H   H2175     1.0  0.45877  0.50918  0.17013  1.0000
  H   H2176     1.0  0.08254  0.65730  0.17983  1.0000
  H   H2177     1.0  0.09548  0.67832  0.14324  1.0000
  H   H2178     1.0  0.44789  0.57457  0.15887  1.0000
  H   H2179     1.0  0.42016  0.68103  0.19834  1.0000
  S   S566      1.0  0.00580  0.52341  0.10811  1.0000
  N   N135      1.0  0.04561  0.48743  0.10983  1.0000
  H   H2180     1.0  0.26786  0.68462  0.10292  1.0000
  C   C1395     1.0  0.20114  0.72055  0.99982  1.0000
  C   C1396     1.0  0.10367  0.68349  0.14618  1.0000
  C   C1397     1.0  0.05341  0.67433  0.20637  1.0000
  C   C1398     1.0  0.21096  0.69999  0.02010  1.0000
  H   H2181     1.0  0.11914  0.70589  0.14263  1.0000
  C   C1399     1.0  0.48090  0.53616  0.13582  1.0000
  H   H2182     1.0  0.21452  0.62947  0.15164  1.0000
  H   H2183     1.0  0.13847  0.60058  0.10779  1.0000
  C   C1400     1.0  0.11548  0.55614  0.21547  1.0000
  H   H2184     1.0  0.17065  0.54879  0.16247  1.0000
  Fe  Fe281     1.0  0.48235  0.51875  0.08827  1.0000
  H   H2185     1.0  0.07857  0.54391  0.15713  1.0000
  C   C1401     1.0  0.42106  0.50275  0.08202  1.0000
  H   H2186     1.0  0.08462  0.64154  0.21427  1.0000
  C   C1402     1.0  0.17519  0.54922  0.19781  1.0000
  H   H2187     1.0  0.37572  0.71862  0.20935  1.0000
  H   H2188     1.0  0.35089  0.49372  0.00137  1.0000
  C   C1403     1.0  0.15627  0.56645  0.18325  1.0000
  H   H2189     1.0  0.22081  0.69208  0.09870  1.0000
  H   H2190     1.0  0.18608  0.60423  0.16998  1.0000
  C   C1404     1.0  0.34602  0.49496  0.97929  1.0000
  H   H2191     1.0  0.22512  0.48155  0.14768  1.0000
  Fe  Fe282     1.0  0.36577  0.50493  0.02066  1.0000
  H   H2192     1.0  0.42893  0.49831  0.08993  1.0000
  S   S567      1.0  0.15246  0.63526  0.20796  1.0000
  N   N136      1.0  0.37088  0.54639  0.09448  1.0000
  C   C1405     1.0  0.36320  0.53957  0.11047  1.0000
  C   C1406     1.0  0.38734  0.54585  0.09396  1.0000
  C   C1407     1.0  0.36257  0.56280  0.08989  1.0000
  H   H2193     1.0  0.35075  0.53983  0.11126  1.0000
  H   H2194     1.0  0.36326  0.54620  0.11897  1.0000
  H   H2195     1.0  0.36913  0.52719  0.11434  1.0000
  H   H2196     1.0  0.38825  0.55257  0.10198  1.0000
  H   H2197     1.0  0.39358  0.55078  0.08204  1.0000
  H   H2198     1.0  0.39397  0.53362  0.09733  1.0000
  H   H2199     1.0  0.36262  0.56998  0.09790  1.0000
  H   H2200     1.0  0.35009  0.56359  0.09021  1.0000
  H   H2201     1.0  0.36800  0.56834  0.07787  1.0000
  N   N137      1.0  0.31033  0.61874  0.17383  1.0000
  C   C1408     1.0  0.30869  0.60244  0.17689  1.0000
  C   C1409     1.0  0.30477  0.62781  0.15959  1.0000
  C   C1410     1.0  0.32694  0.61893  0.17161  1.0000
  C   C1411     1.0  0.30090  0.62583  0.18713  1.0000
  H   H2202     1.0  0.31586  0.59672  0.16713  1.0000
  H   H2203     1.0  0.29634  0.60190  0.17820  1.0000
  H   H2204     1.0  0.31251  0.59527  0.18771  1.0000
  H   H2205     1.0  0.31153  0.62262  0.14940  1.0000
  H   H2206     1.0  0.29225  0.62803  0.16082  1.0000
  H   H2207     1.0  0.30606  0.64012  0.15673  1.0000
  H   H2208     1.0  0.32866  0.63110  0.16893  1.0000
  H   H2209     1.0  0.33436  0.61351  0.16171  1.0000
  H   H2210     1.0  0.33156  0.61237  0.18217  1.0000
  H   H2211     1.0  0.28831  0.62584  0.18905  1.0000
  H   H2212     1.0  0.30188  0.63816  0.18512  1.0000
  H   H2213     1.0  0.30478  0.61929  0.19810  1.0000
  H   H2214     1.0  0.12323  0.72722  0.21792  1.0000
  C   C1412     1.0  0.46586  0.58383  0.13027  1.0000
  C   C1413     1.0  0.03299  0.48410  0.12363  1.0000
  C   C1414     1.0  0.32977  0.56884  0.00423  1.0000
  H   H2215     1.0  0.32350  0.54352  0.99990  1.0000
  C   C1415     1.0  0.06122  0.66419  0.19624  1.0000
  H   H2216     1.0  0.40925  0.67364  0.16504  1.0000
  H   H2217     1.0  0.23554  0.69749  0.12270  1.0000
  C   C1416     1.0  0.99334  0.49092  0.09418  1.0000
  H   H2218     1.0  0.19593  0.55851  0.17179  1.0000
  H   H2219     1.0  0.31167  0.70909  0.08803  1.0000
  H   H2220     1.0  0.25118  0.69079  0.07602  1.0000
  C   C1417     1.0  0.17332  0.54386  0.17420  1.0000
  C   C1418     1.0  0.10599  0.70207  0.12145  1.0000
  H   H2221     1.0  0.43251  0.59185  0.15755  1.0000
  H   H2222     1.0  0.22717  0.67785  0.11491  1.0000
  H   H2223     1.0  0.14719  0.55968  0.19003  1.0000
  C   C1419     1.0  0.44510  0.58708  0.15297  1.0000
  H   H2224     1.0  0.10379  0.64293  0.11075  1.0000
  C   C1420     1.0  0.02853  0.60311  0.00766  1.0000
  C   C1421     1.0  0.04002  0.48987  0.09549  1.0000
  H   H2225     1.0  0.35817  0.53759  0.08355  1.0000
  S   S568      1.0  0.34858  0.66060  0.18354  1.0000
  C   C1422     1.0  0.05189  0.58534  0.01454  1.0000
  H   H2226     1.0  0.25876  0.70409  0.08150  1.0000
  H   H2227     1.0  0.48517  0.51415  0.16640  1.0000
  C   C1423     1.0  0.12553  0.69618  0.13658  1.0000
  H   H2228     1.0  0.46996  0.57125  0.13535  1.0000
  H   H2229     1.0  0.10714  0.54905  0.17636  1.0000
  H   H2230     1.0  0.02471  0.60743  0.01862  1.0000
  N   N138      1.0  0.48014  0.49162  0.17025  1.0000
  S   S569      1.0  0.38867  0.63102  0.18454  1.0000
  H   H2231     1.0  0.05960  0.50469  0.09965  1.0000
  H   H2232     1.0  0.44914  0.48240  0.13895  1.0000
  H   H2233     1.0  0.09385  0.71798  0.97624  1.0000
  H   H2234     1.0  0.15355  0.57189  0.17155  1.0000
  H   H2235     1.0  0.47092  0.55145  0.17377  1.0000
  H   H2236     1.0  0.04965  0.58883  0.02579  1.0000
  H   H2237     1.0  0.22519  0.72141  0.02179  1.0000
  Fe  Fe283     1.0  0.11152  0.71824  0.99908  1.0000
  S   S570      1.0  0.06532  0.61009  0.17938  1.0000
  H   H2238     1.0  0.03596  0.61083  0.99902  1.0000
  Fe  Fe284     1.0  0.48251  0.58507  0.19922  1.0000
  C   C1424     1.0  0.07646  0.66494  0.18781  1.0000
  S   S571      1.0  0.99616  0.56920  0.08524  1.0000
  H   H2239     1.0  0.16495  0.53633  0.18102  1.0000
  Fe  Fe285     1.0  0.16513  0.61099  0.21705  1.0000
  H   H2240     1.0  0.42535  0.65271  0.19976  1.0000
  H   H2241     1.0  0.45018  0.66030  0.16950  1.0000
  H   H2242     1.0  0.09658  0.69277  0.15260  1.0000
  C   C1425     1.0  0.47370  0.54737  0.16311  1.0000
  H   H2243     1.0  0.31771  0.72110  0.05970  1.0000
  N   N139      1.0  0.99951  0.66720  0.21493  1.0000
  Fe  Fe286     1.0  0.37609  0.68963  0.16572  1.0000
  N   N140      1.0  0.24187  0.61922  0.09405  1.0000
  C   C1426     1.0  0.23026  0.62299  0.08438  1.0000
  C   C1427     1.0  0.23646  0.60911  0.10925  1.0000
  C   C1428     1.0  0.24372  0.63384  0.09658  1.0000
  C   C1429     1.0  0.25705  0.61098  0.08598  1.0000
  H   H2244     1.0  0.23388  0.63079  0.07290  1.0000
  H   H2245     1.0  0.21867  0.62918  0.09016  1.0000
  H   H2246     1.0  0.22856  0.61226  0.08216  1.0000
  H   H2247     1.0  0.23477  0.59803  0.10777  1.0000
  H   H2248     1.0  0.24501  0.60594  0.11682  1.0000
  H   H2249     1.0  0.22505  0.61500  0.11564  1.0000
  H   H2250     1.0  0.24813  0.64158  0.08533  1.0000
  H   H2251     1.0  0.25224  0.63143  0.10403  1.0000
  H   H2252     1.0  0.23242  0.64061  0.10222  1.0000
  H   H2253     1.0  0.26609  0.60794  0.09297  1.0000
  H   H2254     1.0  0.26161  0.61842  0.07460  1.0000
  H   H2255     1.0  0.25614  0.59994  0.08374  1.0000
  H   H2256     1.0  0.14683  0.65974  0.18148  1.0000
  S   S572      1.0  0.07911  0.63996  0.15574  1.0000
  H   H2257     1.0  0.36276  0.54039  0.00639  1.0000
  H   H2258     1.0  0.32831  0.53916  0.01857  1.0000
  H   H2259     1.0  0.21170  0.60982  0.15701  1.0000
  S   S573      1.0  0.48531  0.60921  0.18558  1.0000
  Fe  Fe287     1.0  0.47654  0.60381  0.16764  1.0000
  S   S574      1.0  0.18139  0.49654  0.11715  1.0000
  S   S575      1.0  0.39180  0.48598  0.06808  1.0000
  C   C1430     1.0  0.41718  0.68303  0.18688  1.0000
  N   N141      1.0  0.34118  0.55454  0.00060  1.0000
  H   H2260     1.0  0.42980  0.64553  0.18235  1.0000
  H   H2261     1.0  0.20013  0.72135  0.07115  1.0000
  H   H2262     1.0  0.10997  0.62300  0.21516  1.0000
  H   H2263     1.0  0.32468  0.56732  0.01702  1.0000
  H   H2264     1.0  0.16637  0.54233  0.20511  1.0000
  C   C1431     1.0  0.09161  0.56898  0.14488  1.0000
  H   H2265     1.0  0.20083  0.69459  0.02217  1.0000
  S   S576      1.0  0.33468  0.67992  0.14466  1.0000
  H   H2266     1.0  0.13245  0.68104  0.11343  1.0000
  H   H2267     1.0  0.45036  0.61312  0.13127  1.0000
  S   S577      1.0  0.16032  0.70970  0.01971  1.0000
  N   N142      1.0  0.03711  0.58660  0.01019  1.0000
  H   H2268     1.0  0.00317  0.49180  0.11258  1.0000
  H   H2269     1.0  0.00222  0.60701  0.06199  1.0000
  H   H2270     1.0  0.33532  0.57907  0.00056  1.0000
  C   C1432     1.0  0.12729  0.62889  0.09073  1.0000
  Fe  Fe288     1.0  0.08960  0.60013  0.18360  1.0000
  H   H2271     1.0  0.07977  0.57704  0.17246  1.0000
  C   C1433     1.0  0.06097  0.68479  0.20848  1.0000
  H   H2272     1.0  0.11404  0.70686  0.11064  1.0000
  S   S578      1.0  0.19014  0.60675  0.21838  1.0000
  C   C1434     1.0  0.39169  0.71648  0.17142  1.0000
  C   C1435     1.0  0.31257  0.72012  0.09035  1.0000
  S   S579      1.0  0.37645  0.67339  0.18892  1.0000
  H   H2273     1.0  0.43381  0.64211  0.14278  1.0000
  H   H2274     1.0  0.12265  0.60143  0.12455  1.0000
  H   H2275     1.0  0.37618  0.54207  0.07145  1.0000
  C   C1436     1.0  0.02742  0.57704  0.02287  1.0000
  H   H2276     1.0  0.21031  0.71552  0.99053  1.0000
  S   S580      1.0  0.33469  0.68739  0.21458  1.0000
  Fe  Fe289     1.0  0.28131  0.72037  0.05263  1.0000
  C   C1437     1.0  0.99916  0.68413  0.21084  1.0000
  H   H2277     1.0  0.42758  0.58355  0.13552  1.0000
  H   H2278     1.0  0.41422  0.48087  0.08642  1.0000
  H   H2279     1.0  0.19070  0.71562  0.00181  1.0000
  H   H2280     1.0  0.05895  0.57315  0.01598  1.0000
  H   H2281     1.0  0.34940  0.54923  0.02168  1.0000
  H   H2282     1.0  0.24858  0.70890  0.10875  1.0000
  Fe  Fe290     1.0  0.14227  0.71905  0.00496  1.0000
  H   H2283     1.0  0.34371  0.71383  0.08684  1.0000
  H   H2284     1.0  0.21478  0.69697  0.03130  1.0000
  C   C1438     1.0  0.19010  0.72383  0.12446  1.0000
  H   H2285     1.0  0.45632  0.48944  0.17543  1.0000
  H   H2286     1.0  0.36015  0.56085  0.00526  1.0000
  H   H2287     1.0  0.10929  0.65096  0.20245  1.0000
  C   C1439     1.0  0.33935  0.71710  0.07591  1.0000
  N   N143      1.0  0.32379  0.72783  0.07758  1.0000
  H   H2288     1.0  0.13901  0.72565  0.19110  1.0000
  H   H2289     1.0  0.98998  0.60006  0.17298  1.0000
  C   C1440     1.0  0.00753  0.66047  0.20108  1.0000
  H   H2290     1.0  0.01117  0.68638  0.20703  1.0000
  H   H2291     1.0  0.23030  0.71877  0.00214  1.0000
  H   H2292     1.0  0.33849  0.55926  0.97704  1.0000
  H   H2293     1.0  0.05491  0.69244  0.21646  1.0000
  H   H2294     1.0  0.19810  0.72176  0.03734  1.0000
  C   C1441     1.0  0.99150  0.52330  0.08500  1.0000
  H   H2295     1.0  0.00500  0.59830  0.15560  1.0000
  H   H2296     1.0  0.34811  0.72256  0.06638  1.0000
  C   C1442     1.0  0.10865  0.65319  0.21398  1.0000
  C   C1443     1.0  0.09988  0.48110  0.16420  1.0000
  H   H2297     1.0  0.10228  0.66548  0.21409  1.0000
  H   H2298     1.0  0.17615  0.72997  0.14599  1.0000
  C   C1444     1.0  0.33594  0.49474  0.40084  1.0000
  Fe  Fe291     1.0  0.36233  0.65232  0.41291  1.0000
  S   S581      1.0  0.35825  0.63141  0.40777  1.0000
  S   S582      1.0  0.34995  0.67532  0.40052  1.0000
  Fe  Fe292     1.0  0.38326  0.63277  0.43474  1.0000
  S   S583      1.0  0.38124  0.61012  0.43114  1.0000
  S   S584      1.0  0.39714  0.63127  0.45208  1.0000
  Fe  Fe293     1.0  0.38392  0.62214  0.40589  1.0000
  S   S585      1.0  0.39678  0.60858  0.38719  1.0000
  Fe  Fe294     1.0  0.35587  0.62132  0.43328  1.0000
  S   S586      1.0  0.33712  0.60816  0.44683  1.0000
  S   S587      1.0  0.38841  0.64386  0.40919  1.0000
  S   S588      1.0  0.35749  0.64315  0.43881  1.0000
  C   C1445     1.0  0.03150  0.59357  0.45937  1.0000
  H   H2299     1.0  0.00839  0.61241  0.44621  1.0000
  C   C1446     1.0  0.15677  0.51792  0.24900  1.0000
  H   H2300     1.0  0.19769  0.54072  0.41882  1.0000
  C   C1447     1.0  0.32160  0.66032  0.25399  1.0000
  C   C1448     1.0  0.08826  0.68548  0.40290  1.0000
  H   H2301     1.0  0.15515  0.49762  0.27694  1.0000
  Fe  Fe295     1.0  0.31241  0.52534  0.41645  1.0000
  S   S589      1.0  0.31290  0.54209  0.43009  1.0000
  N   N144      1.0  0.44996  0.54227  0.27363  1.0000
  Fe  Fe296     1.0  0.28462  0.54655  0.40373  1.0000
  S   S590      1.0  0.28285  0.56544  0.41585  1.0000
  S   S591      1.0  0.26967  0.54942  0.38686  1.0000
  Fe  Fe297     1.0  0.30901  0.56050  0.40871  1.0000
  S   S592      1.0  0.32401  0.57824  0.39883  1.0000
  Fe  Fe298     1.0  0.28681  0.54548  0.43620  1.0000
  S   S593      1.0  0.27277  0.54730  0.46030  1.0000
  S   S594      1.0  0.31047  0.54357  0.39449  1.0000
  S   S595      1.0  0.28661  0.52691  0.42467  1.0000
  Fe  Fe299     1.0  0.45230  0.62973  0.31427  1.0000
  S   S596      1.0  0.43076  0.64618  0.32397  1.0000
  H   H2302     1.0  0.45849  0.61118  0.36623  1.0000
  H   H2303     1.0  0.06508  0.60043  0.46788  1.0000
  S   S597      1.0  0.32376  0.70345  0.32419  1.0000
  S   S598      1.0  0.07805  0.65190  0.44133  1.0000
  S   S599      1.0  0.10459  0.70338  0.35067  1.0000
  Fe  Fe300     1.0  0.09412  0.71693  0.36956  1.0000
  S   S600      1.0  0.07190  0.71238  0.38683  1.0000
  Fe  Fe301     1.0  0.12748  0.70436  0.35452  1.0000
  S   S601      1.0  0.14700  0.68317  0.35773  1.0000
  C   C1449     1.0  0.00803  0.65949  0.22756  1.0000
  H   H2304     1.0  0.15582  0.71273  0.35298  1.0000
  Fe  Fe302     1.0  0.06751  0.71212  0.25674  1.0000
  C   C1450     1.0  0.16058  0.72099  0.35631  1.0000
  S   S602      1.0  0.07396  0.69858  0.27957  1.0000
  H   H2305     1.0  0.40672  0.48917  0.31668  1.0000
  H   H2306     1.0  0.33652  0.50650  0.36203  1.0000
  H   H2307     1.0  0.28626  0.51876  0.37393  1.0000
  H   H2308     1.0  0.44033  0.61321  0.38056  1.0000
  Fe  Fe303     1.0  0.18310  0.59026  0.24107  1.0000
  H   H2309     1.0  0.18701  0.48125  0.34803  1.0000
  H   H2310     1.0  0.17663  0.53434  0.44202  1.0000
  S   S603      1.0  0.08638  0.71811  0.23582  1.0000
  S   S604      1.0  0.05581  0.70232  0.24416  1.0000
  H   H2311     1.0  0.29349  0.65266  0.26237  1.0000
  H   H2312     1.0  0.18078  0.50374  0.22959  1.0000
  H   H2313     1.0  0.28651  0.51193  0.39425  1.0000
  H   H2314     1.0  0.17708  0.53287  0.40164  1.0000
  C   C1451     1.0  0.36025  0.68299  0.22683  1.0000
  S   S605      1.0  0.18896  0.56938  0.23035  1.0000
  Fe  Fe304     1.0  0.22864  0.62032  0.32360  1.0000
  S   S606      1.0  0.21445  0.63404  0.30596  1.0000
  S   S607      1.0  0.22071  0.60295  0.34509  1.0000
  Fe  Fe305     1.0  0.25609  0.63513  0.30757  1.0000
  S   S608      1.0  0.24486  0.65031  0.28810  1.0000
  S   S609      1.0  0.28007  0.63388  0.31043  1.0000
  Fe  Fe306     1.0  0.22321  0.65431  0.30675  1.0000
  Fe  Fe307     1.0  0.23682  0.62917  0.28836  1.0000
  S   S610      1.0  0.23691  0.62603  0.26483  1.0000
  S   S611      1.0  0.23515  0.64118  0.32635  1.0000
  S   S612      1.0  0.25038  0.61336  0.30595  1.0000
  H   H2315     1.0  0.06324  0.70986  0.44628  1.0000
  Fe  Fe308     1.0  0.18669  0.50924  0.37547  1.0000
  S   S613      1.0  0.20184  0.48634  0.38449  1.0000
  S   S614      1.0  0.16132  0.51754  0.38637  1.0000
  Fe  Fe309     1.0  0.21410  0.52048  0.35097  1.0000
  S   S615      1.0  0.23134  0.49853  0.35818  1.0000
  S   S616      1.0  0.22207  0.53890  0.33042  1.0000
  Fe  Fe310     1.0  0.21268  0.48642  0.35923  1.0000
  H   H2316     1.0  0.09144  0.67182  0.45283  1.0000
  Fe  Fe311     1.0  0.21872  0.50086  0.38249  1.0000
  S   S617      1.0  0.22971  0.49858  0.40228  1.0000
  S   S618      1.0  0.19621  0.50832  0.35024  1.0000
  S   S619      1.0  0.20284  0.52378  0.37520  1.0000
  H   H2317     1.0  0.47132  0.58920  0.38399  1.0000
  C   C1452     1.0  0.47673  0.54232  0.32043  1.0000
  C   C1453     1.0  0.14145  0.51363  0.41508  1.0000
  C   C1454     1.0  0.15435  0.50656  0.40490  1.0000
  H   H2318     1.0  0.18802  0.50758  0.24414  1.0000
  C   C1455     1.0  0.34470  0.69069  0.22676  1.0000
  H   H2319     1.0  0.42273  0.65421  0.29363  1.0000
  H   H2320     1.0  0.03239  0.59193  0.44754  1.0000
  H   H2321     1.0  0.09419  0.65763  0.24267  1.0000
  H   H2322     1.0  0.04524  0.70047  0.33729  1.0000
  C   C1456     1.0  0.22111  0.58521  0.34094  1.0000
  C   C1457     1.0  0.21929  0.57218  0.35315  1.0000
  C   C1458     1.0  0.21988  0.55783  0.34999  1.0000
  C   C1459     1.0  0.22217  0.55650  0.33463  1.0000
  C   C1460     1.0  0.22418  0.56951  0.32240  1.0000
  C   C1461     1.0  0.22367  0.58385  0.32555  1.0000
  H   H2323     1.0  0.21752  0.57315  0.36506  1.0000
  H   H2324     1.0  0.21873  0.54780  0.35944  1.0000
  H   H2325     1.0  0.22608  0.56854  0.31047  1.0000
  H   H2326     1.0  0.22514  0.59386  0.31607  1.0000
  H   H2327     1.0  0.32679  0.65201  0.26362  1.0000
  H   H2328     1.0  0.18823  0.48784  0.24413  1.0000
  C   C1462     1.0  0.10979  0.62594  0.22623  1.0000
  H   H2329     1.0  0.33012  0.66768  0.24708  1.0000
  H   H2330     1.0  0.06240  0.68538  0.35560  1.0000
  H   H2331     1.0  0.45093  0.52021  0.26881  1.0000
  H   H2332     1.0  0.30995  0.54873  0.46181  1.0000
  H   H2333     1.0  0.44172  0.53247  0.29791  1.0000
  H   H2334     1.0  0.44099  0.53699  0.25678  1.0000
  C   C1463     1.0  0.36779  0.68502  0.23728  1.0000
  C   C1464     1.0  0.29697  0.65316  0.31286  1.0000
  C   C1465     1.0  0.10067  0.64545  0.24189  1.0000
  H   H2335     1.0  0.20449  0.52886  0.40459  1.0000
  C   C1466     1.0  0.01019  0.70560  0.25212  1.0000
  C   C1467     1.0  0.07379  0.57681  0.46441  1.0000
  S   S620      1.0  0.15761  0.59625  0.24061  1.0000
  C   C1468     1.0  0.06389  0.72381  0.34518  1.0000
  H   H2336     1.0  0.01998  0.70336  0.25746  1.0000
  H   H2337     1.0  0.21477  0.65783  0.27805  1.0000
  C   C1469     1.0  0.48401  0.53191  0.31045  1.0000
  H   H2338     1.0  0.44385  0.56562  0.27745  1.0000
  H   H2339     1.0  0.47174  0.72086  0.44405  1.0000
  H   H2340     1.0  0.30015  0.65144  0.27940  1.0000
  C   C1470     1.0  0.33400  0.50469  0.38653  1.0000
  C   C1471     1.0  0.18851  0.50656  0.42052  1.0000
  H   H2341     1.0  0.28813  0.68800  0.25108  1.0000
  C   C1472     1.0  0.04296  0.71194  0.36227  1.0000
  H   H2342     1.0  0.44087  0.61057  0.36179  1.0000
  Fe  Fe312     1.0  0.05711  0.64801  0.46085  1.0000
  S   S621      1.0  0.48039  0.62638  0.25952  1.0000
  C   C1473     1.0  0.46003  0.58541  0.38891  1.0000
  C   C1474     1.0  0.29975  0.68066  0.24690  1.0000
  H   H2343     1.0  0.31336  0.48373  0.39150  1.0000
  H   H2344     1.0  0.16209  0.52881  0.41856  1.0000
  H   H2345     1.0  0.41290  0.64703  0.28352  1.0000
  C   C1475     1.0  0.16344  0.68164  0.34224  1.0000
  C   C1476     1.0  0.17560  0.66833  0.34352  1.0000
  C   C1477     1.0  0.18916  0.66715  0.33162  1.0000
  H   H2346     1.0  0.17454  0.65891  0.35373  1.0000
  H   H2347     1.0  0.19849  0.65681  0.33267  1.0000
  S   S622      1.0  0.32944  0.71918  0.28622  1.0000
  C   C1478     1.0  0.09299  0.71010  0.30870  1.0000
  C   C1479     1.0  0.08737  0.70167  0.30153  1.0000
  C   C1480     1.0  0.08148  0.70911  0.28809  1.0000
  C   C1481     1.0  0.06855  0.69712  0.44831  1.0000
  H   H2348     1.0  0.33767  0.70919  0.25639  1.0000
  H   H2349     1.0  0.09768  0.70428  0.31895  1.0000
  H   H2350     1.0  0.08761  0.68938  0.30637  1.0000
  H   H2351     1.0  0.43743  0.57198  0.38910  1.0000
  H   H2352     1.0  0.46343  0.54989  0.25060  1.0000
  C   C1482     1.0  0.07601  0.66834  0.42585  1.0000
  C   C1483     1.0  0.07367  0.69530  0.40167  1.0000
  C   C1484     1.0  0.06024  0.69155  0.41248  1.0000
  C   C1485     1.0  0.06138  0.67807  0.42452  1.0000
  H   H2353     1.0  0.04890  0.69909  0.41155  1.0000
  C   C1486     1.0  0.39657  0.64945  0.45553  1.0000
  H   H2354     1.0  0.35160  0.70524  0.35352  1.0000
  H   H2355     1.0  0.07394  0.66830  0.46674  1.0000
  H   H2356     1.0  0.09578  0.69672  0.46727  1.0000
  Fe  Fe313     1.0  0.33703  0.72068  0.30689  1.0000
  C   C1487     1.0  0.25735  0.53624  0.39178  1.0000
  C   C1488     1.0  0.25063  0.53488  0.38037  1.0000
  C   C1489     1.0  0.24183  0.52354  0.38364  1.0000
  C   C1490     1.0  0.23972  0.51353  0.39836  1.0000
  C   C1491     1.0  0.24601  0.51520  0.40992  1.0000
  C   C1492     1.0  0.25477  0.52658  0.40665  1.0000
  H   H2357     1.0  0.25247  0.54237  0.36885  1.0000
  H   H2358     1.0  0.23702  0.52233  0.37463  1.0000
  H   H2359     1.0  0.24431  0.50755  0.42136  1.0000
  H   H2360     1.0  0.25954  0.52782  0.41563  1.0000
  H   H2361     1.0  0.12681  0.51112  0.43828  1.0000
  N   N145      1.0  0.29329  0.49376  0.38136  1.0000
  H   H2362     1.0  0.29830  0.52035  0.45829  1.0000
  C   C1493     1.0  0.28287  0.65213  0.31042  1.0000
  C   C1494     1.0  0.34188  0.67764  0.35867  1.0000
  H   H2363     1.0  0.38640  0.67806  0.31371  1.0000
  H   H2364     1.0  0.42845  0.59089  0.39367  1.0000
  C   C1495     1.0  0.46499  0.54425  0.26270  1.0000
  H   H2365     1.0  0.37893  0.65552  0.35391  1.0000
  H   H2366     1.0  0.34217  0.72364  0.34327  1.0000
  C   C1496     1.0  0.40487  0.61964  0.36923  1.0000
  C   C1497     1.0  0.41170  0.61252  0.35647  1.0000
  C   C1498     1.0  0.41960  0.62068  0.34248  1.0000
  C   C1499     1.0  0.42023  0.63616  0.34107  1.0000
  C   C1500     1.0  0.41280  0.64351  0.35357  1.0000
  C   C1501     1.0  0.40532  0.63517  0.36770  1.0000
  H   H2367     1.0  0.41119  0.60057  0.35749  1.0000
  H   H2368     1.0  0.42526  0.61498  0.33281  1.0000
  H   H2369     1.0  0.41326  0.65549  0.35250  1.0000
  H   H2370     1.0  0.40014  0.64072  0.37747  1.0000
  C   C1502     1.0  0.33363  0.59877  0.43426  1.0000
  C   C1503     1.0  0.31886  0.59579  0.43642  1.0000
  C   C1504     1.0  0.31597  0.58882  0.42592  1.0000
  C   C1505     1.0  0.32786  0.58494  0.41325  1.0000
  C   C1506     1.0  0.34277  0.58736  0.41150  1.0000
  C   C1507     1.0  0.34563  0.59434  0.42193  1.0000
  H   H2371     1.0  0.30953  0.59928  0.44592  1.0000
  H   H2372     1.0  0.30442  0.58698  0.42729  1.0000
  H   H2373     1.0  0.35212  0.58397  0.40199  1.0000
  H   H2374     1.0  0.35715  0.59633  0.42038  1.0000
  H   H2375     1.0  0.32056  0.65343  0.24619  1.0000
  C   C1508     1.0  0.38856  0.66334  0.44741  1.0000
  C   C1509     1.0  0.38827  0.67775  0.45031  1.0000
  H   H2376     1.0  0.30751  0.68872  0.23973  1.0000
  H   H2377     1.0  0.21027  0.60433  0.23916  1.0000
  C   C1510     1.0  0.33834  0.49876  0.37301  1.0000
  H   H2378     1.0  0.38268  0.66300  0.43881  1.0000
  C   C1511     1.0  0.07436  0.56091  0.47114  1.0000
  H   H2379     1.0  0.08054  0.58027  0.45275  1.0000
  H   H2380     1.0  0.10075  0.66452  0.41591  1.0000
  H   H2381     1.0  0.05303  0.48588  0.45387  1.0000
  C   C1512     1.0  0.33303  0.72307  0.37384  1.0000
  H   H2382     1.0  0.39012  0.68771  0.28491  1.0000
  H   H2383     1.0  0.17349  0.48459  0.27171  1.0000
  N   N146      1.0  0.30632  0.66999  0.26005  1.0000
  H   H2384     1.0  0.39525  0.65835  0.32158  1.0000
  H   H2385     1.0  0.03695  0.70209  0.36535  1.0000
  C   C1513     1.0  0.05079  0.71050  0.33511  1.0000
  C   C1514     1.0  0.31165  0.55779  0.46678  1.0000
  H   H2386     1.0  0.99498  0.61681  0.46368  1.0000
  H   H2387     1.0  0.32907  0.51695  0.38585  1.0000
  S   S623      1.0  0.39547  0.69660  0.46466  1.0000
  H   H2388     1.0  0.19643  0.59571  0.28911  1.0000
  C   C1515     1.0  0.35224  0.67319  0.38157  1.0000
  H   H2389     1.0  0.18564  0.68717  0.25776  1.0000
  H   H2390     1.0  0.30569  0.64263  0.31560  1.0000
  C   C1516     1.0  0.22385  0.61515  0.26475  1.0000
  H   H2391     1.0  0.37977  0.67893  0.23735  1.0000
  H   H2392     1.0  0.18863  0.65996  0.29592  1.0000
  S   S624      1.0  0.35804  0.66507  0.33332  1.0000
  S   S625      1.0  0.45243  0.61281  0.30057  1.0000
  C   C1517     1.0  0.35782  0.62409  0.37122  1.0000
  H   H2393     1.0  0.33132  0.63830  0.38856  1.0000
  H   H2394     1.0  0.36258  0.61446  0.38036  1.0000
  H   H2395     1.0  0.35856  0.63521  0.37340  1.0000
  H   H2396     1.0  0.36577  0.62271  0.35978  1.0000
  S   S626      1.0  0.43647  0.49610  0.29923  1.0000
  H   H2397     1.0  0.18799  0.51473  0.44657  1.0000
  C   C1518     1.0  0.48445  0.61405  0.23460  1.0000
  H   H2398     1.0  0.45693  0.54290  0.29398  1.0000
  H   H2399     1.0  0.43180  0.53015  0.27680  1.0000
  C   C1519     1.0  0.30842  0.67927  0.26989  1.0000
  C   C1520     1.0  0.47470  0.55849  0.31451  1.0000
  H   H2400     1.0  0.37454  0.61254  0.46510  1.0000
  H   H2401     1.0  0.46148  0.52392  0.28976  1.0000
  Fe  Fe314     1.0  0.16406  0.57676  0.22805  1.0000
  H   H2402     1.0  0.47288  0.53785  0.33278  1.0000
  H   H2403     1.0  0.41094  0.68142  0.28263  1.0000
  S   S627      1.0  0.47293  0.63846  0.29804  1.0000
  H   H2404     1.0  0.26613  0.69095  0.30218  1.0000
  C   C1521     1.0  0.08942  0.70033  0.45765  1.0000
  S   S628      1.0  0.99979  0.65690  0.46361  1.0000
  C   C1522     1.0  0.45261  0.53511  0.28952  1.0000
  S   S629      1.0  0.46640  0.61227  0.33039  1.0000
  H   H2405     1.0  0.09810  0.69787  0.44686  1.0000
  S   S630      1.0  0.46586  0.57140  0.32713  1.0000
  H   H2406     1.0  0.20942  0.67786  0.26873  1.0000
  H   H2407     1.0  0.21663  0.66285  0.25747  1.0000
  H   H2408     1.0  0.19276  0.67221  0.24662  1.0000
  C   C1523     1.0  0.17469  0.72434  0.37336  1.0000
  H   H2409     1.0  0.47343  0.53281  0.26232  1.0000
  C   C1524     1.0  0.08327  0.67498  0.46363  1.0000
  C   C1525     1.0  0.29551  0.65974  0.26943  1.0000
  H   H2410     1.0  0.31657  0.68709  0.26329  1.0000
  C   C1526     1.0  0.30205  0.49131  0.36568  1.0000
  C   C1527     1.0  0.18134  0.50011  0.24212  1.0000
  H   H2411     1.0  0.17376  0.67379  0.25951  1.0000
  C   C1528     1.0  0.13657  0.50547  0.43039  1.0000
  H   H2412     1.0  0.40091  0.67477  0.27222  1.0000
  N   N147      1.0  0.34855  0.72468  0.36381  1.0000
  H   H2413     1.0  0.17034  0.48303  0.33015  1.0000
  H   H2414     1.0  0.48596  0.51947  0.31518  1.0000
  H   H2415     1.0  0.15565  0.52183  0.23663  1.0000
  H   H2416     1.0  0.03421  0.72305  0.35985  1.0000
  H   H2417     1.0  0.42758  0.55661  0.28152  1.0000
  H   H2418     1.0  0.07672  0.69477  0.43722  1.0000
  H   H2419     1.0  0.05903  0.69084  0.45062  1.0000
  H   H2420     1.0  0.18329  0.67997  0.28641  1.0000
  H   H2421     1.0  0.20902  0.52108  0.42334  1.0000
  H   H2422     1.0  0.47061  0.55166  0.26622  1.0000
  H   H2423     1.0  0.26063  0.66504  0.30518  1.0000
  C   C1529     1.0  0.22214  0.61373  0.25051  1.0000
  H   H2424     1.0  0.19838  0.63935  0.28058  1.0000
  C   C1530     1.0  0.00657  0.58618  0.46916  1.0000
  S   S631      1.0  0.47318  0.49572  0.31207  1.0000
  H   H2425     1.0  0.14719  0.71608  0.38687  1.0000
  H   H2426     1.0  0.17071  0.54514  0.41551  1.0000
  H   H2427     1.0  0.32891  0.68585  0.37955  1.0000
  S   S632      1.0  0.47899  0.49599  0.27484  1.0000
  C   C1531     1.0  0.17853  0.69269  0.31722  1.0000
  H   H2428     1.0  0.31420  0.49297  0.36318  1.0000
  C   C1532     1.0  0.98747  0.69799  0.25011  1.0000
  C   C1533     1.0  0.20913  0.66577  0.26862  1.0000
  S   S633      1.0  0.32880  0.50164  0.41818  1.0000
  H   H2429     1.0  0.45378  0.59096  0.39900  1.0000
  Fe  Fe315     1.0  0.10559  0.72681  0.33457  1.0000
  H   H2430     1.0  0.37571  0.65948  0.38040  1.0000
  S   S634      1.0  0.20756  0.67821  0.30361  1.0000
  C   C1534     1.0  0.47980  0.56422  0.29855  1.0000
  S   S635      1.0  0.09533  0.50126  0.46609  1.0000
  H   H2431     1.0  0.11271  0.64417  0.24331  1.0000
  N   N148      1.0  0.05633  0.71048  0.34881  1.0000
  H   H2432     1.0  0.30857  0.56925  0.45875  1.0000
  H   H2433     1.0  0.48507  0.66152  0.24031  1.0000
  N   N149      1.0  0.18520  0.52262  0.42294  1.0000
  C   C1535     1.0  0.15710  0.70665  0.38303  1.0000
  H   H2434     1.0  0.46166  0.58167  0.25737  1.0000
  H   H2435     1.0  0.17144  0.48534  0.40197  1.0000
  C   C1536     1.0  0.14440  0.49011  0.43544  1.0000
  C   C1537     1.0  0.29569  0.52271  0.46979  1.0000
  H   H2436     1.0  0.16834  0.51792  0.44438  1.0000
  C   C1538     1.0  0.16683  0.49687  0.26883  1.0000
  H   H2437     1.0  0.14510  0.49234  0.25659  1.0000
  H   H2438     1.0  0.04210  0.72145  0.33190  1.0000
  C   C1539     1.0  0.29259  0.50982  0.38242  1.0000
  H   H2439     1.0  0.09487  0.63738  0.25196  1.0000
  C   C1540     1.0  0.47793  0.61295  0.25048  1.0000
  H   H2440     1.0  0.47053  0.58528  0.35841  1.0000
  H   H2441     1.0  0.41068  0.64062  0.30434  1.0000
  S   S636      1.0  0.03740  0.66722  0.46851  1.0000
  C   C1541     1.0  0.15725  0.49122  0.24945  1.0000
  N   N150      1.0  0.26514  0.59043  0.35412  1.0000
  C   C1542     1.0  0.26329  0.57801  0.34774  1.0000
  C   C1543     1.0  0.28077  0.58627  0.35771  1.0000
  C   C1544     1.0  0.25298  0.59208  0.36849  1.0000
  C   C1545     1.0  0.26348  0.60537  0.34250  1.0000
  H   H2442     1.0  0.26435  0.56659  0.35626  1.0000
  H   H2443     1.0  0.27224  0.57644  0.33688  1.0000
  H   H2444     1.0  0.25163  0.58083  0.34488  1.0000
  H   H2445     1.0  0.28250  0.59534  0.36267  1.0000
  H   H2446     1.0  0.28246  0.57499  0.36639  1.0000
  H   H2447     1.0  0.29020  0.58503  0.34709  1.0000
  H   H2448     1.0  0.24104  0.59508  0.36619  1.0000
  H   H2449     1.0  0.25391  0.60144  0.37356  1.0000
  H   H2450     1.0  0.25389  0.58102  0.37754  1.0000
  H   H2451     1.0  0.27223  0.60450  0.33135  1.0000
  H   H2452     1.0  0.26504  0.61503  0.34671  1.0000
  H   H2453     1.0  0.25170  0.60894  0.33979  1.0000
  C   C1546     1.0  0.44745  0.60692  0.37120  1.0000
  C   C1547     1.0  0.34403  0.70194  0.24812  1.0000
  C   C1548     1.0  0.00658  0.71966  0.24144  1.0000
  C   C1549     1.0  0.46807  0.59066  0.25103  1.0000
  H   H2454     1.0  0.12217  0.62430  0.22687  1.0000
  H   H2455     1.0  0.32397  0.63661  0.35838  1.0000
  H   H2456     1.0  0.30446  0.51209  0.38000  1.0000
  H   H2457     1.0  0.16268  0.52607  0.25105  1.0000
  C   C1550     1.0  0.17928  0.52241  0.43974  1.0000
  N   N151      1.0  0.45054  0.58977  0.37706  1.0000
  C   C1551     1.0  0.35139  0.71795  0.35007  1.0000
  H   H2458     1.0  0.02040  0.66068  0.22379  1.0000
  S   S637      1.0  0.08658  0.54684  0.46078  1.0000
  C   C1552     1.0  0.20367  0.60059  0.27831  1.0000
  H   H2459     1.0  0.40728  0.67213  0.31139  1.0000
  H   H2460     1.0  0.31330  0.67164  0.27997  1.0000
  C   C1553     1.0  0.45908  0.58197  0.36400  1.0000
  C   C1554     1.0  0.30124  0.48240  0.39326  1.0000
  H   H2461     1.0  0.13547  0.52557  0.41123  1.0000
  C   C1555     1.0  0.40416  0.65002  0.46662  1.0000
  H   H2462     1.0  0.07863  0.63572  0.23504  1.0000
  H   H2463     1.0  0.06539  0.49126  0.47216  1.0000
  H   H2464     1.0  0.29715  0.68684  0.27457  1.0000
  Fe  Fe316     1.0  0.46849  0.59590  0.31531  1.0000
  H   H2465     1.0  0.36064  0.70360  0.37692  1.0000
  H   H2466     1.0  0.17694  0.69122  0.36189  1.0000
  C   C1556     1.0  0.20202  0.59905  0.26407  1.0000
  H   H2467     1.0  0.27045  0.49292  0.39596  1.0000
  S   S638      1.0  0.35927  0.70279  0.30279  1.0000
  Fe  Fe317     1.0  0.47443  0.61999  0.28561  1.0000
  Fe  Fe318     1.0  0.34541  0.68534  0.31793  1.0000
  H   H2468     1.0  0.18343  0.72925  0.36336  1.0000
  H   H2469     1.0  0.38426  0.65585  0.28631  1.0000
  H   H2470     1.0  0.37646  0.72736  0.26025  1.0000
  C   C1557     1.0  0.19969  0.52862  0.41722  1.0000
  H   H2471     1.0  0.17802  0.50140  0.42536  1.0000
  H   H2472     1.0  0.37260  0.71723  0.36560  1.0000
  H   H2473     1.0  0.19226  0.50634  0.40794  1.0000
  C   C1558     1.0  0.48297  0.60341  0.22701  1.0000
  H   H2474     1.0  0.31915  0.62630  0.38753  1.0000
  C   C1559     1.0  0.13497  0.56368  0.22345  1.0000
  S   S639      1.0  0.15050  0.55821  0.23299  1.0000
  N   N152      1.0  0.19299  0.66402  0.27093  1.0000
  C   C1560     1.0  0.35961  0.69430  0.24808  1.0000
  C   C1561     1.0  0.15689  0.48284  0.42510  1.0000
  Fe  Fe319     1.0  0.35068  0.69981  0.28356  1.0000
  H   H2475     1.0  0.35420  0.61459  0.46604  1.0000
  H   H2476     1.0  0.34377  0.63556  0.34728  1.0000
  H   H2477     1.0  0.43709  0.56358  0.26166  1.0000
  C   C1562     1.0  0.33142  0.62673  0.38667  1.0000
  C   C1563     1.0  0.28898  0.68148  0.30728  1.0000
  H   H2478     1.0  0.00670  0.58434  0.45762  1.0000
  C   C1564     1.0  0.00759  0.61328  0.45829  1.0000
  C   C1565     1.0  0.33881  0.55409  0.45347  1.0000
  C   C1566     1.0  0.19327  0.64774  0.27097  1.0000
  H   H2479     1.0  0.18134  0.64594  0.27252  1.0000
  H   H2480     1.0  0.07786  0.65600  0.22590  1.0000
  C   C1567     1.0  0.43557  0.58479  0.38416  1.0000
  H   H2481     1.0  0.34558  0.59900  0.37831  1.0000
  C   C1568     1.0  0.33598  0.63666  0.35887  1.0000
  H   H2482     1.0  0.31089  0.66855  0.31323  1.0000
  H   H2483     1.0  0.33227  0.68234  0.35282  1.0000
  C   C1569     1.0  0.39669  0.66837  0.31144  1.0000
  H   H2484     1.0  0.44477  0.71722  0.44894  1.0000
  C   C1570     1.0  0.27158  0.66575  0.30698  1.0000
  C   C1571     1.0  0.18362  0.66780  0.28597  1.0000
  C   C1572     1.0  0.35593  0.66891  0.35153  1.0000
  C   C1573     1.0  0.43911  0.55770  0.27356  1.0000
  C   C1574     1.0  0.16186  0.49105  0.40987  1.0000
  H   H2485     1.0  0.33551  0.61773  0.39651  1.0000
  H   H2486     1.0  0.33564  0.64836  0.36055  1.0000
  H   H2487     1.0  0.45229  0.58517  0.35477  1.0000
  C   C1575     1.0  0.33999  0.67967  0.37377  1.0000
  C   C1576     1.0  0.27469  0.68040  0.30533  1.0000
  C   C1577     1.0  0.34103  0.60882  0.36926  1.0000
  H   H2488     1.0  0.32359  0.72864  0.36730  1.0000
  C   C1578     1.0  0.18596  0.67479  0.25812  1.0000
  S   S640      1.0  0.36868  0.69561  0.26202  1.0000
  Fe  Fe320     1.0  0.31782  0.70044  0.30312  1.0000
  C   C1579     1.0  0.39589  0.67834  0.46140  1.0000
  C   C1580     1.0  0.40384  0.66443  0.46954  1.0000
  S   S641      1.0  0.29343  0.69997  0.30284  1.0000
  H   H2489     1.0  0.46143  0.56901  0.36787  1.0000
  N   N153      1.0  0.32784  0.55456  0.46874  1.0000
  H   H2490     1.0  0.06059  0.70966  0.32470  1.0000
  H   H2491     1.0  0.35115  0.55174  0.45446  1.0000
  H   H2492     1.0  0.04685  0.71185  0.37281  1.0000
  C   C1581     1.0  0.17326  0.53283  0.41431  1.0000
  H   H2493     1.0  0.32886  0.60807  0.37008  1.0000
  H   H2494     1.0  0.17299  0.50439  0.27152  1.0000
  H   H2495     1.0  0.01312  0.62301  0.45745  1.0000
  N   N154      1.0  0.16554  0.50153  0.25236  1.0000
  H   H2496     1.0  0.19807  0.49867  0.42614  1.0000
  H   H2497     1.0  0.38159  0.64919  0.30719  1.0000
  C   C1582     1.0  0.36073  0.71630  0.37278  1.0000
  N   N155      1.0  0.16845  0.71302  0.36936  1.0000
  H   H2498     1.0  0.37324  0.66892  0.29885  1.0000
  H   H2499     1.0  0.08486  0.71322  0.45581  1.0000
  H   H2500     1.0  0.15208  0.69815  0.38034  1.0000
  H   H2501     1.0  0.14475  0.51953  0.25645  1.0000
  C   C1583     1.0  0.47460  0.59186  0.23506  1.0000
  H   H2502     1.0  0.07216  0.69534  0.36299  1.0000
  H   H2503     1.0  0.42832  0.58747  0.37544  1.0000
  H   H2504     1.0  0.47806  0.57668  0.29387  1.0000
  N   N156      1.0  0.07666  0.69200  0.46133  1.0000
  H   H2505     1.0  0.29507  0.48403  0.40523  1.0000
  H   H2506     1.0  0.46280  0.57253  0.39342  1.0000
  H   H2507     1.0  0.18996  0.70437  0.35413  1.0000
  N   N157      1.0  0.18773  0.55442  0.30653  1.0000
  C   C1584     1.0  0.18481  0.56353  0.31851  1.0000
  C   C1585     1.0  0.20281  0.55601  0.29551  1.0000
  C   C1586     1.0  0.17498  0.56040  0.29800  1.0000
  C   C1587     1.0  0.18833  0.53775  0.31408  1.0000
  H   H2508     1.0  0.17338  0.56288  0.32682  1.0000
  H   H2509     1.0  0.18484  0.57607  0.31316  1.0000
  H   H2510     1.0  0.19393  0.55911  0.32548  1.0000
  H   H2511     1.0  0.20537  0.54938  0.28625  1.0000
  H   H2512     1.0  0.20285  0.56839  0.28958  1.0000
  H   H2513     1.0  0.21270  0.55164  0.30155  1.0000
  H   H2514     1.0  0.16358  0.55851  0.30577  1.0000
  H   H2515     1.0  0.17731  0.55465  0.28810  1.0000
  H   H2516     1.0  0.17359  0.57319  0.29303  1.0000
  H   H2517     1.0  0.19012  0.53061  0.30541  1.0000
  H   H2518     1.0  0.17741  0.53607  0.32292  1.0000
  H   H2519     1.0  0.19817  0.53279  0.32017  1.0000
  H   H2520     1.0  0.33771  0.54486  0.44829  1.0000
  C   C1588     1.0  0.09261  0.72601  0.30248  1.0000
  S   S642      1.0  0.11696  0.71612  0.37477  1.0000
  N   N158      1.0  0.34157  0.62407  0.37151  1.0000
  H   H2521     1.0  0.32710  0.57870  0.46726  1.0000
  H   H2522     1.0  0.21599  0.60942  0.28970  1.0000
  H   H2523     1.0  0.15555  0.70395  0.32780  1.0000
  C   C1589     1.0  0.08482  0.64390  0.22549  1.0000
  C   C1590     1.0  0.19068  0.67940  0.31853  1.0000
  H   H2524     1.0  0.10454  0.61724  0.23598  1.0000
  C   C1591     1.0  0.21129  0.60564  0.25017  1.0000
  C   C1592     1.0  0.12754  0.55224  0.22342  1.0000
  S   S643      1.0  0.18851  0.58859  0.26410  1.0000
  Fe  Fe321     1.0  0.07339  0.71040  0.22285  1.0000
  H   H2525     1.0  0.22928  0.61882  0.23972  1.0000
  C   C1593     1.0  0.44311  0.53201  0.26875  1.0000
  H   H2526     1.0  0.13109  0.54031  0.22952  1.0000
  H   H2527     1.0  0.20051  0.64437  0.25992  1.0000
  C   C1594     1.0  0.36811  0.66238  0.35936  1.0000
  C   C1595     1.0  0.08142  0.72493  0.28172  1.0000
  C   C1596     1.0  0.46985  0.60114  0.25880  1.0000
  H   H2528     1.0  0.06792  0.72433  0.35536  1.0000
  H   H2529     1.0  0.07798  0.69417  0.34282  1.0000
  H   H2530     1.0  0.46486  0.60017  0.27112  1.0000
  H   H2531     1.0  0.36275  0.71946  0.34198  1.0000
  H   H2532     1.0  0.05097  0.67524  0.43277  1.0000
  H   H2533     1.0  0.18044  0.71885  0.38339  1.0000
  H   H2534     1.0  0.34818  0.60668  0.35773  1.0000
  C   C1597     1.0  0.29996  0.66782  0.31145  1.0000
  H   H2535     1.0  0.00253  0.66467  0.23803  1.0000
  C   C1598     1.0  0.21467  0.60848  0.27866  1.0000
  Fe  Fe322     1.0  0.46237  0.48841  0.29695  1.0000
  S   S644      1.0  0.33846  0.68089  0.29830  1.0000
  C   C1599     1.0  0.08942  0.67205  0.41497  1.0000
  H   H2536     1.0  0.28393  0.66663  0.27441  1.0000
  H   H2537     1.0  0.33654  0.56536  0.44496  1.0000
  H   H2538     1.0  0.16264  0.70047  0.39309  1.0000
  Fe  Fe323     1.0  0.11961  0.49345  0.47015  1.0000
  C   C1600     1.0  0.36626  0.66453  0.37437  1.0000
  H   H2539     1.0  0.38214  0.68848  0.44395  1.0000
  H   H2540     1.0  0.17965  0.70214  0.30705  1.0000
  C   C1601     1.0  0.16488  0.69375  0.32900  1.0000
  H   H2541     1.0  0.09868  0.68823  0.39457  1.0000
  C   C1602     1.0  0.33666  0.70030  0.23733  1.0000
  H   H2542     1.0  0.03824  0.60250  0.45796  1.0000
  N   N159      1.0  0.39805  0.66401  0.29665  1.0000
  H   H2543     1.0  0.07426  0.72293  0.33533  1.0000
  C   C1603     1.0  0.41166  0.65088  0.29439  1.0000
  C   C1604     1.0  0.40014  0.67756  0.28353  1.0000
  C   C1605     1.0  0.38369  0.65923  0.29726  1.0000
  H   H2544     1.0  0.17137  0.66660  0.28817  1.0000
  H   H2545     1.0  0.29835  0.67411  0.23898  1.0000
  H   H2546     1.0  0.35888  0.72098  0.38330  1.0000
  H   H2547     1.0  0.15659  0.49397  0.23698  1.0000
  S   S645      1.0  0.04164  0.63207  0.46261  1.0000
  C   C1606     1.0  0.18137  0.70009  0.36469  1.0000
  N   N160      1.0  0.01506  0.59837  0.46746  1.0000
  S   S646      1.0  0.47277  0.57868  0.22525  1.0000
  H   H2548     1.0  0.18777  0.69393  0.37415  1.0000
  H   H2549     1.0  0.29635  0.49965  0.35642  1.0000
  S   S647      1.0  0.12944  0.72658  0.33664  1.0000
  H   H2550     1.0  0.33248  0.71059  0.37864  1.0000
  H   H2551     1.0  0.32468  0.70639  0.23728  1.0000
  C   C1607     1.0  0.27726  0.49151  0.38411  1.0000
  C   C1608     1.0  0.06772  0.69569  0.35271  1.0000
  C   C1609     1.0  0.34479  0.48282  0.37370  1.0000
  H   H2552     1.0  0.00817  0.64677  0.23127  1.0000
  N   N161      1.0  0.10098  0.64210  0.22691  1.0000
  C   C1610     1.0  0.99388  0.72251  0.23463  1.0000
  H   H2553     1.0  0.27074  0.50015  0.37559  1.0000
  Fe  Fe324     1.0  0.04182  0.72694  0.23889  1.0000
  H   H2554     1.0  0.16873  0.72601  0.34577  1.0000
  C   C1611     1.0  0.00067  0.69468  0.25637  1.0000
  H   H2555     1.0  0.33021  0.72868  0.38392  1.0000
  H   H2556     1.0  0.00330  0.68392  0.26482  1.0000
  H   H2557     1.0  0.03750  0.58237  0.46598  1.0000
  H   H2558     1.0  0.45531  0.71821  0.47075  1.0000
  C   C1612     1.0  0.48701  0.55380  0.28860  1.0000
  H   H2559     1.0  0.11035  0.48021  0.44256  1.0000
  Fe  Fe325     1.0  0.31671  0.65621  0.64833  1.0000
  S   S648      1.0  0.33770  0.64741  0.63094  1.0000
  Fe  Fe326     1.0  0.30853  0.65723  0.68240  1.0000
  Fe  Fe327     1.0  0.28355  0.65748  0.66648  1.0000
  S   S649      1.0  0.26143  0.64867  0.67327  1.0000
  S   S650      1.0  0.30609  0.64056  0.66985  1.0000
  Fe  Fe328     1.0  0.37257  0.60501  0.55690  1.0000
  S   S651      1.0  0.39653  0.58985  0.55166  1.0000
  S   S652      1.0  0.36348  0.62481  0.53849  1.0000
  Fe  Fe329     1.0  0.36462  0.58619  0.59007  1.0000
  S   S653      1.0  0.38772  0.56902  0.58776  1.0000
  S   S654      1.0  0.34461  0.58518  0.61105  1.0000
  Fe  Fe330     1.0  0.39768  0.59026  0.57565  1.0000
  S   S655      1.0  0.41892  0.59416  0.58041  1.0000
  Fe  Fe331     1.0  0.38460  0.57006  0.56406  1.0000
  S   S656      1.0  0.38972  0.54880  0.55425  1.0000
  S   S657      1.0  0.37486  0.60743  0.57972  1.0000
  S   S658      1.0  0.36041  0.58521  0.56753  1.0000
  C   C1613     1.0  0.14866  0.65746  0.60651  1.0000
  S   S659      1.0  0.38065  0.68500  0.54306  1.0000
  Fe  Fe332     1.0  0.46372  0.58770  0.64579  1.0000
  S   S660      1.0  0.44294  0.60619  0.65316  1.0000
  Fe  Fe333     1.0  0.45431  0.56250  0.67363  1.0000
  S   S661      1.0  0.43251  0.57849  0.68356  1.0000
  H   H2560     1.0  0.29071  0.69551  0.72181  1.0000
  Fe  Fe334     1.0  0.42942  0.58759  0.65903  1.0000
  S   S662      1.0  0.40665  0.59138  0.65233  1.0000
  Fe  Fe335     1.0  0.44776  0.59584  0.67713  1.0000
  S   S663      1.0  0.44235  0.61183  0.69366  1.0000
  S   S664      1.0  0.44966  0.56998  0.64969  1.0000
  C   C1614     1.0  0.14511  0.48550  0.56472  1.0000
  Fe  Fe336     1.0  0.32485  0.54821  0.52720  1.0000
  S   S665      1.0  0.31400  0.54562  0.55277  1.0000
  S   S666      1.0  0.33929  0.56610  0.51452  1.0000
  Fe  Fe337     1.0  0.31276  0.52163  0.52444  1.0000
  S   S667      1.0  0.30136  0.51624  0.54978  1.0000
  S   S668      1.0  0.31492  0.50732  0.50739  1.0000
  Fe  Fe338     1.0  0.29331  0.54239  0.54636  1.0000
  S   S669      1.0  0.26857  0.55391  0.55599  1.0000
  Fe  Fe339     1.0  0.32294  0.51992  0.55381  1.0000
  H   H2561     1.0  0.47668  0.71429  0.49111  1.0000
  S   S670      1.0  0.30330  0.54755  0.52061  1.0000
  S   S671      1.0  0.33522  0.52271  0.52864  1.0000
  H   H2562     1.0  0.25653  0.58209  0.60804  1.0000
  S   S672      1.0  0.45395  0.66843  0.50317  1.0000
  H   H2563     1.0  0.40750  0.51147  0.55219  1.0000
  H   H2564     1.0  0.36444  0.48985  0.51836  1.0000
  H   H2565     1.0  0.27004  0.57953  0.58064  1.0000
  C   C1615     1.0  0.17626  0.65622  0.67909  1.0000
  S   S673      1.0  0.15386  0.66046  0.56066  1.0000
  C   C1616     1.0  0.34724  0.54999  0.59568  1.0000
  Fe  Fe340     1.0  0.04451  0.62289  0.48724  1.0000
  S   S674      1.0  0.04635  0.59754  0.49947  1.0000
  Fe  Fe341     1.0  0.04117  0.65526  0.49261  1.0000
  S   S675      1.0  0.04051  0.66954  0.50958  1.0000
  H   H2566     1.0  0.35866  0.55353  0.59093  1.0000
  H   H2567     1.0  0.36806  0.63702  0.47467  1.0000
  Fe  Fe342     1.0  0.22225  0.61665  0.63284  1.0000
  S   S676      1.0  0.20184  0.63014  0.64752  1.0000
  S   S677      1.0  0.24576  0.62287  0.62350  1.0000
  Fe  Fe343     1.0  0.20443  0.59329  0.63306  1.0000
  S   S678      1.0  0.18240  0.60448  0.64782  1.0000
  S   S679      1.0  0.20845  0.57116  0.62487  1.0000
  Fe  Fe344     1.0  0.18773  0.62710  0.63260  1.0000
  S   S680      1.0  0.16793  0.64722  0.62689  1.0000
  Fe  Fe345     1.0  0.19816  0.60660  0.66158  1.0000
  S   S681      1.0  0.20853  0.61574  0.61642  1.0000
  S   S682      1.0  0.21985  0.59326  0.64829  1.0000
  H   H2568     1.0  0.05798  0.70866  0.65593  1.0000
  N   N162      1.0  0.27087  0.62287  0.71581  1.0000
  C   C1617     1.0  0.34369  0.55168  0.57007  1.0000
  Fe  Fe346     1.0  0.11020  0.50392  0.50090  1.0000
  C   C1618     1.0  0.37549  0.49813  0.54137  1.0000
  Fe  Fe347     1.0  0.19926  0.52561  0.55592  1.0000
  S   S683      1.0  0.18589  0.52757  0.58014  1.0000
  S   S684      1.0  0.22465  0.51521  0.54864  1.0000
  Fe  Fe348     1.0  0.17105  0.53959  0.54163  1.0000
  S   S685      1.0  0.15491  0.54314  0.56446  1.0000
  S   S686      1.0  0.16483  0.54436  0.51841  1.0000
  Fe  Fe349     1.0  0.17426  0.55139  0.56835  1.0000
  S   S687      1.0  0.16878  0.57349  0.57728  1.0000
  Fe  Fe350     1.0  0.16787  0.51917  0.57426  1.0000
  S   S688      1.0  0.15545  0.50083  0.59067  1.0000
  S   S689      1.0  0.18924  0.55004  0.54449  1.0000
  S   S690      1.0  0.18235  0.51496  0.55108  1.0000
  H   H2569     1.0  0.99410  0.58947  0.47523  1.0000
  H   H2570     1.0  0.06135  0.70847  0.57237  1.0000
  H   H2571     1.0  0.44150  0.49971  0.55614  1.0000
  H   H2572     1.0  0.24196  0.55054  0.48155  1.0000
  H   H2573     1.0  0.32207  0.71148  0.70592  1.0000
  Fe  Fe351     1.0  0.43055  0.68482  0.50265  1.0000
  C   C1619     1.0  0.41570  0.50240  0.54600  1.0000
  H   H2574     1.0  0.22391  0.54633  0.52384  1.0000
  H   H2575     1.0  0.27009  0.54698  0.49233  1.0000
  C   C1620     1.0  0.13019  0.51565  0.52102  1.0000
  C   C1621     1.0  0.13910  0.52169  0.50658  1.0000
  C   C1622     1.0  0.14972  0.53059  0.50578  1.0000
  C   C1623     1.0  0.15161  0.53323  0.51943  1.0000
  C   C1624     1.0  0.14278  0.52708  0.53385  1.0000
  C   C1625     1.0  0.13197  0.51848  0.53461  1.0000
  H   H2576     1.0  0.13795  0.51938  0.49607  1.0000
  H   H2577     1.0  0.15659  0.53527  0.49461  1.0000
  H   H2578     1.0  0.14410  0.52915  0.54442  1.0000
  H   H2579     1.0  0.12492  0.51405  0.54577  1.0000
  H   H2580     1.0  0.22368  0.59979  0.67859  1.0000
  C   C1626     1.0  0.19727  0.57198  0.61176  1.0000
  C   C1627     1.0  0.18462  0.58446  0.60920  1.0000
  C   C1628     1.0  0.17587  0.58482  0.59866  1.0000
  C   C1629     1.0  0.17991  0.57287  0.59043  1.0000
  C   C1630     1.0  0.19282  0.56062  0.59274  1.0000
  C   C1631     1.0  0.20139  0.56011  0.60347  1.0000
  H   H2581     1.0  0.18140  0.59368  0.61555  1.0000
  H   H2582     1.0  0.16582  0.59425  0.59713  1.0000
  H   H2583     1.0  0.19624  0.55154  0.58625  1.0000
  H   H2584     1.0  0.21126  0.55050  0.60529  1.0000
  C   C1632     1.0  0.05658  0.58374  0.48811  1.0000
  C   C1633     1.0  0.06555  0.55649  0.48615  1.0000
  C   C1634     1.0  0.05661  0.56790  0.49458  1.0000
  H   H2585     1.0  0.22950  0.60305  0.58132  1.0000
  H   H2586     1.0  0.04994  0.56442  0.50627  1.0000
  C   C1635     1.0  0.15681  0.65482  0.57967  1.0000
  C   C1636     1.0  0.16330  0.64878  0.60916  1.0000
  C   C1637     1.0  0.17447  0.64257  0.59722  1.0000
  C   C1638     1.0  0.17125  0.64566  0.58245  1.0000
  H   H2587     1.0  0.18580  0.63594  0.59917  1.0000
  H   H2588     1.0  0.18014  0.64137  0.57305  1.0000
  C   C1639     1.0  0.05798  0.67959  0.52325  1.0000
  H   H2589     1.0  0.04691  0.68575  0.52904  1.0000
  N   N163      1.0  0.35929  0.61633  0.48694  1.0000
  H   H2590     1.0  0.14874  0.49676  0.56244  1.0000
  H   H2591     1.0  0.04715  0.68873  0.59165  1.0000
  H   H2592     1.0  0.10651  0.68899  0.64124  1.0000
  H   H2593     1.0  0.23345  0.51614  0.51342  1.0000
  C   C1640     1.0  0.35356  0.49528  0.56328  1.0000
  H   H2594     1.0  0.21784  0.55201  0.69639  1.0000
  H   H2595     1.0  0.37403  0.59679  0.49911  1.0000
  H   H2596     1.0  0.06567  0.54428  0.49128  1.0000
  H   H2597     1.0  0.38125  0.50541  0.53112  1.0000
  H   H2598     1.0  0.02067  0.58961  0.49008  1.0000
  H   H2599     1.0  0.09763  0.65823  0.50171  1.0000
  H   H2600     1.0  0.40160  0.62562  0.56288  1.0000
  C   C1641     1.0  0.25595  0.54394  0.55330  1.0000
  C   C1642     1.0  0.23987  0.54751  0.55971  1.0000
  C   C1643     1.0  0.23010  0.53876  0.55829  1.0000
  C   C1644     1.0  0.23647  0.52636  0.55061  1.0000
  C   C1645     1.0  0.25243  0.52311  0.54386  1.0000
  C   C1646     1.0  0.26207  0.53206  0.54497  1.0000
  H   H2601     1.0  0.23493  0.55690  0.56588  1.0000
  H   H2602     1.0  0.21772  0.54144  0.56336  1.0000
  H   H2603     1.0  0.25735  0.51372  0.53766  1.0000
  H   H2604     1.0  0.27425  0.52971  0.53936  1.0000
  S   S691      1.0  0.09176  0.70471  0.55030  1.0000
  H   H2605     1.0  0.22029  0.58804  0.59446  1.0000
  H   H2606     1.0  0.14639  0.48526  0.53506  1.0000
  H   H2607     1.0  0.09204  0.68185  0.63706  1.0000
  H   H2608     1.0  0.01855  0.72443  0.57772  1.0000
  C   C1647     1.0  0.23874  0.53909  0.48750  1.0000
  H   H2609     1.0  0.17544  0.64613  0.67497  1.0000
  H   H2610     1.0  0.27561  0.64368  0.69921  1.0000
  Fe  Fe352     1.0  0.09450  0.52252  0.47442  1.0000
  H   H2611     1.0  0.16169  0.49366  0.53575  1.0000
  H   H2612     1.0  0.05184  0.72304  0.55837  1.0000
  H   H2613     1.0  0.46485  0.50626  0.67616  1.0000
  H   H2614     1.0  0.24967  0.53056  0.48984  1.0000
  C   C1648     1.0  0.47865  0.50772  0.65264  1.0000
  N   N164      1.0  0.42309  0.48894  0.55687  1.0000
  S   S692      1.0  0.11246  0.48110  0.49494  1.0000
  H   H2615     1.0  0.34136  0.61644  0.50796  1.0000
  S   S693      1.0  0.29394  0.67183  0.64358  1.0000
  C   C1649     1.0  0.37861  0.55378  0.54012  1.0000
  C   C1650     1.0  0.37180  0.56946  0.53475  1.0000
  C   C1651     1.0  0.36015  0.57331  0.52628  1.0000
  C   C1652     1.0  0.35555  0.56151  0.52286  1.0000
  C   C1653     1.0  0.36324  0.54592  0.52719  1.0000
  C   C1654     1.0  0.37473  0.54204  0.53588  1.0000
  H   H2616     1.0  0.37509  0.57862  0.53759  1.0000
  H   H2617     1.0  0.35419  0.58536  0.52316  1.0000
  H   H2618     1.0  0.36020  0.53684  0.52400  1.0000
  H   H2619     1.0  0.38014  0.52993  0.53985  1.0000
  C   C1655     1.0  0.41541  0.59408  0.60026  1.0000
  C   C1656     1.0  0.40143  0.59094  0.61020  1.0000
  C   C1657     1.0  0.39859  0.59057  0.62613  1.0000
  C   C1658     1.0  0.40991  0.59300  0.63222  1.0000
  C   C1659     1.0  0.42397  0.59609  0.62230  1.0000
  C   C1660     1.0  0.42669  0.59670  0.60629  1.0000
  H   H2620     1.0  0.39288  0.58859  0.60565  1.0000
  H   H2621     1.0  0.38777  0.58803  0.63376  1.0000
  H   H2622     1.0  0.43277  0.59802  0.62693  1.0000
  H   H2623     1.0  0.43757  0.59909  0.59866  1.0000
  C   C1661     1.0  0.36616  0.64259  0.53990  1.0000
  C   C1662     1.0  0.36596  0.64500  0.55437  1.0000
  C   C1663     1.0  0.36931  0.65865  0.55543  1.0000
  C   C1664     1.0  0.37326  0.66978  0.54193  1.0000
  C   C1665     1.0  0.37274  0.66780  0.52748  1.0000
  C   C1666     1.0  0.36906  0.65423  0.52648  1.0000
  H   H2624     1.0  0.36317  0.63640  0.56478  1.0000
  H   H2625     1.0  0.36956  0.66025  0.56662  1.0000
  H   H2626     1.0  0.37552  0.67655  0.51701  1.0000
  H   H2627     1.0  0.36910  0.65252  0.51524  1.0000
  H   H2628     1.0  0.42445  0.50321  0.57140  1.0000
  H   H2629     1.0  0.01188  0.57478  0.47607  1.0000
  H   H2630     1.0  0.35412  0.63884  0.49262  1.0000
  C   C1667     1.0  0.30189  0.51696  0.49514  1.0000
  C   C1668     1.0  0.33970  0.62856  0.62852  1.0000
  C   C1669     1.0  0.35429  0.62097  0.62119  1.0000
  C   C1670     1.0  0.35595  0.60681  0.61723  1.0000
  C   C1671     1.0  0.34301  0.60042  0.61999  1.0000
  C   C1672     1.0  0.32855  0.60742  0.62830  1.0000
  C   C1673     1.0  0.32689  0.62155  0.63261  1.0000
  H   H2631     1.0  0.36430  0.62622  0.61817  1.0000
  H   H2632     1.0  0.36725  0.60098  0.61169  1.0000
  H   H2633     1.0  0.31849  0.60241  0.63065  1.0000
  H   H2634     1.0  0.31557  0.62737  0.63835  1.0000
  C   C1674     1.0  0.25783  0.64090  0.65945  1.0000
  C   C1675     1.0  0.26730  0.64187  0.64442  1.0000
  C   C1676     1.0  0.26372  0.63609  0.63342  1.0000
  C   C1677     1.0  0.25072  0.62934  0.63748  1.0000
  C   C1678     1.0  0.24155  0.62801  0.65265  1.0000
  C   C1679     1.0  0.24507  0.63381  0.66359  1.0000
  H   H2635     1.0  0.27721  0.64725  0.64121  1.0000
  H   H2636     1.0  0.27087  0.63706  0.62173  1.0000
  H   H2637     1.0  0.23177  0.62246  0.65598  1.0000
  H   H2638     1.0  0.27510  0.61912  0.69265  1.0000
  C   C1680     1.0  0.33127  0.53929  0.47957  1.0000
  C   C1681     1.0  0.32962  0.56699  0.47514  1.0000
  C   C1682     1.0  0.35731  0.52753  0.58391  1.0000
  H   H2639     1.0  0.35549  0.52077  0.57642  1.0000
  H   H2640     1.0  0.36873  0.53094  0.57840  1.0000
  H   H2641     1.0  0.32976  0.52812  0.60412  1.0000
  H   H2642     1.0  0.25562  0.64510  0.70927  1.0000
  H   H2643     1.0  0.31954  0.54653  0.59444  1.0000
  H   H2644     1.0  0.33363  0.56189  0.57065  1.0000
  C   C1683     1.0  0.25871  0.58590  0.57741  1.0000
  H   H2645     1.0  0.33805  0.56086  0.59679  1.0000
  S   S694      1.0  0.10429  0.67598  0.51917  1.0000
  C   C1684     1.0  0.21231  0.55144  0.49834  1.0000
  H   H2646     1.0  0.25849  0.59863  0.57426  1.0000
  S   S695      1.0  0.10979  0.66800  0.56105  1.0000
  H   H2647     1.0  0.23572  0.58481  0.61385  1.0000
  C   C1685     1.0  0.04491  0.69518  0.56206  1.0000
  Fe  Fe353     1.0  0.10676  0.68517  0.53867  1.0000
  H   H2648     1.0  0.45469  0.70061  0.50027  1.0000
  C   C1686     1.0  0.36146  0.50469  0.55050  1.0000
  H   H2649     1.0  0.25856  0.58242  0.56673  1.0000
  H   H2650     1.0  0.07149  0.68904  0.71423  1.0000
  H   H2651     1.0  0.05598  0.68891  0.47920  1.0000
  H   H2652     1.0  0.35828  0.51948  0.59538  1.0000
  C   C1687     1.0  0.06501  0.58822  0.47293  1.0000
  H   H2653     1.0  0.42457  0.50814  0.53694  1.0000
  C   C1688     1.0  0.30254  0.72051  0.63471  1.0000
  H   H2654     1.0  0.34556  0.59936  0.50006  1.0000
  C   C1689     1.0  0.41086  0.48179  0.56869  1.0000
  C   C1690     1.0  0.26786  0.64008  0.71069  1.0000
  S   S696      1.0  0.07841  0.68392  0.59462  1.0000
  H   H2655     1.0  0.08980  0.67073  0.47312  1.0000
  H   H2656     1.0  0.03954  0.71217  0.63202  1.0000
  N   N165      1.0  0.10194  0.56246  0.50465  1.0000
  C   C1691     1.0  0.08735  0.56562  0.51651  1.0000
  C   C1692     1.0  0.10161  0.57534  0.49069  1.0000
  C   C1693     1.0  0.10334  0.54760  0.50032  1.0000
  C   C1694     1.0  0.11545  0.56126  0.51110  1.0000
  H   H2657     1.0  0.07692  0.56661  0.51203  1.0000
  H   H2658     1.0  0.08583  0.57681  0.51996  1.0000
  C   C1695     1.0  0.48017  0.53744  0.65419  1.0000
  H   H2659     1.0  0.11238  0.57331  0.48144  1.0000
  H   H2660     1.0  0.09154  0.57652  0.48558  1.0000
  H   H2661     1.0  0.10046  0.58678  0.49349  1.0000
  N   N166      1.0  0.31867  0.71886  0.68244  1.0000
  H   H2662     1.0  0.38317  0.61281  0.48826  1.0000
  H   H2663     1.0  0.09356  0.54819  0.49506  1.0000
  H   H2664     1.0  0.12666  0.55909  0.50241  1.0000
  H   H2665     1.0  0.11621  0.55145  0.52150  1.0000
  H   H2666     1.0  0.11470  0.57217  0.51470  1.0000
  H   H2667     1.0  0.05633  0.68745  0.56406  1.0000
  C   C1696     1.0  0.28906  0.52868  0.49957  1.0000
  H   H2668     1.0  0.01480  0.70914  0.57139  1.0000
  C   C1697     1.0  0.23063  0.59017  0.58498  1.0000
  H   H2669     1.0  0.40224  0.62762  0.53552  1.0000
  S   S697      1.0  0.28510  0.67299  0.68092  1.0000
  H   H2670     1.0  0.28638  0.53094  0.51110  1.0000
  C   C1698     1.0  0.31843  0.71794  0.60906  1.0000
  H   H2671     1.0  0.05408  0.68840  0.62172  1.0000
  H   H2672     1.0  0.18888  0.49079  0.58042  1.0000
  H   H2673     1.0  0.24431  0.60057  0.60130  1.0000
  C   C1699     1.0  0.35832  0.48576  0.51183  1.0000
  C   C1700     1.0  0.20713  0.55815  0.70354  1.0000
  H   H2674     1.0  0.34903  0.49581  0.50793  1.0000
  H   H2675     1.0  0.32407  0.69369  0.68898  1.0000
  C   C1701     1.0  0.08636  0.67350  0.51771  1.0000
  H   H2676     1.0  0.04573  0.72386  0.57866  1.0000
  H   H2677     1.0  0.21355  0.52530  0.52033  1.0000
  H   H2678     1.0  0.08168  0.71605  0.58401  1.0000
  S   S698      1.0  0.02358  0.72226  0.66369  1.0000
  Fe  Fe354     1.0  0.11445  0.71089  0.54877  1.0000
  S   S699      1.0  0.38954  0.71189  0.50171  1.0000
  C   C1702     1.0  0.47889  0.70201  0.49115  1.0000
  S   S700      1.0  0.05270  0.70642  0.69189  1.0000
  H   H2679     1.0  0.45892  0.52678  0.71525  1.0000
  H   H2680     1.0  0.20760  0.64975  0.67734  1.0000
  H   H2681     1.0  0.35445  0.55629  0.56484  1.0000
  S   S701      1.0  0.41833  0.69926  0.52049  1.0000
  H   H2682     1.0  0.16400  0.64703  0.70995  1.0000
  H   H2683     1.0  0.99455  0.63397  0.49278  1.0000
  S   S702      1.0  0.42609  0.70439  0.48222  1.0000
  Fe  Fe355     1.0  0.08802  0.49051  0.49145  1.0000
  C   C1703     1.0  0.21967  0.60039  0.69074  1.0000
  H   H2684     1.0  0.22987  0.58590  0.57501  1.0000
  Fe  Fe356     1.0  0.03753  0.72644  0.67828  1.0000
  C   C1704     1.0  0.03614  0.69691  0.58909  1.0000
  C   C1705     1.0  0.24551  0.58767  0.60391  1.0000
  H   H2685     1.0  0.07290  0.65528  0.49798  1.0000
  H   H2686     1.0  0.19094  0.66079  0.70740  1.0000
  C   C1706     1.0  0.04878  0.71300  0.62162  1.0000
  C   C1707     1.0  0.47172  0.52839  0.66692  1.0000
  Fe  Fe357     1.0  0.09672  0.68810  0.57250  1.0000
  C   C1708     1.0  0.32946  0.53638  0.59264  1.0000
  C   C1709     1.0  0.17731  0.48341  0.62902  1.0000
  S   S703      1.0  0.47006  0.57896  0.66919  1.0000
  C   C1710     1.0  0.14532  0.66028  0.59183  1.0000
  N   N167      1.0  0.32189  0.64071  0.58426  1.0000
  C   C1711     1.0  0.33428  0.64348  0.58996  1.0000
  C   C1712     1.0  0.30949  0.65511  0.58267  1.0000
  C   C1713     1.0  0.31519  0.62786  0.59550  1.0000
  C   C1714     1.0  0.32859  0.63638  0.56896  1.0000
  H   H2687     1.0  0.32955  0.64711  0.60132  1.0000
  H   H2688     1.0  0.33983  0.65290  0.58164  1.0000
  H   H2689     1.0  0.34366  0.63275  0.59172  1.0000
  H   H2690     1.0  0.30418  0.65863  0.59407  1.0000
  H   H2691     1.0  0.31419  0.66506  0.57434  1.0000
  H   H2692     1.0  0.29993  0.65348  0.57837  1.0000
  H   H2693     1.0  0.32422  0.61676  0.59681  1.0000
  H   H2694     1.0  0.30563  0.62558  0.59175  1.0000
  H   H2695     1.0  0.31026  0.63061  0.60726  1.0000
  H   H2696     1.0  0.31966  0.63386  0.56445  1.0000
  H   H2697     1.0  0.33826  0.62576  0.56967  1.0000
  H   H2698     1.0  0.33346  0.64593  0.56007  1.0000
  H   H2699     1.0  0.08601  0.69910  0.67123  1.0000
  S   S704      1.0  0.08496  0.51249  0.49957  1.0000
  H   H2700     1.0  0.03682  0.68749  0.56355  1.0000
  C   C1715     1.0  0.23049  0.59892  0.69962  1.0000
  H   H2701     1.0  0.16413  0.66289  0.68274  1.0000
  C   C1716     1.0  0.05822  0.67033  0.51320  1.0000
  H   H2702     1.0  0.07186  0.68844  0.53310  1.0000
  C   C1717     1.0  0.28742  0.61674  0.71682  1.0000
  C   C1718     1.0  0.46932  0.67832  0.49668  1.0000
  N   N168      1.0  0.34441  0.54140  0.58559  1.0000
  H   H2703     1.0  0.24285  0.59705  0.69434  1.0000
  S   S705      1.0  0.02393  0.64018  0.49722  1.0000
  C   C1719     1.0  0.06544  0.69552  0.47572  1.0000
  C   C1720     1.0  0.08594  0.70405  0.71445  1.0000
  C   C1721     1.0  0.28324  0.53484  0.47402  1.0000
  N   N169      1.0  0.18449  0.65087  0.69205  1.0000
  S   S706      1.0  0.31895  0.64760  0.70350  1.0000
  N   N170      1.0  0.08283  0.70135  0.64826  1.0000
  C   C1722     1.0  0.36345  0.60979  0.47289  1.0000
  C   C1723     1.0  0.09448  0.68684  0.64571  1.0000
  H   H2704     1.0  0.11436  0.54468  0.49163  1.0000
  H   H2705     1.0  0.02030  0.60996  0.48225  1.0000
  Fe  Fe358     1.0  0.02208  0.65033  0.47239  1.0000
  H   H2706     1.0  0.36072  0.72047  0.55542  1.0000
  N   N171      1.0  0.24535  0.58222  0.59020  1.0000
  C   C1724     1.0  0.48651  0.51712  0.63969  1.0000
  C   C1725     1.0  0.45490  0.62529  0.70881  1.0000
  H   H2707     1.0  0.25519  0.62079  0.70318  1.0000
  H   H2708     1.0  0.33045  0.48660  0.53213  1.0000
  C   C1726     1.0  0.35718  0.63353  0.48230  1.0000
  H   H2709     1.0  0.00234  0.60343  0.48975  1.0000
  H   H2710     1.0  0.36799  0.72015  0.53514  1.0000
  H   H2711     1.0  0.43776  0.48450  0.57302  1.0000
  H   H2712     1.0  0.13405  0.66710  0.58982  1.0000
  H   H2713     1.0  0.23790  0.63280  0.67529  1.0000
  N   N172      1.0  0.17386  0.69575  0.58542  1.0000
  C   C1727     1.0  0.16480  0.71069  0.58973  1.0000
  C   C1728     1.0  0.18898  0.69802  0.57486  1.0000
  C   C1729     1.0  0.16496  0.69043  0.57746  1.0000
  C   C1730     1.0  0.17669  0.68382  0.59962  1.0000
  H   H2714     1.0  0.15338  0.70938  0.59780  1.0000
  H   H2715     1.0  0.16228  0.71986  0.57929  1.0000
  H   H2716     1.0  0.17131  0.71527  0.59544  1.0000
  H   H2717     1.0  0.19614  0.68697  0.57140  1.0000
  H   H2718     1.0  0.18727  0.70689  0.56400  1.0000
  H   H2719     1.0  0.19593  0.70225  0.58040  1.0000
  H   H2720     1.0  0.17150  0.67926  0.57390  1.0000
  H   H2721     1.0  0.16249  0.69908  0.56674  1.0000
  H   H2722     1.0  0.15349  0.68862  0.58506  1.0000
  H   H2723     1.0  0.16554  0.68172  0.60783  1.0000
  H   H2724     1.0  0.18340  0.68737  0.60597  1.0000
  H   H2725     1.0  0.18343  0.67236  0.59680  1.0000
  H   H2726     1.0  0.07129  0.69232  0.48566  1.0000
  H   H2727     1.0  0.29442  0.67495  0.70754  1.0000
  H   H2728     1.0  0.18629  0.60454  0.71890  1.0000
  C   C1731     1.0  0.30497  0.51372  0.48039  1.0000
  C   C1732     1.0  0.31610  0.66197  0.71399  1.0000
  H   H2729     1.0  0.19179  0.67241  0.68788  1.0000
  H   H2730     1.0  0.44309  0.48215  0.53909  1.0000
  H   H2731     1.0  0.20298  0.55258  0.50908  1.0000
  H   H2732     1.0  0.32155  0.56761  0.48671  1.0000
  C   C1733     1.0  0.48145  0.61679  0.71256  1.0000
  S   S707      1.0  0.46070  0.53655  0.68292  1.0000
  H   H2733     1.0  0.35655  0.51705  0.54756  1.0000
  S   S708      1.0  0.33464  0.50325  0.57252  1.0000
  H   H2734     1.0  0.24351  0.53757  0.51540  1.0000
  C   C1734     1.0  0.47287  0.60464  0.69687  1.0000
  H   H2735     1.0  0.31482  0.50458  0.47694  1.0000
  H   H2736     1.0  0.36695  0.48271  0.50125  1.0000
  H   H2737     1.0  0.04691  0.70166  0.54967  1.0000
  H   H2738     1.0  0.23520  0.55745  0.50731  1.0000
  H   H2739     1.0  0.30303  0.55798  0.47810  1.0000
  C   C1735     1.0  0.47132  0.51333  0.66633  1.0000
  H   H2740     1.0  0.44346  0.63297  0.71078  1.0000
  C   C1736     1.0  0.48470  0.60608  0.70308  1.0000
  H   H2741     1.0  0.17957  0.49461  0.62949  1.0000
  H   H2742     1.0  0.34585  0.48111  0.54242  1.0000
  C   C1737     1.0  0.04983  0.71582  0.57044  1.0000
  H   H2743     1.0  0.21928  0.51989  0.50182  1.0000
  H   H2744     1.0  0.45839  0.52519  0.62906  1.0000
  H   H2745     1.0  0.05978  0.70817  0.47426  1.0000
  H   H2746     1.0  0.17153  0.48739  0.65826  1.0000
  C   C1738     1.0  0.22310  0.52470  0.50968  1.0000
  N   N173      1.0  0.22667  0.54023  0.50202  1.0000
  H   H2747     1.0  0.40891  0.49870  0.53983  1.0000
  H   H2748     1.0  0.03207  0.70468  0.59758  1.0000
  N   N174      1.0  0.41876  0.63460  0.54352  1.0000
  C   C1739     1.0  0.40918  0.63679  0.53218  1.0000
  C   C1740     1.0  0.40852  0.63482  0.55918  1.0000
  C   C1741     1.0  0.42721  0.64740  0.53885  1.0000
  C   C1742     1.0  0.43009  0.61942  0.54385  1.0000
  H   H2749     1.0  0.41653  0.63647  0.52026  1.0000
  H   H2750     1.0  0.40080  0.64828  0.53142  1.0000
  H   H2751     1.0  0.41541  0.63260  0.56816  1.0000
  H   H2752     1.0  0.40015  0.64631  0.55947  1.0000
  H   H2753     1.0  0.43466  0.64610  0.54707  1.0000
  H   H2754     1.0  0.41896  0.65903  0.53855  1.0000
  H   H2755     1.0  0.43494  0.64772  0.52700  1.0000
  H   H2756     1.0  0.43717  0.61712  0.55268  1.0000
  H   H2757     1.0  0.43826  0.61899  0.53233  1.0000
  C   C1743     1.0  0.48461  0.67013  0.49184  1.0000
  N   N175      1.0  0.14180  0.61966  0.56369  1.0000
  C   C1744     1.0  0.15890  0.61681  0.56181  1.0000
  C   C1745     1.0  0.13377  0.62580  0.57789  1.0000
  C   C1746     1.0  0.13743  0.60481  0.56515  1.0000
  C   C1747     1.0  0.13711  0.63116  0.54993  1.0000
  H   H2758     1.0  0.16534  0.61209  0.55126  1.0000
  H   H2759     1.0  0.16286  0.60815  0.57192  1.0000
  H   H2760     1.0  0.16263  0.62773  0.56076  1.0000
  H   H2761     1.0  0.12086  0.62783  0.57983  1.0000
  H   H2762     1.0  0.13739  0.61760  0.58843  1.0000
  H   H2763     1.0  0.13651  0.63715  0.57708  1.0000
  H   H2764     1.0  0.12472  0.60659  0.56591  1.0000
  H   H2765     1.0  0.14021  0.59614  0.57582  1.0000
  H   H2766     1.0  0.14394  0.59933  0.55507  1.0000
  H   H2767     1.0  0.14047  0.64242  0.54837  1.0000
  H   H2768     1.0  0.12424  0.63386  0.55102  1.0000
  H   H2769     1.0  0.14281  0.62682  0.53903  1.0000
  H   H2770     1.0  0.02734  0.68975  0.59150  1.0000
  C   C1748     1.0  0.08326  0.71310  0.63340  1.0000
  H   H2771     1.0  0.08136  0.70848  0.62423  1.0000
  H   H2772     1.0  0.33023  0.52961  0.47500  1.0000
  H   H2773     1.0  0.32505  0.71062  0.60088  1.0000
  C   C1749     1.0  0.08645  0.70758  0.65978  1.0000
  C   C1750     1.0  0.16238  0.72684  0.54575  1.0000
  C   C1751     1.0  0.06703  0.71117  0.69806  1.0000
  C   C1752     1.0  0.01455  0.60042  0.48305  1.0000
  C   C1753     1.0  0.31114  0.71112  0.62411  1.0000
  Fe  Fe359     1.0  0.41194  0.71813  0.50027  1.0000
  H   H2774     1.0  0.19570  0.53296  0.72118  1.0000
  H   H2775     1.0  0.08719  0.55610  0.52720  1.0000
  H   H2776     1.0  0.06617  0.68948  0.66569  1.0000
  C   C1754     1.0  0.06409  0.72856  0.60014  1.0000
  H   H2777     1.0  0.47528  0.59605  0.68996  1.0000
  C   C1755     1.0  0.43208  0.49435  0.56468  1.0000
  S   S709      1.0  0.06191  0.63699  0.48474  1.0000
  C   C1756     1.0  0.05700  0.69958  0.61578  1.0000
  C   C1757     1.0  0.07118  0.72562  0.69168  1.0000
  C   C1758     1.0  0.26753  0.61619  0.70444  1.0000
  H   H2778     1.0  0.38081  0.72087  0.54641  1.0000
  H   H2779     1.0  0.13327  0.48833  0.56224  1.0000
  N   N176      1.0  0.44863  0.54720  0.61538  1.0000
  C   C1759     1.0  0.43517  0.55065  0.62830  1.0000
  C   C1760     1.0  0.44360  0.55319  0.60042  1.0000
  C   C1761     1.0  0.45477  0.53011  0.61772  1.0000
  C   C1762     1.0  0.46099  0.55487  0.61511  1.0000
  H   H2780     1.0  0.43037  0.56344  0.62705  1.0000
  H   H2781     1.0  0.43857  0.54618  0.63978  1.0000
  H   H2782     1.0  0.42552  0.54523  0.62877  1.0000
  H   H2783     1.0  0.45344  0.55057  0.59046  1.0000
  H   H2784     1.0  0.43402  0.54796  0.60029  1.0000
  H   H2785     1.0  0.43918  0.56610  0.59818  1.0000
  H   H2786     1.0  0.46528  0.52704  0.60847  1.0000
  H   H2787     1.0  0.44591  0.52392  0.61765  1.0000
  H   H2788     1.0  0.20042  0.63237  0.68170  1.0000
  H   H2789     1.0  0.47149  0.55226  0.60574  1.0000
  H   H2790     1.0  0.46489  0.55075  0.62629  1.0000
  H   H2791     1.0  0.45684  0.56781  0.61329  1.0000
  H   H2792     1.0  0.23656  0.56191  0.60392  1.0000
  H   H2793     1.0  0.02501  0.72324  0.55758  1.0000
  C   C1763     1.0  0.27971  0.53761  0.48903  1.0000
  H   H2794     1.0  0.18246  0.66387  0.66893  1.0000
  C   C1764     1.0  0.07461  0.70028  0.70928  1.0000
  H   H2795     1.0  0.21458  0.56328  0.49251  1.0000
  S   S710      1.0  0.10318  0.72444  0.71477  1.0000
  C   C1765     1.0  0.36868  0.72528  0.54456  1.0000
  C   C1766     1.0  0.02357  0.71615  0.56974  1.0000
  C   C1767     1.0  0.34459  0.61224  0.49694  1.0000
  C   C1768     1.0  0.18519  0.66450  0.69732  1.0000
  C   C1769     1.0  0.19861  0.60302  0.71344  1.0000
  N   N177      1.0  0.20616  0.55166  0.72039  1.0000
  H   H2796     1.0  0.09441  0.67773  0.65673  1.0000
  H   H2797     1.0  0.99072  0.71597  0.66705  1.0000
  C   C1770     1.0  0.14809  0.72532  0.54414  1.0000
  C   C1771     1.0  0.37197  0.60977  0.49556  1.0000
  C   C1772     1.0  0.46658  0.62651  0.71526  1.0000
  Fe  Fe360     1.0  0.13091  0.67712  0.55826  1.0000
  C   C1773     1.0  0.33512  0.72000  0.67569  1.0000
  H   H2798     1.0  0.06406  0.69281  0.64603  1.0000
  H   H2799     1.0  0.24658  0.56060  0.58437  1.0000
  C   C1774     1.0  0.08656  0.66417  0.50779  1.0000
  Fe  Fe361     1.0  0.40418  0.69623  0.48545  1.0000
  C   C1775     1.0  0.07256  0.66247  0.50566  1.0000
  H   H2800     1.0  0.30215  0.71947  0.70440  1.0000
  Fe  Fe362     1.0  0.29749  0.68595  0.65835  1.0000
  H   H2801     1.0  0.34170  0.56497  0.47678  1.0000
  H   H2802     1.0  0.31220  0.69860  0.62748  1.0000
  H   H2803     1.0  0.17464  0.63046  0.70147  1.0000
  H   H2804     1.0  0.48138  0.51099  0.69966  1.0000
  H   H2805     1.0  0.32678  0.53029  0.58505  1.0000
  C   C1776     1.0  0.20375  0.60208  0.69780  1.0000
  H   H2806     1.0  0.23474  0.53523  0.47907  1.0000
  S   S711      1.0  0.12902  0.69296  0.53503  1.0000
  S   S712      1.0  0.32113  0.67153  0.66117  1.0000
  H   H2807     1.0  0.07784  0.71853  0.66189  1.0000
  H   H2808     1.0  0.48070  0.54899  0.65465  1.0000
  H   H2809     1.0  0.33473  0.61747  0.49087  1.0000
  H   H2810     1.0  0.13996  0.66218  0.61578  1.0000
  H   H2811     1.0  0.34741  0.54275  0.60764  1.0000
  Fe  Fe363     1.0  0.39704  0.69180  0.52045  1.0000
  N   N178      1.0  0.36631  0.62365  0.66488  1.0000
  C   C1777     1.0  0.37612  0.61906  0.67648  1.0000
  C   C1778     1.0  0.35179  0.63481  0.67010  1.0000
  C   C1779     1.0  0.36235  0.60964  0.66325  1.0000
  C   C1780     1.0  0.37499  0.63108  0.64966  1.0000
  H   H2812     1.0  0.36997  0.61335  0.68809  1.0000
  H   H2813     1.0  0.37937  0.62935  0.67795  1.0000
  H   H2814     1.0  0.38720  0.61065  0.67291  1.0000
  H   H2815     1.0  0.34407  0.63840  0.66167  1.0000
  H   H2816     1.0  0.34498  0.62965  0.68161  1.0000
  H   H2817     1.0  0.35427  0.64562  0.67130  1.0000
  H   H2818     1.0  0.35494  0.61273  0.65458  1.0000
  H   H2819     1.0  0.35587  0.60365  0.67450  1.0000
  H   H2820     1.0  0.37304  0.60101  0.65922  1.0000
  H   H2821     1.0  0.36785  0.63488  0.64068  1.0000
  H   H2822     1.0  0.38591  0.62285  0.64528  1.0000
  H   H2823     1.0  0.37837  0.64158  0.65044  1.0000
  C   C1781     1.0  0.23256  0.54568  0.51259  1.0000
  H   H2824     1.0  0.07401  0.72391  0.63469  1.0000
  S   S713      1.0  0.11823  0.69566  0.57186  1.0000
  H   H2825     1.0  0.20680  0.63703  0.69636  1.0000
  C   C1782     1.0  0.45789  0.61411  0.69993  1.0000
  H   H2826     1.0  0.46259  0.48577  0.71347  1.0000
  C   C1783     1.0  0.08998  0.71857  0.70806  1.0000
  C   C1784     1.0  0.07204  0.68111  0.52558  1.0000
  H   H2827     1.0  0.14743  0.71502  0.54093  1.0000
  C   C1785     1.0  0.07252  0.71513  0.59449  1.0000
  S   S714      1.0  0.18994  0.60280  0.68757  1.0000
  C   C1786     1.0  0.06709  0.69790  0.65420  1.0000
  H   H2828     1.0  0.25747  0.55873  0.59848  1.0000
  C   C1787     1.0  0.48329  0.50257  0.71074  1.0000
  C   C1788     1.0  0.24655  0.56513  0.59445  1.0000
  H   H2829     1.0  0.34327  0.53659  0.48161  1.0000
  H   H2830     1.0  0.09471  0.71658  0.62894  1.0000
  S   S715      1.0  0.29320  0.71219  0.65354  1.0000
  H   H2831     1.0  0.36919  0.61437  0.50632  1.0000
  H   H2832     1.0  0.34266  0.54527  0.56182  1.0000
  H   H2833     1.0  0.30440  0.70232  0.68662  1.0000
  H   H2834     1.0  0.26932  0.60323  0.70809  1.0000
  C   C1789     1.0  0.06886  0.70065  0.60220  1.0000
  S   S716      1.0  0.48046  0.58998  0.62248  1.0000
  H   H2835     1.0  0.47790  0.49631  0.65200  1.0000
  C   C1790     1.0  0.46646  0.69428  0.49633  1.0000
  H   H2836     1.0  0.42404  0.60957  0.54700  1.0000
  S   S717      1.0  0.40979  0.67539  0.50450  1.0000
  H   H2837     1.0  0.17270  0.71770  0.54371  1.0000
  H   H2838     1.0  0.32298  0.53908  0.49109  1.0000
  C   C1791     1.0  0.05228  0.72752  0.61375  1.0000
  C   C1792     1.0  0.16822  0.48257  0.59418  1.0000
  C   C1793     1.0  0.30303  0.67437  0.71379  1.0000
  H   H2839     1.0  0.09826  0.71027  0.65583  1.0000
  C   C1794     1.0  0.20053  0.64215  0.68666  1.0000
  H   H2840     1.0  0.36502  0.59684  0.47594  1.0000
  H   H2841     1.0  0.20748  0.54761  0.49049  1.0000
  H   H2842     1.0  0.19685  0.55721  0.69988  1.0000
  C   C1795     1.0  0.17592  0.64060  0.70514  1.0000
  S   S718      1.0  0.11697  0.50426  0.52265  1.0000
  H   H2843     1.0  0.21670  0.52817  0.71725  1.0000
  H   H2844     1.0  0.26999  0.64560  0.71908  1.0000
  N   N179      1.0  0.03860  0.70601  0.57283  1.0000
  H   H2845     1.0  0.20745  0.57074  0.70040  1.0000
  H   H2846     1.0  0.10320  0.53766  0.51064  1.0000
  S   S719      1.0  0.11963  0.51555  0.47632  1.0000
  H   H2847     1.0  0.29541  0.61986  0.70531  1.0000
  H   H2848     1.0  0.27920  0.72914  0.59870  1.0000
  H   H2849     1.0  0.17327  0.67149  0.70127  1.0000
  C   C1796     1.0  0.38180  0.48212  0.54521  1.0000
  H   H2850     1.0  0.16513  0.48589  0.62746  1.0000
  H   H2851     1.0  0.34778  0.63893  0.47567  1.0000
  C   C1797     1.0  0.31439  0.72059  0.69878  1.0000
  C   C1798     1.0  0.31677  0.70345  0.68196  1.0000
  H   H2852     1.0  0.32008  0.70173  0.66980  1.0000
  H   H2853     1.0  0.18205  0.63588  0.71494  1.0000
  H   H2854     1.0  0.17598  0.48194  0.55765  1.0000
  H   H2855     1.0  0.40254  0.49031  0.57544  1.0000
  H   H2856     1.0  0.45488  0.50592  0.70556  1.0000
  C   C1799     1.0  0.08284  0.72913  0.69644  1.0000
  H   H2857     1.0  0.23097  0.54753  0.71818  1.0000
  H   H2858     1.0  0.33874  0.71876  0.66335  1.0000
  C   C1800     1.0  0.22531  0.59927  0.71547  1.0000
  H   H2859     1.0  0.40995  0.66476  0.47789  1.0000
  H   H2860     1.0  0.34316  0.71071  0.68231  1.0000
  H   H2861     1.0  0.48386  0.60786  0.64252  1.0000
  C   C1801     1.0  0.45755  0.49749  0.71639  1.0000
  H   H2862     1.0  0.29011  0.60378  0.72070  1.0000
  C   C1802     1.0  0.30091  0.68599  0.72192  1.0000
  H   H2863     1.0  0.41042  0.63930  0.47288  1.0000
  C   C1803     1.0  0.06160  0.48042  0.47486  1.0000
  C   C1804     1.0  0.15780  0.48248  0.53849  1.0000
  C   C1805     1.0  0.18422  0.48082  0.58763  1.0000
  C   C1806     1.0  0.20934  0.60193  0.72214  1.0000
  H   H2864     1.0  0.14403  0.48031  0.57740  1.0000
  H   H2865     1.0  0.48684  0.65778  0.49210  1.0000
  H   H2866     1.0  0.46413  0.63512  0.72218  1.0000
  N   N180      1.0  0.40643  0.71242  0.74713  1.0000
  H   H2867     1.0  0.11318  0.70672  0.95098  1.0000
  S   S720      1.0  0.45186  0.51367  0.87436  1.0000
  S   S721      1.0  0.45374  0.58467  0.78892  1.0000
  C   C1807     1.0  0.43739  0.50270  0.88074  1.0000
  H   H2868     1.0  0.03247  0.64584  0.93545  1.0000
  S   S722      1.0  0.36012  0.69805  0.77246  1.0000
  H   H2869     1.0  0.11992  0.49092  0.79591  1.0000
  Fe  Fe364     1.0  0.33481  0.69713  0.78175  1.0000
  S   S723      1.0  0.32141  0.69562  0.80659  1.0000
  H   H2870     1.0  0.14262  0.67005  0.95862  1.0000
  S   S724      1.0  0.33583  0.67900  0.76904  1.0000
  H   H2871     1.0  0.11556  0.70278  0.84898  1.0000
  H   H2872     1.0  0.18912  0.61065  0.80769  1.0000
  C   C1808     1.0  0.32701  0.66116  0.72246  1.0000
  H   H2873     1.0  0.39053  0.49599  0.93729  1.0000
  H   H2874     1.0  0.43835  0.58519  0.74845  1.0000
  H   H2875     1.0  0.41510  0.62511  0.73648  1.0000
  C   C1809     1.0  0.04229  0.64144  0.92624  1.0000
  H   H2876     1.0  0.24821  0.51858  0.78654  1.0000
  H   H2877     1.0  0.12390  0.66319  0.81999  1.0000
  H   H2878     1.0  0.48414  0.57735  0.80850  1.0000
  H   H2879     1.0  0.29726  0.53982  0.86950  1.0000
  C   C1810     1.0  0.05656  0.64683  0.89951  1.0000
  H   H2880     1.0  0.03716  0.67262  0.92271  1.0000
  S   S725      1.0  0.44159  0.66118  0.77072  1.0000
  H   H2881     1.0  0.15797  0.67358  0.78905  1.0000
  H   H2882     1.0  0.12418  0.70480  0.93178  1.0000
  S   S726      1.0  0.45845  0.62185  0.75626  1.0000
  Fe  Fe365     1.0  0.27710  0.71834  0.90236  1.0000
  Fe  Fe366     1.0  0.11053  0.68656  0.76632  1.0000
  S   S727      1.0  0.11781  0.68194  0.74218  1.0000
  S   S728      1.0  0.09643  0.67175  0.78570  1.0000
  Fe  Fe367     1.0  0.12861  0.71188  0.75830  1.0000
  H   H2883     1.0  0.14665  0.48784  0.75742  1.0000
  H   H2884     1.0  0.41299  0.60660  0.77880  1.0000
  H   H2885     1.0  0.28263  0.48501  0.78429  1.0000
  C   C1811     1.0  0.47148  0.49095  0.73701  1.0000
  Fe  Fe368     1.0  0.14146  0.68331  0.74357  1.0000
  S   S729      1.0  0.16350  0.66649  0.73512  1.0000
  S   S730      1.0  0.10383  0.71264  0.75862  1.0000
  S   S731      1.0  0.13454  0.68613  0.76824  1.0000
  Fe  Fe369     1.0  0.10397  0.66521  0.86469  1.0000
  S   S732      1.0  0.11105  0.64057  0.86125  1.0000
  S   S733      1.0  0.09126  0.68650  0.85042  1.0000
  Fe  Fe370     1.0  0.12289  0.65788  0.88968  1.0000
  S   S734      1.0  0.12980  0.63242  0.88931  1.0000
  Fe  Fe371     1.0  0.13508  0.64042  0.86336  1.0000
  S   S735      1.0  0.16068  0.63411  0.85173  1.0000
  Fe  Fe372     1.0  0.10534  0.63502  0.88753  1.0000
  S   S736      1.0  0.09174  0.61651  0.90020  1.0000
  S   S737      1.0  0.12823  0.66574  0.86383  1.0000
  S   S738      1.0  0.09748  0.65981  0.89079  1.0000
  H   H2886     1.0  0.30071  0.49056  0.87960  1.0000
  Fe  Fe373     1.0  0.26519  0.63810  0.86543  1.0000
  S   S739      1.0  0.28602  0.61955  0.87108  1.0000
  S   S740      1.0  0.25153  0.65681  0.87871  1.0000
  Fe  Fe374     1.0  0.26497  0.62665  0.83748  1.0000
  S   S741      1.0  0.28585  0.60706  0.84033  1.0000
  S   S742      1.0  0.25296  0.63288  0.81757  1.0000
  Fe  Fe375     1.0  0.27469  0.60332  0.86583  1.0000
  S   S743      1.0  0.27525  0.57938  0.88145  1.0000
  Fe  Fe376     1.0  0.29563  0.62454  0.84533  1.0000
  S   S744      1.0  0.32083  0.62482  0.83489  1.0000
  S   S745      1.0  0.25272  0.62139  0.86261  1.0000
  S   S746      1.0  0.27583  0.64469  0.84001  1.0000
  Fe  Fe377     1.0  0.34889  0.51697  0.89222  1.0000
  S   S747      1.0  0.32999  0.50648  0.90999  1.0000
  S   S748      1.0  0.34482  0.54046  0.87578  1.0000
  C   C1812     1.0  0.31201  0.68543  0.73004  1.0000
  S   S749      1.0  0.20691  0.71322  0.86006  1.0000
  Fe  Fe378     1.0  0.34741  0.49786  0.92533  1.0000
  H   H2887     1.0  0.28465  0.68636  0.79095  1.0000
  S   S750      1.0  0.36542  0.51026  0.90831  1.0000
  H   H2888     1.0  0.28925  0.67709  0.76683  1.0000
  S   S751      1.0  0.32613  0.71749  0.76374  1.0000
  H   H2889     1.0  0.44464  0.59673  0.75740  1.0000
  C   C1813     1.0  0.29639  0.50212  0.87232  1.0000
  C   C1814     1.0  0.40031  0.70446  0.73886  1.0000
  H   H2890     1.0  0.14220  0.63782  0.82683  1.0000
  C   C1815     1.0  0.41376  0.48575  0.88969  1.0000
  N   N181      1.0  0.10899  0.71382  0.86847  1.0000
  H   H2891     1.0  0.39771  0.50804  0.89025  1.0000
  Fe  Fe379     1.0  0.47503  0.50243  0.86099  1.0000
  S   S752      1.0  0.37996  0.66142  0.75239  1.0000
  Fe  Fe380     1.0  0.19777  0.58687  0.77689  1.0000
  S   S753      1.0  0.21835  0.59778  0.77127  1.0000
  S   S754      1.0  0.17401  0.60197  0.78385  1.0000
  Fe  Fe381     1.0  0.21782  0.55498  0.77197  1.0000
  S   S755      1.0  0.23993  0.56358  0.76605  1.0000
  S   S756      1.0  0.22282  0.52973  0.77060  1.0000
  Fe  Fe382     1.0  0.22884  0.57544  0.78606  1.0000
  S   S757      1.0  0.24082  0.57297  0.80522  1.0000
  Fe  Fe383     1.0  0.22718  0.58489  0.75185  1.0000
  H   H2892     1.0  0.41855  0.52294  0.88271  1.0000
  S   S758      1.0  0.20761  0.56524  0.79320  1.0000
  S   S759      1.0  0.20574  0.57546  0.75635  1.0000
  Fe  Fe384     1.0  0.46611  0.60433  0.77669  1.0000
  Fe  Fe385     1.0  0.46035  0.63956  0.76791  1.0000
  H   H2893     1.0  0.14640  0.63540  0.80712  1.0000
  Fe  Fe386     1.0  0.48398  0.62041  0.74606  1.0000
  H   H2894     1.0  0.43845  0.50491  0.83667  1.0000
  S   S760      1.0  0.29005  0.69573  0.89485  1.0000
  H   H2895     1.0  0.21948  0.54868  0.73742  1.0000
  H   H2896     1.0  0.05757  0.65519  0.88800  1.0000
  H   H2897     1.0  0.29063  0.67308  0.80794  1.0000
  N   N182      1.0  0.30096  0.51477  0.87599  1.0000
  C   C1816     1.0  0.26030  0.49789  0.76802  1.0000
  C   C1817     1.0  0.46417  0.55709  0.80825  1.0000
  C   C1818     1.0  0.09814  0.70373  0.87816  1.0000
  H   H2898     1.0  0.47952  0.49423  0.74207  1.0000
  N   N183      1.0  0.14835  0.65762  0.80925  1.0000
  H   H2899     1.0  0.10835  0.68234  0.97140  1.0000
  S   S761      1.0  0.16365  0.71344  0.86438  1.0000
  N   N184      1.0  0.46845  0.50223  0.72251  1.0000
  H   H2900     1.0  0.44631  0.49682  0.72503  1.0000
  N   N185      1.0  0.42090  0.60519  0.75467  1.0000
  C   C1819     1.0  0.42523  0.61562  0.73937  1.0000
  S   S762      1.0  0.14960  0.70314  0.83274  1.0000
  C   C1820     1.0  0.29777  0.66665  0.77148  1.0000
  C   C1821     1.0  0.21509  0.72573  0.86530  1.0000
  H   H2901     1.0  0.46944  0.52196  0.73039  1.0000
  S   S763      1.0  0.47704  0.50195  0.83617  1.0000
  C   C1822     1.0  0.42905  0.49841  0.84304  1.0000
  H   H2902     1.0  0.48443  0.57188  0.77241  1.0000
  C   C1823     1.0  0.34941  0.50079  0.96311  1.0000
  C   C1824     1.0  0.28997  0.71321  0.85256  1.0000
  H   H2903     1.0  0.30946  0.66956  0.76692  1.0000
  H   H2904     1.0  0.23296  0.49921  0.79014  1.0000
  H   H2905     1.0  0.39656  0.70016  0.76991  1.0000
  H   H2906     1.0  0.12671  0.49854  0.76024  1.0000
  H   H2907     1.0  0.33715  0.65157  0.72266  1.0000
  H   H2908     1.0  0.02926  0.66648  0.89507  1.0000
  H   H2909     1.0  0.18467  0.71614  0.92991  1.0000
  C   C1825     1.0  0.20604  0.53486  0.72395  1.0000
  C   C1826     1.0  0.28188  0.71797  0.82843  1.0000
  C   C1827     1.0  0.26670  0.70565  0.85255  1.0000
  Fe  Fe387     1.0  0.04905  0.67225  0.97129  1.0000
  C   C1828     1.0  0.98980  0.66747  0.95200  1.0000
  H   H2910     1.0  0.40742  0.70436  0.72683  1.0000
  C   C1829     1.0  0.46739  0.56733  0.79377  1.0000
  H   H2911     1.0  0.29776  0.72162  0.84719  1.0000
  C   C1830     1.0  0.46146  0.51795  0.72590  1.0000
  H   H2912     1.0  0.42760  0.49769  0.85565  1.0000
  H   H2913     1.0  0.08227  0.71201  0.95782  1.0000
  C   C1831     1.0  0.40779  0.59870  0.75468  1.0000
  H   H2914     1.0  0.29790  0.53070  0.85427  1.0000
  H   H2915     1.0  0.05312  0.63819  0.93071  1.0000
  H   H2916     1.0  0.46049  0.49021  0.74607  1.0000
  H   H2917     1.0  0.43464  0.62124  0.73916  1.0000
  H   H2918     1.0  0.16989  0.60933  0.83327  1.0000
  C   C1832     1.0  0.17784  0.59854  0.83816  1.0000
  H   H2919     1.0  0.15534  0.65642  0.78512  1.0000
  H   H2920     1.0  0.20694  0.48702  0.76137  1.0000
  C   C1833     1.0  0.18764  0.50683  0.76338  1.0000
  C   C1834     1.0  0.18276  0.52207  0.76603  1.0000
  C   C1835     1.0  0.19336  0.52924  0.76853  1.0000
  C   C1836     1.0  0.20887  0.52120  0.76822  1.0000
  C   C1837     1.0  0.21368  0.50598  0.76560  1.0000
  C   C1838     1.0  0.43425  0.48424  0.82283  1.0000
  H   H2921     1.0  0.17076  0.52829  0.76622  1.0000
  H   H2922     1.0  0.18953  0.54092  0.77072  1.0000
  H   H2923     1.0  0.22565  0.49968  0.76528  1.0000
  N   N186      1.0  0.25808  0.49454  0.78515  1.0000
  H   H2924     1.0  0.19649  0.72034  0.94017  1.0000
  H   H2925     1.0  0.23072  0.70691  0.87724  1.0000
  H   H2926     1.0  0.27833  0.64799  0.78998  1.0000
  S   S764      1.0  0.15361  0.71476  0.94984  1.0000
  H   H2927     1.0  0.19207  0.58989  0.81129  1.0000
  H   H2928     1.0  0.12404  0.70674  0.88474  1.0000
  H   H2929     1.0  0.41795  0.50556  0.83975  1.0000
  H   H2930     1.0  0.21141  0.61197  0.82612  1.0000
  H   H2931     1.0  0.26217  0.70523  0.86523  1.0000
  H   H2932     1.0  0.28623  0.71313  0.86522  1.0000
  C   C1839     1.0  0.42261  0.70417  0.74826  1.0000
  H   H2933     1.0  0.40889  0.48073  0.84616  1.0000
  C   C1840     1.0  0.43446  0.59227  0.75752  1.0000
  C   C1841     1.0  0.36018  0.51041  0.95667  1.0000
  H   H2934     1.0  0.30497  0.67928  0.79117  1.0000
  H   H2935     1.0  0.36264  0.51523  0.94426  1.0000
  H   H2936     1.0  0.45281  0.55933  0.81599  1.0000
  C   C1842     1.0  0.26238  0.66751  0.88310  1.0000
  C   C1843     1.0  0.25452  0.67924  0.89145  1.0000
  C   C1844     1.0  0.26291  0.68798  0.89511  1.0000
  C   C1845     1.0  0.27921  0.68497  0.89048  1.0000
  C   C1846     1.0  0.28706  0.67328  0.88205  1.0000
  C   C1847     1.0  0.27866  0.66459  0.87832  1.0000
  H   H2937     1.0  0.24194  0.68149  0.89523  1.0000
  H   H2938     1.0  0.25678  0.69686  0.90169  1.0000
  H   H2939     1.0  0.29967  0.67091  0.87844  1.0000
  H   H2940     1.0  0.28479  0.65553  0.87191  1.0000
  C   C1848     1.0  0.24939  0.61633  0.81417  1.0000
  C   C1849     1.0  0.24315  0.61771  0.80140  1.0000
  C   C1850     1.0  0.24056  0.60446  0.79843  1.0000
  C   C1851     1.0  0.24416  0.58981  0.80829  1.0000
  C   C1852     1.0  0.25021  0.58851  0.82116  1.0000
  C   C1853     1.0  0.25280  0.60173  0.82411  1.0000
  H   H2941     1.0  0.24048  0.62901  0.79370  1.0000
  H   H2942     1.0  0.23598  0.60556  0.78845  1.0000
  H   H2943     1.0  0.25295  0.57722  0.82885  1.0000
  H   H2944     1.0  0.25749  0.60059  0.83407  1.0000
  C   C1854     1.0  0.29435  0.56799  0.87975  1.0000
  C   C1855     1.0  0.30510  0.56960  0.86545  1.0000
  C   C1856     1.0  0.32044  0.56071  0.86423  1.0000
  C   C1857     1.0  0.32520  0.55039  0.87737  1.0000
  C   C1858     1.0  0.31440  0.54851  0.89163  1.0000
  C   C1859     1.0  0.29894  0.55721  0.89278  1.0000
  H   H2945     1.0  0.30157  0.57758  0.85527  1.0000
  H   H2946     1.0  0.32864  0.56192  0.85308  1.0000
  H   H2947     1.0  0.31803  0.54070  0.90187  1.0000
  H   H2948     1.0  0.29063  0.55594  0.90387  1.0000
  H   H2949     1.0  0.17595  0.59821  0.85079  1.0000
  C   C1860     1.0  0.08488  0.61545  0.92029  1.0000
  C   C1861     1.0  0.08623  0.62672  0.92724  1.0000
  C   C1862     1.0  0.07956  0.62627  0.94314  1.0000
  C   C1863     1.0  0.07183  0.61435  0.95212  1.0000
  C   C1864     1.0  0.07091  0.60285  0.94525  1.0000
  C   C1865     1.0  0.07726  0.60351  0.92933  1.0000
  H   H2950     1.0  0.30312  0.64539  0.80731  1.0000
  S   S765      1.0  0.46608  0.62210  0.78935  1.0000
  H   H2951     1.0  0.07623  0.59477  0.92398  1.0000
  S   S766      1.0  0.35360  0.70076  0.73788  1.0000
  S   S767      1.0  0.17448  0.49801  0.75991  1.0000
  S   S768      1.0  0.13792  0.70910  0.73364  1.0000
  H   H2952     1.0  0.32292  0.51213  0.85927  1.0000
  H   H2953     1.0  0.28347  0.50390  0.87457  1.0000
  H   H2954     1.0  0.39732  0.60817  0.75270  1.0000
  C   C1866     1.0  0.15614  0.65869  0.88709  1.0000
  C   C1867     1.0  0.16119  0.64241  0.89074  1.0000
  C   C1868     1.0  0.16697  0.63408  0.87878  1.0000
  C   C1869     1.0  0.16756  0.64208  0.86326  1.0000
  C   C1870     1.0  0.16604  0.65833  0.85963  1.0000
  C   C1871     1.0  0.16032  0.66667  0.87161  1.0000
  H   H2955     1.0  0.15792  0.63606  0.90262  1.0000
  H   H2956     1.0  0.16796  0.62155  0.88180  1.0000
  H   H2957     1.0  0.16628  0.66477  0.84773  1.0000
  H   H2958     1.0  0.15644  0.67925  0.86855  1.0000
  C   C1872     1.0  0.11603  0.69950  0.94215  1.0000
  C   C1873     1.0  0.13109  0.71186  0.79518  1.0000
  C   C1874     1.0  0.13417  0.70605  0.81015  1.0000
  C   C1875     1.0  0.14455  0.71178  0.81463  1.0000
  H   H2959     1.0  0.09143  0.69579  0.72342  1.0000
  H   H2960     1.0  0.04787  0.67650  0.90288  1.0000
  H   H2961     1.0  0.33370  0.67252  0.73658  1.0000
  H   H2962     1.0  0.12854  0.69708  0.81827  1.0000
  C   C1876     1.0  0.38711  0.48641  0.93463  1.0000
  C   C1877     1.0  0.21979  0.55359  0.72477  1.0000
  C   C1878     1.0  0.17087  0.61968  0.77003  1.0000
  C   C1879     1.0  0.18289  0.62351  0.75732  1.0000
  C   C1880     1.0  0.18054  0.63786  0.74663  1.0000
  C   C1881     1.0  0.16608  0.64844  0.74850  1.0000
  C   C1882     1.0  0.15391  0.64454  0.76105  1.0000
  C   C1883     1.0  0.15633  0.63021  0.77184  1.0000
  H   H2963     1.0  0.19407  0.61546  0.75575  1.0000
  H   H2964     1.0  0.19002  0.64082  0.73701  1.0000
  H   H2965     1.0  0.14261  0.65253  0.76242  1.0000
  H   H2966     1.0  0.14689  0.62721  0.78149  1.0000
  N   N187      1.0  0.29387  0.66246  0.78871  1.0000
  S   S769      1.0  0.06399  0.69010  0.96153  1.0000
  H   H2967     1.0  0.10507  0.70055  0.93852  1.0000
  Fe  Fe388     1.0  0.18392  0.72498  0.85312  1.0000
  H   H2968     1.0  0.26262  0.60559  0.73550  1.0000
  H   H2969     1.0  0.27352  0.69369  0.85131  1.0000
  H   H2970     1.0  0.16647  0.70858  0.91947  1.0000
  H   H2971     1.0  0.18110  0.55884  0.72639  1.0000
  H   H2972     1.0  0.05776  0.66454  0.91798  1.0000
  H   H2973     1.0  0.27148  0.50161  0.76204  1.0000
  C   C1884     1.0  0.09412  0.67632  0.80366  1.0000
  C   C1885     1.0  0.09605  0.69077  0.80433  1.0000
  C   C1886     1.0  0.09474  0.69407  0.81877  1.0000
  C   C1887     1.0  0.09188  0.68275  0.83250  1.0000
  C   C1888     1.0  0.08999  0.66830  0.83182  1.0000
  C   C1889     1.0  0.09094  0.66515  0.81742  1.0000
  H   H2974     1.0  0.09844  0.69944  0.79372  1.0000
  H   H2975     1.0  0.09625  0.70524  0.81926  1.0000
  H   H2976     1.0  0.08756  0.65961  0.84242  1.0000
  H   H2977     1.0  0.08944  0.65397  0.81692  1.0000
  H   H2978     1.0  0.19156  0.62308  0.82744  1.0000
  S   S770      1.0  0.25172  0.72422  0.91401  1.0000
  C   C1890     1.0  0.12737  0.67413  0.93599  1.0000
  C   C1891     1.0  0.26066  0.61852  0.73127  1.0000
  C   C1892     1.0  0.48208  0.56441  0.78383  1.0000
  H   H2979     1.0  0.29793  0.65689  0.76635  1.0000
  H   H2980     1.0  0.13601  0.67896  0.92581  1.0000
  Fe  Fe389     1.0  0.11346  0.70808  0.73453  1.0000
  H   H2981     1.0  0.20056  0.64956  0.89286  1.0000
  C   C1893     1.0  0.25783  0.50873  0.79008  1.0000
  H   H2982     1.0  0.28906  0.70646  0.82613  1.0000
  H   H2983     1.0  0.14494  0.66258  0.83173  1.0000
  C   C1894     1.0  0.19611  0.59946  0.81326  1.0000
  Fe  Fe390     1.0  0.34148  0.48495  0.90029  1.0000
  H   H2984     1.0  0.16496  0.65800  0.82171  1.0000
  C   C1895     1.0  0.32506  0.67299  0.73035  1.0000
  C   C1896     1.0  0.39698  0.66086  0.75795  1.0000
  C   C1897     1.0  0.39616  0.66638  0.77100  1.0000
  C   C1898     1.0  0.40993  0.66623  0.77503  1.0000
  C   C1899     1.0  0.42451  0.66037  0.76614  1.0000
  C   C1900     1.0  0.42532  0.65479  0.75312  1.0000
  C   C1901     1.0  0.41156  0.65508  0.74901  1.0000
  H   H2985     1.0  0.38494  0.67058  0.77812  1.0000
  H   H2986     1.0  0.40928  0.67055  0.78511  1.0000
  H   H2987     1.0  0.43654  0.65080  0.74587  1.0000
  H   H2988     1.0  0.28245  0.51609  0.89648  1.0000
  C   C1902     1.0  0.32272  0.67592  0.81587  1.0000
  C   C1903     1.0  0.33438  0.66438  0.80943  1.0000
  C   C1904     1.0  0.33429  0.64855  0.81581  1.0000
  C   C1905     1.0  0.32244  0.64431  0.82851  1.0000
  C   C1906     1.0  0.31119  0.65581  0.83538  1.0000
  C   C1907     1.0  0.31138  0.67162  0.82911  1.0000
  H   H2989     1.0  0.34344  0.66765  0.79949  1.0000
  H   H2990     1.0  0.34308  0.63965  0.81056  1.0000
  H   H2991     1.0  0.30230  0.65253  0.84549  1.0000
  H   H2992     1.0  0.30252  0.68044  0.83433  1.0000
  C   C1908     1.0  0.19901  0.61176  0.83214  1.0000
  H   H2993     1.0  0.19781  0.61128  0.84470  1.0000
  Fe  Fe391     1.0  0.13906  0.72247  0.97189  1.0000
  H   H2994     1.0  0.06496  0.59364  0.95213  1.0000
  S   S771      1.0  0.35925  0.49602  0.88140  1.0000
  H   H2995     1.0  0.12796  0.66037  0.80049  1.0000
  C   C1909     1.0  0.42162  0.51038  0.88394  1.0000
  H   H2996     1.0  0.13038  0.67791  0.80376  1.0000
  H   H2997     1.0  0.17403  0.58840  0.83710  1.0000
  C   C1910     1.0  0.15569  0.71729  0.91906  1.0000
  H   H2998     1.0  0.40432  0.59063  0.76600  1.0000
  S   S772      1.0  0.04912  0.65898  0.95407  1.0000
  H   H2999     1.0  0.25598  0.50659  0.80297  1.0000
  H   H3000     1.0  0.27490  0.65537  0.80704  1.0000
  H   H3001     1.0  0.24164  0.48581  0.80549  1.0000
  H   H3002     1.0  0.99766  0.64631  0.96800  1.0000
  H   H3003     1.0  0.48502  0.48595  0.81165  1.0000
  H   H3004     1.0  0.20164  0.57327  0.83469  1.0000
  H   H3005     1.0  0.28097  0.53232  0.87004  1.0000
  H   H3006     1.0  0.30052  0.50297  0.89992  1.0000
  C   C1911     1.0  0.29347  0.67589  0.79497  1.0000
  H   H3007     1.0  0.44319  0.49100  0.81557  1.0000
  H   H3008     1.0  0.42315  0.69187  0.75486  1.0000
  H   H3009     1.0  0.04029  0.63050  0.92480  1.0000
  H   H3010     1.0  0.30655  0.63857  0.78982  1.0000
  N   N188      1.0  0.12301  0.68302  0.94839  1.0000
  C   C1912     1.0  0.19166  0.56006  0.72932  1.0000
  H   H3011     1.0  0.29713  0.70134  0.85139  1.0000
  Fe  Fe392     1.0  0.36036  0.68176  0.75795  1.0000
  S   S773      1.0  0.13848  0.66686  0.89868  1.0000
  C   C1913     1.0  0.13815  0.72364  0.78476  1.0000
  C   C1914     1.0  0.20309  0.49880  0.76327  1.0000
  C   C1915     1.0  0.39650  0.71230  0.76295  1.0000
  S   S774      1.0  0.34012  0.49539  0.95154  1.0000
  C   C1916     1.0  0.47238  0.48151  0.79734  1.0000
  Fe  Fe393     1.0  0.35150  0.71695  0.75321  1.0000
  C   C1917     1.0  0.30581  0.64893  0.79434  1.0000
  H   H3012     1.0  0.26911  0.66818  0.78990  1.0000
  H   H3013     1.0  0.37605  0.52132  0.96132  1.0000
  H   H3014     1.0  0.34332  0.48102  0.86612  1.0000
  H   H3015     1.0  0.19134  0.57279  0.72683  1.0000
  H   H3016     1.0  0.08636  0.70819  0.87540  1.0000
  H   H3017     1.0  0.19027  0.68595  0.86363  1.0000
  C   C1918     1.0  0.22657  0.71945  0.87413  1.0000
  H   H3018     1.0  0.39149  0.48695  0.92192  1.0000
  H   H3019     1.0  0.11703  0.67450  0.93162  1.0000
  C   C1919     1.0  0.31816  0.51249  0.87179  1.0000
  C   C1920     1.0  0.23233  0.72936  0.87934  1.0000
  N   N189      1.0  0.43291  0.48268  0.83963  1.0000
  C   C1921     1.0  0.27111  0.48188  0.78992  1.0000
  H   H3020     1.0  0.41401  0.72928  0.72664  1.0000
  H   H3021     1.0  0.31761  0.65168  0.79066  1.0000
  H   H3022     1.0  0.05512  0.63571  0.89789  1.0000
  H   H3023     1.0  0.13268  0.66161  0.94018  1.0000
  N   N190      1.0  0.34102  0.59350  0.87033  1.0000
  C   C1922     1.0  0.34749  0.58701  0.85616  1.0000
  C   C1923     1.0  0.34452  0.60910  0.86716  1.0000
  C   C1924     1.0  0.34814  0.58290  0.88317  1.0000
  C   C1925     1.0  0.32392  0.59498  0.87480  1.0000
  H   H3024     1.0  0.34560  0.57501  0.85832  1.0000
  H   H3025     1.0  0.36030  0.58626  0.85214  1.0000
  H   H3026     1.0  0.34193  0.59439  0.84638  1.0000
  H   H3027     1.0  0.33981  0.61439  0.87757  1.0000
  H   H3028     1.0  0.35732  0.60851  0.86361  1.0000
  H   H3029     1.0  0.33920  0.61735  0.85756  1.0000
  H   H3030     1.0  0.34335  0.58730  0.89412  1.0000
  H   H3031     1.0  0.36104  0.58157  0.88025  1.0000
  H   H3032     1.0  0.34582  0.57096  0.88566  1.0000
  H   H3033     1.0  0.31840  0.60110  0.88459  1.0000
  H   H3034     1.0  0.32082  0.58336  0.87864  1.0000
  H   H3035     1.0  0.31834  0.60166  0.86486  1.0000
  C   C1926     1.0  0.15865  0.66080  0.79363  1.0000
  H   H3036     1.0  0.26897  0.51273  0.78481  1.0000
  C   C1927     1.0  0.15088  0.72347  0.90493  1.0000
  S   S775      1.0  0.30938  0.70065  0.73934  1.0000
  H   H3037     1.0  0.10244  0.69171  0.87600  1.0000
  H   H3038     1.0  0.15283  0.67665  0.81568  1.0000
  C   C1928     1.0  0.13196  0.66509  0.80834  1.0000
  H   H3039     1.0  0.32203  0.52202  0.87402  1.0000
  C   C1929     1.0  0.15296  0.66399  0.82004  1.0000
  H   H3040     1.0  0.29868  0.52373  0.89607  1.0000
  N   N191      1.0  0.19433  0.59836  0.83005  1.0000
  H   H3041     1.0  0.21694  0.58329  0.83118  1.0000
  C   C1930     1.0  0.14981  0.64057  0.81501  1.0000
  H   H3042     1.0  0.27194  0.72121  0.82256  1.0000
  H   H3043     1.0  0.15804  0.71961  0.89456  1.0000
  H   H3044     1.0  0.19059  0.55553  0.74210  1.0000
  H   H3045     1.0  0.42560  0.61942  0.76728  1.0000
  H   H3046     1.0  0.17108  0.65508  0.79384  1.0000
  C   C1931     1.0  0.29396  0.53006  0.86704  1.0000
  C   C1932     1.0  0.04674  0.66736  0.91384  1.0000
  C   C1933     1.0  0.47596  0.54448  0.81312  1.0000
  C   C1934     1.0  0.27839  0.65836  0.79411  1.0000
  H   H3047     1.0  0.09226  0.63587  0.92037  1.0000
  H   H3048     1.0  0.20298  0.58214  0.84941  1.0000
  H   H3049     1.0  0.10748  0.48996  0.78424  1.0000
  C   C1935     1.0  0.11157  0.67619  0.96165  1.0000
  H   H3050     1.0  0.43042  0.70379  0.73656  1.0000
  C   C1936     1.0  0.20437  0.58361  0.83666  1.0000
  H   H3051     1.0  0.20853  0.59863  0.80691  1.0000
  H   H3052     1.0  0.08046  0.63507  0.94848  1.0000
  H   H3053     1.0  0.25071  0.50741  0.76399  1.0000
  Fe  Fe394     1.0  0.32897  0.69943  0.75028  1.0000
  H   H3054     1.0  0.16201  0.63455  0.81587  1.0000
  H   H3055     1.0  0.32376  0.50135  0.87875  1.0000
  H   H3056     1.0  0.30129  0.50129  0.85992  1.0000
  S   S776      1.0  0.00810  0.67244  0.94499  1.0000
  C   C1937     1.0  0.11747  0.48323  0.78976  1.0000
  H   H3057     1.0  0.38804  0.71035  0.73794  1.0000
  C   C1938     1.0  0.44133  0.48648  0.88230  1.0000
  C   C1939     1.0  0.29538  0.51439  0.89285  1.0000
  C   C1940     1.0  0.12448  0.70726  0.87234  1.0000
  H   H3058     1.0  0.14601  0.68726  0.94395  1.0000
  H   H3059     1.0  0.40577  0.62395  0.76533  1.0000
  H   H3060     1.0  0.20523  0.60306  0.73409  1.0000
  H   H3061     1.0  0.42957  0.60913  0.72977  1.0000
  S   S777      1.0  0.23866  0.59509  0.72733  1.0000
  H   H3062     1.0  0.37413  0.48891  0.93704  1.0000
  H   H3063     1.0  0.18525  0.66612  0.88799  1.0000
  C   C1941     1.0  0.40982  0.50195  0.88826  1.0000
  H   H3064     1.0  0.47020  0.49350  0.79087  1.0000
  H   H3065     1.0  0.41097  0.59207  0.74530  1.0000
  H   H3066     1.0  0.19160  0.65078  0.87737  1.0000
  Fe  Fe395     1.0  0.37419  0.48828  0.89904  1.0000
  N   N192      1.0  0.04359  0.65328  0.91143  1.0000
  C   C1942     1.0  0.02878  0.65749  0.90616  1.0000
  H   H3067     1.0  0.13932  0.49934  0.77185  1.0000
  C   C1943     1.0  0.98778  0.65415  0.96374  1.0000
  C   C1944     1.0  0.36769  0.51391  0.96636  1.0000
  H   H3068     1.0  0.01877  0.66237  0.91498  1.0000
  H   H3069     1.0  0.02607  0.64712  0.90424  1.0000
  C   C1945     1.0  0.13615  0.49151  0.76640  1.0000
  C   C1946     1.0  0.41608  0.61417  0.76706  1.0000
  H   H3070     1.0  0.41221  0.65129  0.73863  1.0000
  H   H3071     1.0  0.40029  0.69211  0.74505  1.0000
  H   H3072     1.0  0.24808  0.62283  0.73082  1.0000
  H   H3073     1.0  0.47836  0.58839  0.82335  1.0000
  H   H3074     1.0  0.24098  0.72444  0.88637  1.0000
  Fe  Fe396     1.0  0.02319  0.66399  0.96258  1.0000
  C   C1947     1.0  0.24314  0.48958  0.79260  1.0000
  H   H3075     1.0  0.06794  0.64418  0.90291  1.0000
  N   N193      1.0  0.20739  0.66604  0.87175  1.0000
  C   C1948     1.0  0.21281  0.67479  0.87982  1.0000
  C   C1949     1.0  0.22078  0.65455  0.86516  1.0000
  C   C1950     1.0  0.20032  0.67703  0.85906  1.0000
  C   C1951     1.0  0.19567  0.65777  0.88300  1.0000
  H   H3076     1.0  0.20312  0.68394  0.88450  1.0000
  H   H3077     1.0  0.22206  0.68079  0.87177  1.0000
  H   H3078     1.0  0.21794  0.66690  0.88967  1.0000
  H   H3079     1.0  0.23009  0.66034  0.85694  1.0000
  H   H3080     1.0  0.22619  0.64595  0.87450  1.0000
  H   H3081     1.0  0.21723  0.64791  0.85872  1.0000
  H   H3082     1.0  0.19596  0.67088  0.85279  1.0000
  H   H3083     1.0  0.20889  0.68350  0.85039  1.0000
  H   H3084     1.0  0.12318  0.70730  0.79173  1.0000
  H   H3085     1.0  0.47365  0.53704  0.82460  1.0000
  H   H3086     1.0  0.13289  0.71448  0.86498  1.0000
  N   N194      1.0  0.27636  0.71744  0.84533  1.0000
  H   H3087     1.0  0.26274  0.62342  0.74016  1.0000
  H   H3088     1.0  0.09685  0.70284  0.89080  1.0000
  H   H3089     1.0  0.15916  0.72849  0.80782  1.0000
  H   H3090     1.0  0.43177  0.58430  0.76911  1.0000
  C   C1952     1.0  0.13710  0.68228  0.95369  1.0000
  H   H3091     1.0  0.38416  0.71809  0.76248  1.0000
  H   H3092     1.0  0.12938  0.69523  0.87025  1.0000
  H   H3093     1.0  0.20562  0.52950  0.73650  1.0000
  H   H3094     1.0  0.29823  0.72701  0.96660  1.0000
  H   H3095     1.0  0.29039  0.62168  0.72518  1.0000
  H   H3096     1.0  0.42757  0.70989  0.75443  1.0000
  S   S778      1.0  0.06250  0.61418  0.97168  1.0000
  H   H3097     1.0  0.10057  0.67697  0.95818  1.0000
  C   C1953     1.0  0.40625  0.72874  0.73846  1.0000
  C   C1954     1.0  0.15117  0.72397  0.80442  1.0000
  C   C1955     1.0  0.14672  0.72242  0.93257  1.0000
  H   H3098     1.0  0.28129  0.72609  0.95019  1.0000
  Fe  Fe397     1.0  0.15901  0.71922  0.84046  1.0000
  S   S779      1.0  0.28521  0.72820  0.91788  1.0000
  H   H3099     1.0  0.25638  0.70832  0.84732  1.0000
  H   H3100     1.0  0.05494  0.72647  0.74439  1.0000
  H   H3101     1.0  0.26045  0.48740  0.76399  1.0000
  H   H3102     1.0  0.03895  0.72610  0.73672  1.0000
  C   C1956     1.0  0.19486  0.72126  0.92832  1.0000
  S   S780      1.0  0.48532  0.63982  0.75577  1.0000
  S   S781      1.0  0.18084  0.72810  0.82893  1.0000
  H   H3103     1.0  0.20537  0.71381  0.92225  1.0000
  H   H3104     1.0  0.45027  0.51806  0.73476  1.0000
  C   C1957     1.0  0.11042  0.71452  0.85182  1.0000
  H   H3105     1.0  0.42301  0.49042  0.81931  1.0000
  H   H3106     1.0  0.11628  0.66364  0.96636  1.0000
  H   H3107     1.0  0.05799  0.72578  0.72444  1.0000
  H   H3108     1.0  0.11817  0.72239  0.84412  1.0000
  H   H3109     1.0  0.09886  0.71870  0.84857  1.0000
  H   H3110     1.0  0.40041  0.71859  0.76946  1.0000
  C   C1958     1.0  0.08003  0.70617  0.96998  1.0000
  H   H3111     1.0  0.28939  0.72662  0.82265  1.0000
  H   H3112     1.0  0.13428  0.68911  0.96288  1.0000
  H   H3113     1.0  0.45347  0.48048  0.88000  1.0000
  H   H3114     1.0  0.39159  0.48042  0.96353  1.0000
  H   H3115     1.0  0.22015  0.56616  0.72238  1.0000
  C   C1959     1.0  0.14797  0.72989  0.78948  1.0000
  C   C1960     1.0  0.10301  0.72973  0.87157  1.0000
  H   H3116     1.0  0.10198  0.72961  0.88401  1.0000
  H   H3117     1.0  0.40592  0.80507  0.08760  1.0000
  H   H3118     1.0  0.41226  0.83132  0.08176  1.0000
  C   C1961     1.0  0.09506  0.78170  0.99459  1.0000
  H   H3119     1.0  0.26455  0.78024  0.09775  1.0000
  Fe  Fe398     1.0  0.18994  0.76078  0.12876  1.0000
  S   S782      1.0  0.16699  0.77597  0.12424  1.0000
  Fe  Fe399     1.0  0.19746  0.78598  0.14018  1.0000
  S   S783      1.0  0.17538  0.80309  0.13587  1.0000
  S   S784      1.0  0.21609  0.79229  0.14759  1.0000
  Fe  Fe400     1.0  0.16434  0.78243  0.14694  1.0000
  Fe  Fe401     1.0  0.18029  0.79499  0.11381  1.0000
  S   S785      1.0  0.17944  0.81219  0.09105  1.0000
  S   S786      1.0  0.18624  0.76548  0.15259  1.0000
  S   S787      1.0  0.20341  0.77961  0.11698  1.0000
  Fe  Fe402     1.0  0.11122  0.89415  0.06185  1.0000
  S   S788      1.0  0.08609  0.90639  0.06367  1.0000
  S   S789      1.0  0.12873  0.90929  0.05221  1.0000
  Fe  Fe403     1.0  0.10394  0.86197  0.07273  1.0000
  S   S790      1.0  0.07815  0.87147  0.07548  1.0000
  S   S791      1.0  0.11144  0.83580  0.07838  1.0000
  Fe  Fe404     1.0  0.08460  0.88803  0.05278  1.0000
  S   S792      1.0  0.07355  0.89506  0.03225  1.0000
  Fe  Fe405     1.0  0.08218  0.88891  0.08618  1.0000
  S   S793      1.0  0.06634  0.89668  0.10747  1.0000
  S   S794      1.0  0.11015  0.87702  0.04897  1.0000
  S   S795      1.0  0.10755  0.87803  0.08541  1.0000
  C   C1962     1.0  0.24098  0.92840  0.17662  1.0000
  S   S796      1.0  0.01609  0.86809  0.00234  1.0000
  Fe  Fe406     1.0  0.03339  0.82364  0.00991  1.0000
  S   S797      1.0  0.00983  0.83395  0.02341  1.0000
  H   H3120     1.0  0.09852  0.94730  0.02602  1.0000
  Fe  Fe407     1.0  0.00633  0.84908  0.00018  1.0000
  H   H3121     1.0  0.11302  0.97406  0.00081  1.0000
  Fe  Fe408     1.0  0.02171  0.85198  0.02429  1.0000
  S   S798      1.0  0.01866  0.86095  0.04564  1.0000
  S   S799      1.0  0.04556  0.84048  0.01276  1.0000
  H   H3122     1.0  0.24442  0.77961  0.10614  1.0000
  H   H3123     1.0  0.03719  0.73550  0.01008  1.0000
  H   H3124     1.0  0.39895  0.83531  0.09952  1.0000
  S   S800      1.0  0.26036  0.73683  0.06302  1.0000
  S   S801      1.0  0.39123  0.74252  0.20766  1.0000
  C   C1963     1.0  0.18436  0.83234  0.20355  1.0000
  S   S802      1.0  0.22629  0.97872  0.13045  1.0000
  H   H3125     1.0  0.11732  0.79763  0.18904  1.0000
  H   H3126     1.0  0.09699  0.78565  0.21863  1.0000
  H   H3127     1.0  0.13047  0.92439  0.01967  1.0000
  C   C1964     1.0  0.26318  0.93292  0.15560  1.0000
  H   H3128     1.0  0.36916  0.73604  0.15281  1.0000
  C   C1965     1.0  0.46547  0.77528  0.19192  1.0000
  H   H3129     1.0  0.33838  0.77583  0.16916  1.0000
  H   H3130     1.0  0.35913  0.77439  0.16374  1.0000
  N   N195      1.0  0.20418  0.77235  0.07148  1.0000
  H   H3131     1.0  0.37688  0.75114  0.15504  1.0000
  H   H3132     1.0  0.21784  0.73668  0.00680  1.0000
  H   H3133     1.0  0.19699  0.93899  0.05374  1.0000
  C   C1966     1.0  0.20303  0.77133  0.05604  1.0000
  Fe  Fe409     1.0  0.40156  0.76399  0.19916  1.0000
  S   S803      1.0  0.38488  0.78693  0.20122  1.0000
  C   C1967     1.0  0.35796  0.97649  0.97931  1.0000
  Fe  Fe410     1.0  0.42961  0.77901  0.18690  1.0000
  S   S804      1.0  0.41516  0.80329  0.18752  1.0000
  S   S805      1.0  0.45579  0.77373  0.17856  1.0000
  H   H3134     1.0  0.46865  0.87054  0.99693  1.0000
  C   C1968     1.0  0.10838  0.73909  0.19434  1.0000
  Fe  Fe411     1.0  0.39885  0.79616  0.17770  1.0000
  S   S806      1.0  0.38598  0.81259  0.15952  1.0000
  C   C1969     1.0  0.45599  0.88776  0.98072  1.0000
  S   S807      1.0  0.41450  0.77284  0.17497  1.0000
  H   H3135     1.0  0.26733  0.78879  0.12017  1.0000
  S   S808      1.0  0.14344  0.82419  0.21099  1.0000
  H   H3136     1.0  0.20669  0.97040  0.04527  1.0000
  Fe  Fe412     1.0  0.22092  0.86801  0.16542  1.0000
  S   S809      1.0  0.23208  0.85978  0.18608  1.0000
  S   S810      1.0  0.20091  0.85888  0.16405  1.0000
  Fe  Fe413     1.0  0.24140  0.89147  0.14832  1.0000
  S   S811      1.0  0.25450  0.88512  0.16725  1.0000
  S   S812      1.0  0.24984  0.90781  0.12595  1.0000
  Fe  Fe414     1.0  0.25448  0.86038  0.16806  1.0000
  S   S813      1.0  0.27668  0.84212  0.16940  1.0000
  Fe  Fe415     1.0  0.23110  0.88520  0.18368  1.0000
  H   H3137     1.0  0.21043  0.74742  0.07969  1.0000
  S   S814      1.0  0.24342  0.86671  0.14753  1.0000
  S   S815      1.0  0.21778  0.89356  0.16458  1.0000
  H   H3138     1.0  0.00805  0.89396  0.07327  1.0000
  H   H3139     1.0  0.34152  0.75000  0.18710  1.0000
  Fe  Fe416     1.0  0.40254  0.79191  0.21091  1.0000
  Fe  Fe417     1.0  0.34162  0.82563  0.07631  1.0000
  S   S816      1.0  0.35825  0.80251  0.07480  1.0000
  S   S817      1.0  0.34782  0.84904  0.06494  1.0000
  Fe  Fe418     1.0  0.31567  0.81052  0.09858  1.0000
  S   S818      1.0  0.33019  0.78625  0.09910  1.0000
  S   S819      1.0  0.29037  0.81401  0.11079  1.0000
  Fe  Fe419     1.0  0.34935  0.79629  0.10067  1.0000
  S   S820      1.0  0.36657  0.78220  0.11550  1.0000
  Fe  Fe420     1.0  0.33750  0.79482  0.07335  1.0000
  S   S821      1.0  0.33827  0.78012  0.05703  1.0000
  S   S822      1.0  0.33411  0.82000  0.10241  1.0000
  S   S823      1.0  0.32158  0.81855  0.07261  1.0000
  H   H3140     1.0  0.11745  0.91065  0.00094  1.0000
  S   S824      1.0  0.27072  0.77587  0.05582  1.0000
  H   H3141     1.0  0.18020  0.78447  0.07750  1.0000
  H   H3142     1.0  0.39493  0.93484  0.99158  1.0000
  H   H3143     1.0  0.25630  0.96082  0.16320  1.0000
  C   C1970     1.0  0.16580  0.85684  0.19854  1.0000
  C   C1971     1.0  0.23937  0.89913  0.21022  1.0000
  C   C1972     1.0  0.04498  0.76327  0.00322  1.0000
  H   H3144     1.0  0.20070  0.95108  0.03445  1.0000
  H   H3145     1.0  0.00982  0.91217  0.12590  1.0000
  H   H3146     1.0  0.25767  0.74427  0.99960  1.0000
  C   C1973     1.0  0.31942  0.77980  0.05612  1.0000
  C   C1974     1.0  0.30624  0.78624  0.06639  1.0000
  C   C1975     1.0  0.29131  0.78536  0.06591  1.0000
  C   C1976     1.0  0.28947  0.77781  0.05539  1.0000
  C   C1977     1.0  0.31757  0.77258  0.04533  1.0000
  H   H3147     1.0  0.30756  0.79182  0.07478  1.0000
  H   H3148     1.0  0.28119  0.79044  0.07375  1.0000
  H   H3149     1.0  0.11804  0.81256  0.20769  1.0000
  C   C1978     1.0  0.37990  0.83783  0.02673  1.0000
  C   C1979     1.0  0.36837  0.83692  0.04060  1.0000
  C   C1980     1.0  0.36101  0.85026  0.04668  1.0000
  C   C1981     1.0  0.36480  0.86464  0.03848  1.0000
  C   C1982     1.0  0.37603  0.86565  0.02435  1.0000
  H   H3150     1.0  0.38584  0.82738  0.02232  1.0000
  H   H3151     1.0  0.36538  0.82583  0.04667  1.0000
  H   H3152     1.0  0.35910  0.87503  0.04309  1.0000
  H   H3153     1.0  0.23204  0.81925  0.11401  1.0000
  C   C1983     1.0  0.30263  0.77164  0.04493  1.0000
  H   H3154     1.0  0.20281  0.95837  0.06457  1.0000
  H   H3155     1.0  0.36687  0.75476  0.13970  1.0000
  C   C1984     1.0  0.24239  0.92768  0.12638  1.0000
  C   C1985     1.0  0.24913  0.93909  0.11482  1.0000
  C   C1986     1.0  0.24398  0.95492  0.11568  1.0000
  C   C1987     1.0  0.23203  0.95934  0.12807  1.0000
  C   C1988     1.0  0.22507  0.94795  0.13940  1.0000
  C   C1989     1.0  0.23022  0.93216  0.13856  1.0000
  H   H3156     1.0  0.25856  0.93568  0.10537  1.0000
  H   H3157     1.0  0.24951  0.96361  0.10698  1.0000
  H   H3158     1.0  0.21573  0.95136  0.14893  1.0000
  H   H3159     1.0  0.22485  0.92348  0.14740  1.0000
  C   C1990     1.0  0.28047  0.83129  0.15522  1.0000
  C   C1991     1.0  0.26821  0.83064  0.14934  1.0000
  C   C1992     1.0  0.27129  0.82469  0.13602  1.0000
  C   C1993     1.0  0.28670  0.81904  0.12875  1.0000
  C   C1994     1.0  0.29897  0.81853  0.13533  1.0000
  C   C1995     1.0  0.29586  0.82479  0.14852  1.0000
  H   H3160     1.0  0.25633  0.83494  0.15498  1.0000
  H   H3161     1.0  0.26173  0.82503  0.13110  1.0000
  H   H3162     1.0  0.31086  0.81374  0.13005  1.0000
  H   H3163     1.0  0.30538  0.82514  0.15318  1.0000
  H   H3164     1.0  0.16667  0.81143  0.18709  1.0000
  H   H3165     1.0  0.42549  0.92955  0.00226  1.0000
  C   C1996     1.0  0.18829  0.85564  0.20806  1.0000
  H   H3166     1.0  0.09660  0.74375  0.20111  1.0000
  H   H3167     1.0  0.21469  0.77005  0.04786  1.0000
  C   C1997     1.0  0.48036  0.90333  0.97398  1.0000
  H   H3168     1.0  0.23936  0.95772  0.15937  1.0000
  H   H3169     1.0  0.39805  0.94434  0.00480  1.0000
  H   H3170     1.0  0.25653  0.88221  0.19843  1.0000
  H   H3171     1.0  0.25610  0.93660  0.14659  1.0000
  C   C1998     1.0  0.38059  0.80407  0.14734  1.0000
  C   C1999     1.0  0.36879  0.81268  0.13933  1.0000
  C   C2000     1.0  0.36431  0.80610  0.12954  1.0000
  C   C2001     1.0  0.37190  0.79100  0.12745  1.0000
  C   C2002     1.0  0.38385  0.78250  0.13525  1.0000
  C   C2003     1.0  0.38808  0.78894  0.14528  1.0000
  H   H3172     1.0  0.36291  0.82437  0.14094  1.0000
  H   H3173     1.0  0.35494  0.81267  0.12375  1.0000
  H   H3174     1.0  0.38990  0.77088  0.13354  1.0000
  H   H3175     1.0  0.39733  0.78229  0.15119  1.0000
  H   H3176     1.0  0.18354  0.76344  0.08357  1.0000
  S   S825      1.0  0.41807  0.76803  0.21098  1.0000
  C   C2004     1.0  0.42588  0.93030  0.98984  1.0000
  H   H3177     1.0  0.16722  0.97025  0.07123  1.0000
  H   H3178     1.0  0.20254  0.79721  0.06488  1.0000
  C   C2005     1.0  0.07127  0.80219  0.99601  1.0000
  H   H3179     1.0  0.44666  0.88167  0.98334  1.0000
  H   H3180     1.0  0.37274  0.82197  0.99099  1.0000
  H   H3181     1.0  0.00851  0.89682  0.03871  1.0000
  H   H3182     1.0  0.16316  0.95609  0.06362  1.0000
  H   H3183     1.0  0.13620  0.74221  0.17520  1.0000
  H   H3184     1.0  0.24990  0.79146  0.08702  1.0000
  H   H3185     1.0  0.43783  0.82823  0.21855  1.0000
  H   H3186     1.0  0.14088  0.80761  0.13150  1.0000
  S   S826      1.0  0.36501  0.92965  0.98577  1.0000
  Fe  Fe421     1.0  0.27975  0.73858  0.01963  1.0000
  H   H3187     1.0  0.02522  0.95803  0.08968  1.0000
  H   H3188     1.0  0.39680  0.84859  0.08122  1.0000
  H   H3189     1.0  0.07450  0.82441  0.02671  1.0000
  C   C2006     1.0  0.12911  0.81552  0.13171  1.0000
  C   C2007     1.0  0.03999  0.96150  0.10964  1.0000
  C   C2008     1.0  0.06350  0.79221  0.00840  1.0000
  S   S827      1.0  0.04340  0.79778  0.01620  1.0000
  H   H3190     1.0  0.37069  0.85636  0.98941  1.0000
  H   H3191     1.0  0.48597  0.82479  0.17774  1.0000
  C   C2009     1.0  0.26378  0.93249  0.18189  1.0000
  H   H3192     1.0  0.00269  0.91773  0.03442  1.0000
  H   H3193     1.0  0.34927  0.95766  0.99665  1.0000
  Fe  Fe422     1.0  0.12219  0.74860  0.98924  1.0000
  H   H3194     1.0  0.38800  0.83002  0.99230  1.0000
  C   C2010     1.0  0.48171  0.78012  0.21142  1.0000
  C   C2011     1.0  0.24701  0.95397  0.16792  1.0000
  H   H3195     1.0  0.05975  0.73878  0.97805  1.0000
  H   H3196     1.0  0.06503  0.81380  0.99145  1.0000
  C   C2012     1.0  0.46541  0.78503  0.21401  1.0000
  C   C2013     1.0  0.39982  0.83600  0.08697  1.0000
  H   H3197     1.0  0.11716  0.76643  0.17985  1.0000
  H   H3198     1.0  0.02753  0.94054  0.10456  1.0000
  H   H3199     1.0  0.12990  0.74449  0.21648  1.0000
  C   C2014     1.0  0.04699  0.90150  0.10546  1.0000
  C   C2015     1.0  0.04370  0.90136  0.09150  1.0000
  C   C2016     1.0  0.02820  0.90486  0.09002  1.0000
  C   C2017     1.0  0.12085  0.74017  0.21391  1.0000
  C   C2018     1.0  0.01924  0.90933  0.11624  1.0000
  C   C2019     1.0  0.03477  0.90561  0.11780  1.0000
  H   H3200     1.0  0.05309  0.89852  0.08184  1.0000
  H   H3201     1.0  0.02577  0.90471  0.07919  1.0000
  S   S828      1.0  0.11765  0.73205  0.01244  1.0000
  H   H3202     1.0  0.03730  0.90571  0.12862  1.0000
  C   C2020     1.0  0.12010  0.92754  0.05709  1.0000
  C   C2021     1.0  0.10741  0.92897  0.06979  1.0000
  C   C2022     1.0  0.09971  0.94374  0.07293  1.0000
  H   H3203     1.0  0.22219  0.78553  0.06202  1.0000
  C   C2023     1.0  0.11745  0.95568  0.05076  1.0000
  C   C2024     1.0  0.12522  0.94091  0.04766  1.0000
  H   H3204     1.0  0.10367  0.91866  0.07738  1.0000
  H   H3205     1.0  0.19768  0.73336  0.99522  1.0000
  H   H3206     1.0  0.12118  0.96598  0.04321  1.0000
  H   H3207     1.0  0.13499  0.93989  0.03779  1.0000
  C   C2025     1.0  0.05714  0.88719  0.03607  1.0000
  C   C2026     1.0  0.04889  0.88269  0.05136  1.0000
  C   C2027     1.0  0.03683  0.87485  0.05432  1.0000
  C   C2028     1.0  0.03308  0.87150  0.04198  1.0000
  C   C2029     1.0  0.04100  0.87647  0.02668  1.0000
  C   C2030     1.0  0.05291  0.88444  0.02372  1.0000
  H   H3208     1.0  0.05189  0.88511  0.06091  1.0000
  H   H3209     1.0  0.03075  0.87100  0.06618  1.0000
  H   H3210     1.0  0.03805  0.87412  0.01706  1.0000
  H   H3211     1.0  0.05920  0.88799  0.01186  1.0000
  C   C2031     1.0  0.16074  0.81853  0.08703  1.0000
  C   C2032     1.0  0.15624  0.83369  0.07841  1.0000
  C   C2033     1.0  0.14105  0.83913  0.07574  1.0000
  C   C2034     1.0  0.13054  0.82922  0.08126  1.0000
  C   C2035     1.0  0.13522  0.81391  0.08946  1.0000
  C   C2036     1.0  0.15022  0.80865  0.09254  1.0000
  H   H3212     1.0  0.16437  0.84136  0.07408  1.0000
  H   H3213     1.0  0.13751  0.85095  0.06933  1.0000
  H   H3214     1.0  0.12713  0.80620  0.09363  1.0000
  H   H3215     1.0  0.15369  0.79687  0.09896  1.0000
  C   C2037     1.0  0.21172  0.81075  0.15236  1.0000
  C   C2038     1.0  0.19643  0.81972  0.15467  1.0000
  C   C2039     1.0  0.19326  0.83450  0.15813  1.0000
  C   C2040     1.0  0.20536  0.84043  0.15934  1.0000
  C   C2041     1.0  0.22060  0.83139  0.15731  1.0000
  C   C2042     1.0  0.22377  0.81657  0.15386  1.0000
  H   H3216     1.0  0.18696  0.81519  0.15412  1.0000
  H   H3217     1.0  0.18139  0.84133  0.15995  1.0000
  H   H3218     1.0  0.22990  0.83576  0.15855  1.0000
  H   H3219     1.0  0.23558  0.80960  0.15246  1.0000
  H   H3220     1.0  0.30130  0.76646  0.03628  1.0000
  C   C2043     1.0  0.14169  0.79584  0.17774  1.0000
  S   S829      1.0  0.14123  0.78563  0.16421  1.0000
  C   C2044     1.0  0.36686  0.74883  0.15208  1.0000
  N   N196      1.0  0.35192  0.75431  0.16255  1.0000
  H   H3221     1.0  0.12093  0.81008  0.14195  1.0000
  C   C2045     1.0  0.32479  0.74230  0.08115  1.0000
  C   C2046     1.0  0.33903  0.75091  0.15819  1.0000
  C   C2047     1.0  0.34931  0.77134  0.16109  1.0000
  S   S830      1.0  0.05443  0.86944  0.97244  1.0000
  S   S831      1.0  0.99661  0.91317  0.10044  1.0000
  S   S832      1.0  0.05861  0.73427  0.21661  1.0000
  H   H3222     1.0  0.24071  0.74347  0.98299  1.0000
  N   N197      1.0  0.25374  0.93696  0.17050  1.0000
  H   H3223     1.0  0.22668  0.75655  0.07032  1.0000
  N   N198      1.0  0.12924  0.83140  0.13260  1.0000
  C   C2048     1.0  0.14081  0.83780  0.11919  1.0000
  C   C2049     1.0  0.11357  0.84163  0.13216  1.0000
  C   C2050     1.0  0.13344  0.83064  0.14729  1.0000
  H   H3224     1.0  0.14157  0.84961  0.11967  1.0000
  H   H3225     1.0  0.13764  0.83898  0.10798  1.0000
  H   H3226     1.0  0.15272  0.83012  0.11871  1.0000
  H   H3227     1.0  0.11006  0.84245  0.12118  1.0000
  H   H3228     1.0  0.11324  0.85375  0.13274  1.0000
  H   H3229     1.0  0.10451  0.83716  0.14208  1.0000
  H   H3230     1.0  0.14517  0.82296  0.14802  1.0000
  H   H3231     1.0  0.12501  0.82576  0.15766  1.0000
  H   H3232     1.0  0.13369  0.84240  0.14841  1.0000
  H   H3233     1.0  0.11094  0.93848  0.98651  1.0000
  C   C2051     1.0  0.00570  0.90733  0.04372  1.0000
  H   H3234     1.0  0.03855  0.94036  0.08503  1.0000
  H   H3235     1.0  0.47133  0.81945  0.16133  1.0000
  H   H3236     1.0  0.39164  0.81867  0.97800  1.0000
  H   H3237     1.0  0.17578  0.82570  0.20368  1.0000
  C   C2052     1.0  0.48075  0.88915  0.98494  1.0000
  C   C2053     1.0  0.39174  0.73246  0.19363  1.0000
  C   C2054     1.0  0.12524  0.93252  0.00998  1.0000
  H   H3238     1.0  0.04866  0.77399  0.99538  1.0000
  H   H3239     1.0  0.41971  0.95868  0.99630  1.0000
  H   H3240     1.0  0.10319  0.92736  0.03617  1.0000
  H   H3241     1.0  0.12521  0.94457  0.01044  1.0000
  H   H3242     1.0  0.04028  0.75033  0.98241  1.0000
  H   H3243     1.0  0.36228  0.74835  0.18238  1.0000
  H   H3244     1.0  0.27892  0.88734  0.20484  1.0000
  H   H3245     1.0  0.09794  0.91250  0.01281  1.0000
  N   N199      1.0  0.28696  0.87114  0.11224  1.0000
  C   C2055     1.0  0.30034  0.85867  0.10736  1.0000
  C   C2056     1.0  0.28921  0.88643  0.10208  1.0000
  C   C2057     1.0  0.28584  0.87143  0.12858  1.0000
  C   C2058     1.0  0.27239  0.86804  0.11096  1.0000
  H   H3246     1.0  0.29891  0.84700  0.11472  1.0000
  H   H3247     1.0  0.31154  0.86051  0.10832  1.0000
  H   H3248     1.0  0.30158  0.85811  0.09507  1.0000
  H   H3249     1.0  0.29007  0.88664  0.08967  1.0000
  H   H3250     1.0  0.27927  0.89608  0.10546  1.0000
  H   H3251     1.0  0.30007  0.88917  0.10282  1.0000
  H   H3252     1.0  0.27587  0.88074  0.13262  1.0000
  H   H3253     1.0  0.29665  0.87359  0.13010  1.0000
  H   H3254     1.0  0.28397  0.86015  0.13659  1.0000
  H   H3255     1.0  0.26208  0.87737  0.11435  1.0000
  H   H3256     1.0  0.27020  0.85671  0.11872  1.0000
  H   H3257     1.0  0.27288  0.86748  0.09886  1.0000
  C   C2059     1.0  0.40079  0.73563  0.17850  1.0000
  C   C2060     1.0  0.31759  0.97017  0.97423  1.0000
  C   C2061     1.0  0.25451  0.89082  0.20523  1.0000
  C   C2062     1.0  0.98881  0.92110  0.06340  1.0000
  H   H3258     1.0  0.42267  0.91963  0.98921  1.0000
  H   H3259     1.0  0.21115  0.78749  0.08127  1.0000
  C   C2063     1.0  0.14239  0.81304  0.19860  1.0000
  N   N200      1.0  0.04667  0.95218  0.09752  1.0000
  H   H3260     1.0  0.25701  0.93501  0.19342  1.0000
  S   S833      1.0  0.11443  0.77486  0.98518  1.0000
  H   H3261     1.0  0.27342  0.93888  0.17785  1.0000
  H   H3262     1.0  0.19517  0.78194  0.05068  1.0000
  H   H3263     1.0  0.18241  0.94513  0.04228  1.0000
  H   H3264     1.0  0.11436  0.90626  0.02183  1.0000
  H   H3265     1.0  0.26793  0.92008  0.15698  1.0000
  H   H3266     1.0  0.06021  0.95489  0.07393  1.0000
  H   H3267     1.0  0.98820  0.89234  0.08084  1.0000
  C   C2064     1.0  0.05269  0.74949  0.98231  1.0000
  H   H3268     1.0  0.35442  0.73325  0.18033  1.0000
  C   C2065     1.0  0.14799  0.97571  0.97535  1.0000
  C   C2066     1.0  0.31844  0.73176  0.06288  1.0000
  S   S834      1.0  0.20019  0.73911  0.11873  1.0000
  C   C2067     1.0  0.25324  0.73971  0.97951  1.0000
  C   C2068     1.0  0.99756  0.89305  0.07001  1.0000
  H   H3269     1.0  0.99914  0.92309  0.06614  1.0000
  C   C2069     1.0  0.39914  0.94491  0.99227  1.0000
  H   H3270     1.0  0.05222  0.93044  0.11383  1.0000
  C   C2070     1.0  0.17787  0.97593  0.04020  1.0000
  H   H3271     1.0  0.08684  0.93389  0.02709  1.0000
  N   N201      1.0  0.18487  0.96309  0.05183  1.0000
  H   H3272     1.0  0.09009  0.94474  0.08289  1.0000
  H   H3273     1.0  0.17222  0.85962  0.18619  1.0000
  C   C2071     1.0  0.17270  0.95976  0.06608  1.0000
  N   N202      1.0  0.25051  0.80077  0.10597  1.0000
  C   C2072     1.0  0.26080  0.81122  0.09571  1.0000
  C   C2073     1.0  0.23408  0.80957  0.10798  1.0000
  C   C2074     1.0  0.25478  0.79485  0.12131  1.0000
  H   H3274     1.0  0.27330  0.80499  0.09401  1.0000
  H   H3275     1.0  0.25974  0.82132  0.10080  1.0000
  H   H3276     1.0  0.25802  0.81591  0.08398  1.0000
  H   H3277     1.0  0.23061  0.81471  0.09660  1.0000
  H   H3278     1.0  0.22595  0.80190  0.11520  1.0000
  H   H3279     1.0  0.24761  0.78652  0.12924  1.0000
  H   H3280     1.0  0.25292  0.80452  0.12724  1.0000
  N   N203      1.0  0.08229  0.83767  0.03798  1.0000
  C   C2075     1.0  0.08392  0.82325  0.03274  1.0000
  C   C2076     1.0  0.09496  0.83567  0.04595  1.0000
  C   C2077     1.0  0.06703  0.84092  0.04890  1.0000
  C   C2078     1.0  0.08321  0.85093  0.02435  1.0000
  H   H3281     1.0  0.08326  0.81300  0.04273  1.0000
  H   H3282     1.0  0.09529  0.82045  0.02442  1.0000
  H   H3283     1.0  0.26922  0.91976  0.18389  1.0000
  H   H3284     1.0  0.09406  0.84637  0.05004  1.0000
  H   H3285     1.0  0.09458  0.82588  0.05643  1.0000
  H   H3286     1.0  0.10669  0.83318  0.03812  1.0000
  H   H3287     1.0  0.06556  0.85158  0.05326  1.0000
  H   H3288     1.0  0.06580  0.83109  0.05924  1.0000
  H   H3289     1.0  0.05714  0.84282  0.04323  1.0000
  H   H3290     1.0  0.08243  0.86192  0.02783  1.0000
  H   H3291     1.0  0.07351  0.85313  0.01833  1.0000
  H   H3292     1.0  0.09440  0.84874  0.01564  1.0000
  N   N204      1.0  0.38940  0.82719  0.08507  1.0000
  C   C2079     1.0  0.39087  0.82843  0.06830  1.0000
  C   C2080     1.0  0.39379  0.81058  0.09286  1.0000
  C   C2081     1.0  0.37307  0.83379  0.09216  1.0000
  H   H3293     1.0  0.38740  0.84080  0.06210  1.0000
  H   H3294     1.0  0.40304  0.82368  0.06245  1.0000
  H   H3295     1.0  0.38589  0.80365  0.09202  1.0000
  H   H3296     1.0  0.36495  0.82733  0.09099  1.0000
  H   H3297     1.0  0.36923  0.84624  0.08637  1.0000
  H   H3298     1.0  0.37150  0.83319  0.10479  1.0000
  C   C2082     1.0  0.42021  0.95853  0.98406  1.0000
  C   C2083     1.0  0.12813  0.80049  0.18871  1.0000
  H   H3299     1.0  0.19668  0.84858  0.21549  1.0000
  H   H3300     1.0  0.19140  0.83459  0.19141  1.0000
  H   H3301     1.0  0.06763  0.94096  0.10610  1.0000
  S   S835      1.0  0.39860  0.85279  0.00150  1.0000
  C   C2084     1.0  0.46845  0.88148  0.98839  1.0000
  H   H3302     1.0  0.06329  0.93073  0.09427  1.0000
  H   H3303     1.0  0.23979  0.95743  0.17892  1.0000
  H   H3304     1.0  0.34830  0.77789  0.14907  1.0000
  H   H3305     1.0  0.38317  0.82186  0.06651  1.0000
  C   C2085     1.0  0.10980  0.91432  0.01170  1.0000
  H   H3306     1.0  0.39311  0.80925  0.10548  1.0000
  H   H3307     1.0  0.27319  0.93881  0.15086  1.0000
  H   H3308     1.0  0.03350  0.95486  0.12047  1.0000
  C   C2086     1.0  0.25241  0.78744  0.09890  1.0000
  C   C2087     1.0  0.45730  0.78268  0.20423  1.0000
  H   H3309     1.0  0.05646  0.75976  0.97364  1.0000
  C   C2088     1.0  0.35254  0.74613  0.17881  1.0000
  C   C2089     1.0  0.01596  0.90880  0.10240  1.0000
  S   S836      1.0  0.98992  0.94374  0.12688  1.0000
  H   H3310     1.0  0.00235  0.94532  0.17382  1.0000
  H   H3311     1.0  0.12609  0.76715  0.19466  1.0000
  H   H3312     1.0  0.44475  0.78683  0.20606  1.0000
  C   C2090     1.0  0.15587  0.80840  0.18761  1.0000
  H   H3313     1.0  0.30924  0.96280  0.98162  1.0000
  H   H3314     1.0  0.16618  0.79585  0.16924  1.0000
  C   C2091     1.0  0.19157  0.94893  0.04529  1.0000
  H   H3315     1.0  0.47648  0.79913  0.16989  1.0000
  C   C2092     1.0  0.13266  0.97365  0.98117  1.0000
  H   H3316     1.0  0.32771  0.76781  0.03719  1.0000
  H   H3317     1.0  0.10943  0.74491  0.22122  1.0000
  H   H3318     1.0  0.32705  0.96809  0.98050  1.0000
  C   C2093     1.0  0.35720  0.96078  0.98561  1.0000
  C   C2094     1.0  0.15557  0.79967  0.17736  1.0000
  H   H3319     1.0  0.12549  0.81571  0.12102  1.0000
  H   H3320     1.0  0.23293  0.93168  0.16858  1.0000
  C   C2095     1.0  0.48173  0.77000  0.18959  1.0000
  H   H3321     1.0  0.48088  0.80553  0.14917  1.0000
  H   H3322     1.0  0.13317  0.93014  0.99881  1.0000
  C   C2096     1.0  0.38378  0.85218  0.01860  1.0000
  H   H3323     1.0  0.37894  0.87678  0.01811  1.0000
  S   S837      1.0  0.22359  0.89696  0.20416  1.0000
  C   C2097     1.0  0.13599  0.73866  0.18790  1.0000
  S   S838      1.0  0.40314  0.89793  0.98943  1.0000
  H   H3324     1.0  0.33341  0.74822  0.07187  1.0000
  H   H3325     1.0  0.09358  0.76037  0.01185  1.0000
  C   C2098     1.0  0.10474  0.95712  0.06344  1.0000
  S   S839      1.0  0.29295  0.73927  0.03664  1.0000
  S   S840      1.0  0.25880  0.75679  0.02746  1.0000
  Fe  Fe423     1.0  0.38414  0.91069  0.97642  1.0000
  H   H3326     1.0  0.07893  0.73773  0.99253  1.0000
  H   H3327     1.0  0.06585  0.76963  0.02411  1.0000
  C   C2099     1.0  0.07169  0.77723  0.01425  1.0000
  S   S841      1.0  0.99890  0.93412  0.20694  1.0000
  C   C2100     1.0  0.11721  0.76229  0.19247  1.0000
  Fe  Fe424     1.0  0.03890  0.85505  0.99056  1.0000
  C   C2101     1.0  0.48050  0.80860  0.16022  1.0000
  H   H3328     1.0  0.03240  0.76465  0.00362  1.0000
  N   N205      1.0  0.10930  0.93075  0.01127  1.0000
  H   H3329     1.0  0.19839  0.76100  0.05691  1.0000
  C   C2102     1.0  0.08740  0.77197  0.00733  1.0000
  H   H3330     1.0  0.19261  0.97837  0.06066  1.0000
  C   C2103     1.0  0.18853  0.77374  0.08200  1.0000
  N   N206      1.0  0.05465  0.74896  0.99794  1.0000
  N   N207      1.0  0.41537  0.94467  0.98326  1.0000
  N   N208      1.0  0.99276  0.90653  0.05767  1.0000
  Fe  Fe425     1.0  0.27118  0.75574  0.04587  1.0000
  N   N209      1.0  0.12059  0.74504  0.19716  1.0000
  H   H3331     1.0  0.21606  0.75854  0.08970  1.0000
  H   H3332     1.0  0.19239  0.82459  0.21107  1.0000
  C   C2104     1.0  0.09897  0.93506  0.02575  1.0000
  C   C2105     1.0  0.19732  0.96772  0.05573  1.0000
  H   H3333     1.0  0.07339  0.74656  0.00891  1.0000
  S   S842      1.0  0.02882  0.83719  0.98643  1.0000
  C   C2106     1.0  0.36661  0.94914  0.97770  1.0000
  H   H3334     1.0  0.17757  0.95027  0.07522  1.0000
  H   H3335     1.0  0.01657  0.90798  0.04653  1.0000
  S   S843      1.0  0.14748  0.73681  0.98275  1.0000
  Fe  Fe426     1.0  0.25012  0.73613  0.04382  1.0000
  C   C2107     1.0  0.21033  0.78623  0.06981  1.0000
  H   H3336     1.0  0.42230  0.81229  0.21385  1.0000
  H   H3337     1.0  0.18903  0.77445  0.09374  1.0000
  H   H3338     1.0  0.04660  0.97236  0.07855  1.0000
  H   H3339     1.0  0.41247  0.96958  0.97919  1.0000
  H   H3340     1.0  0.24560  0.91555  0.17832  1.0000
  H   H3341     1.0  0.23384  0.93081  0.18808  1.0000
  C   C2108     1.0  0.10320  0.94107  0.99770  1.0000
  C   C2109     1.0  0.21482  0.75811  0.07809  1.0000
  H   H3342     1.0  0.07524  0.75858  0.98950  1.0000
  H   H3343     1.0  0.16891  0.97256  0.03648  1.0000
  H   H3344     1.0  0.04926  0.96499  0.11277  1.0000
  C   C2110     1.0  0.12850  0.80899  0.19924  1.0000
  C   C2111     1.0  0.26475  0.90442  0.21816  1.0000
  Fe  Fe427     1.0  0.39924  0.87635  0.98523  1.0000
  H   H3345     1.0  0.15967  0.86810  0.20207  1.0000
  H   H3346     1.0  0.35540  0.84831  0.98816  1.0000
  H   H3347     1.0  0.33838  0.75685  0.14591  1.0000
  C   C2112     1.0  0.08706  0.79695  0.98915  1.0000
  H   H3348     1.0  0.00040  0.88182  0.06621  1.0000
  H   H3349     1.0  0.40789  0.74416  0.17532  1.0000
  C   C2113     1.0  0.23688  0.90984  0.21954  1.0000
  H   H3350     1.0  0.10562  0.76761  0.19900  1.0000
  C   C2114     1.0  0.26718  0.89359  0.20903  1.0000
  H   H3351     1.0  0.99267  0.82398  0.00101  1.0000
  H   H3352     1.0  0.09134  0.93978  0.99809  1.0000
  H   H3353     1.0  0.99360  0.96808  0.18835  1.0000
  H   H3354     1.0  0.10240  0.95359  0.99720  1.0000
  H   H3355     1.0  0.32755  0.75493  0.16580  1.0000
  C   C2115     1.0  0.05793  0.93799  0.10319  1.0000
  C   C2116     1.0  0.26283  0.74018  0.98890  1.0000
  C   C2117     1.0  0.03395  0.94760  0.09400  1.0000
  H   H3356     1.0  0.19066  0.73700  0.02227  1.0000
  H   H3357     1.0  0.32648  0.73781  0.05300  1.0000
  H   H3358     1.0  0.04594  0.76313  0.01511  1.0000
  H   H3359     1.0  0.29201  0.78149  0.97309  1.0000
  H   H3360     1.0  0.06432  0.96549  0.08555  1.0000
  C   C2118     1.0  0.36577  0.85315  0.98120  1.0000
  C   C2119     1.0  0.05478  0.96164  0.08326  1.0000
  H   H3361     1.0  0.32850  0.73989  0.09232  1.0000
  N   N210      1.0  0.17646  0.84709  0.20879  1.0000
  S   S844      1.0  0.11416  0.73579  0.97636  1.0000
  H   H3362     1.0  0.03163  0.97243  0.10562  1.0000
  S   S845      1.0  0.29136  0.73836  0.99456  1.0000
  H   H3363     1.0  0.15673  0.85075  0.19879  1.0000
  H   H3364     1.0  0.39096  0.95579  0.98780  1.0000
  C   C2120     1.0  0.07126  0.74796  0.99717  1.0000
  H   H3365     1.0  0.28132  0.76776  0.97318  1.0000
  H   H3366     1.0  0.99519  0.90437  0.97561  1.0000
  H   H3367     1.0  0.34067  0.73812  0.15919  1.0000
  H   H3368     1.0  0.00084  0.97936  0.19671  1.0000
  H   H3369     1.0  0.14543  0.74305  0.18969  1.0000
  H   H3370     1.0  0.09298  0.80456  0.97936  1.0000
  S   S846      1.0  0.28103  0.90880  0.22122  1.0000
  C   C2121     1.0  0.27909  0.73592  0.98409  1.0000
  C   C2122     1.0  0.38270  0.82746  0.98398  1.0000
  S   S847      1.0  0.22485  0.73486  0.04949  1.0000
  S   S848      1.0  0.09518  0.97554  0.06761  1.0000
  H   H3371     1.0  0.18278  0.86685  0.21191  1.0000
  H   H3372     1.0  0.10781  0.74257  0.18184  1.0000
  H   H3373     1.0  0.05142  0.73409  0.02087  1.0000
  H   H3374     1.0  0.19526  0.85857  0.19597  1.0000
  C   C2123     1.0  0.12492  0.97550  0.99628  1.0000
  C   C2124     1.0  0.04972  0.73508  0.00903  1.0000
  H   H3375     1.0  0.43238  0.95874  0.97731  1.0000
  C   C2125     1.0  0.99148  0.97978  0.19094  1.0000
  H   H3376     1.0  0.31335  0.75087  0.08203  1.0000
  H   H3377     1.0  0.43823  0.92972  0.98329  1.0000
  S   S849      1.0  0.37873  0.88890  0.97442  1.0000
  C   C2126     1.0  0.99084  0.94283  0.17867  1.0000
  H   H3378     1.0  0.30661  0.73965  0.06382  1.0000
  C   C2127     1.0  0.98727  0.89647  0.97725  1.0000
  H   H3379     1.0  0.18675  0.97922  0.02948  1.0000
  S   S850      1.0  0.07894  0.76344  0.22199  1.0000
  H   H3380     1.0  0.36155  0.86413  0.97306  1.0000
  C   C2128     1.0  0.13230  0.97993  0.00535  1.0000
  N   N211      1.0  0.37753  0.84183  0.97269  1.0000
  H   H3381     1.0  0.40795  0.73006  0.15580  1.0000
  H   H3382     1.0  0.43898  0.88110  0.40322  1.0000
  H   H3383     1.0  0.34796  0.76055  0.24243  1.0000
  H   H3384     1.0  0.06925  0.77385  0.27401  1.0000
  H   H3385     1.0  0.14497  0.77844  0.35794  1.0000
  H   H3386     1.0  0.18189  0.88568  0.26216  1.0000
  H   H3387     1.0  0.35928  0.77493  0.23903  1.0000
  H   H3388     1.0  0.03108  0.81626  0.25255  1.0000
  S   S851      1.0  0.09823  0.83147  0.23391  1.0000
  S   S852      1.0  0.20151  0.77972  0.44166  1.0000
  H   H3389     1.0  0.32610  0.96633  0.26937  1.0000
  H   H3390     1.0  0.36396  0.84931  0.22930  1.0000
  C   C2129     1.0  0.35158  0.90899  0.25784  1.0000
  Fe  Fe428     1.0  0.42648  0.87046  0.28812  1.0000
  S   S853      1.0  0.42809  0.84540  0.28828  1.0000
  S   S854      1.0  0.44266  0.87261  0.30178  1.0000
  Fe  Fe429     1.0  0.40221  0.85116  0.29670  1.0000
  S   S855      1.0  0.39251  0.83417  0.31750  1.0000
  S   S856      1.0  0.40060  0.87573  0.29793  1.0000
  S   S857      1.0  0.45195  0.93092  0.37647  1.0000
  H   H3391     1.0  0.35987  0.76761  0.26725  1.0000
  H   H3392     1.0  0.36487  0.88322  0.28860  1.0000
  Fe  Fe430     1.0  0.15281  0.92445  0.30360  1.0000
  S   S858      1.0  0.12673  0.93295  0.30735  1.0000
  S   S859      1.0  0.16957  0.93748  0.28520  1.0000
  Fe  Fe431     1.0  0.15068  0.89456  0.32778  1.0000
  S   S860      1.0  0.12451  0.90013  0.33376  1.0000
  S   S861      1.0  0.16693  0.87336  0.33814  1.0000
  Fe  Fe432     1.0  0.12658  0.90823  0.30794  1.0000
  S   S862      1.0  0.11089  0.90363  0.29543  1.0000
  Fe  Fe433     1.0  0.12689  0.92425  0.33276  1.0000
  S   S863      1.0  0.11088  0.93659  0.35139  1.0000
  S   S864      1.0  0.15267  0.90049  0.30196  1.0000
  S   S865      1.0  0.15294  0.91793  0.32904  1.0000
  S   S866      1.0  0.27618  0.90195  0.26593  1.0000
  H   H3393     1.0  0.42844  0.73261  0.45385  1.0000
  S   S867      1.0  0.27480  0.93210  0.27970  1.0000
  Fe  Fe434     1.0  0.29317  0.91341  0.26943  1.0000
  S   S868      1.0  0.31049  0.89840  0.28384  1.0000
  Fe  Fe435     1.0  0.25790  0.92157  0.27456  1.0000
  S   S869      1.0  0.23898  0.91317  0.29421  1.0000
  S   S870      1.0  0.25771  0.93711  0.25068  1.0000
  C   C2130     1.0  0.46691  0.73373  0.44215  1.0000
  H   H3394     1.0  0.10028  0.79871  0.23742  1.0000
  H   H3395     1.0  0.45903  0.79091  0.22342  1.0000
  C   C2131     1.0  0.34098  0.88951  0.28610  1.0000
  H   H3396     1.0  0.22524  0.91652  0.22321  1.0000
  H   H3397     1.0  0.18511  0.84183  0.33788  1.0000
  S   S871      1.0  0.42432  0.87864  0.26305  1.0000
  Fe  Fe436     1.0  0.16205  0.81322  0.40869  1.0000
  S   S872      1.0  0.16536  0.80070  0.38978  1.0000
  S   S873      1.0  0.14496  0.83650  0.40664  1.0000
  Fe  Fe437     1.0  0.18631  0.78845  0.42410  1.0000
  S   S874      1.0  0.19170  0.77400  0.40630  1.0000
  H   H3398     1.0  0.34405  0.78723  0.45071  1.0000
  Fe  Fe438     1.0  0.19082  0.79677  0.38892  1.0000
  S   S875      1.0  0.20873  0.79838  0.36631  1.0000
  Fe  Fe439     1.0  0.16578  0.77904  0.40878  1.0000
  S   S876      1.0  0.15428  0.75933  0.41099  1.0000
  S   S877      1.0  0.18764  0.81089  0.40646  1.0000
  S   S878      1.0  0.16026  0.79185  0.42811  1.0000
  Fe  Fe440     1.0  0.30997  0.82465  0.34547  1.0000
  S   S879      1.0  0.31985  0.80377  0.36262  1.0000
  S   S880      1.0  0.32178  0.83717  0.32234  1.0000
  Fe  Fe441     1.0  0.27701  0.82768  0.36469  1.0000
  S   S881      1.0  0.28375  0.80749  0.38378  1.0000
  S   S882      1.0  0.25228  0.84142  0.36558  1.0000
  Fe  Fe442     1.0  0.30462  0.81739  0.38048  1.0000
  S   S883      1.0  0.31183  0.81781  0.40192  1.0000
  Fe  Fe443     1.0  0.29827  0.79566  0.36444  1.0000
  S   S884      1.0  0.29702  0.77094  0.36643  1.0000
  S   S885      1.0  0.29640  0.83890  0.36323  1.0000
  S   S886      1.0  0.28993  0.81514  0.34553  1.0000
  Fe  Fe444     1.0  0.46984  0.92052  0.45008  1.0000
  S   S887      1.0  0.46751  0.90089  0.44131  1.0000
  H   H3399     1.0  0.26463  0.77567  0.38863  1.0000
  H   H3400     1.0  0.05089  0.89392  0.22949  1.0000
  H   H3401     1.0  0.31863  0.96648  0.28973  1.0000
  H   H3402     1.0  0.37583  0.77075  0.43306  1.0000
  C   C2132     1.0  0.11302  0.97081  0.37045  1.0000
  H   H3403     1.0  0.12970  0.77395  0.28733  1.0000
  Fe  Fe445     1.0  0.39236  0.81326  0.43535  1.0000
  S   S888      1.0  0.36750  0.82642  0.43715  1.0000
  S   S889      1.0  0.39691  0.78738  0.43702  1.0000
  Fe  Fe446     1.0  0.40467  0.84289  0.42713  1.0000
  S   S890      1.0  0.38085  0.85860  0.42805  1.0000
  S   S891      1.0  0.42655  0.85214  0.42065  1.0000
  Fe  Fe447     1.0  0.37384  0.84077  0.44970  1.0000
  Fe  Fe448     1.0  0.37670  0.84280  0.41540  1.0000
  S   S892      1.0  0.36697  0.85056  0.39374  1.0000
  S   S893      1.0  0.39811  0.82626  0.44979  1.0000
  S   S894      1.0  0.40123  0.82855  0.41261  1.0000
  Fe  Fe449     1.0  0.11968  0.83416  0.26393  1.0000
  S   S895      1.0  0.12115  0.85010  0.24031  1.0000
  S   S896      1.0  0.13162  0.83565  0.28163  1.0000
  Fe  Fe450     1.0  0.09879  0.81692  0.25804  1.0000
  H   H3404     1.0  0.43285  0.75765  0.45586  1.0000
  H   H3405     1.0  0.45610  0.81334  0.25360  1.0000
  H   H3406     1.0  0.21116  0.87796  0.25532  1.0000
  C   C2133     1.0  0.00757  0.93749  0.29578  1.0000
  Fe  Fe451     1.0  0.09543  0.85153  0.24482  1.0000
  S   S897      1.0  0.07893  0.87442  0.23827  1.0000
  S   S898      1.0  0.12471  0.81234  0.25503  1.0000
  S   S899      1.0  0.09372  0.83726  0.26921  1.0000
  H   H3407     1.0  0.08231  0.91086  0.26005  1.0000
  S   S900      1.0  0.00788  0.87707  0.27092  1.0000
  H   H3408     1.0  0.42094  0.92365  0.39292  1.0000
  Fe  Fe452     1.0  0.46749  0.93766  0.35291  1.0000
  C   C2134     1.0  0.42409  0.82969  0.24166  1.0000
  C   C2135     1.0  0.05023  0.84565  0.23417  1.0000
  H   H3409     1.0  0.18239  0.90070  0.24457  1.0000
  C   C2136     1.0  0.05924  0.81821  0.23371  1.0000
  H   H3410     1.0  0.33684  0.88220  0.29721  1.0000
  H   H3411     1.0  0.48063  0.95270  0.40010  1.0000
  C   C2137     1.0  0.06823  0.88821  0.27892  1.0000
  C   C2138     1.0  0.09277  0.79048  0.24134  1.0000
  C   C2139     1.0  0.11742  0.77286  0.29270  1.0000
  Fe  Fe453     1.0  0.99203  0.89859  0.26016  1.0000
  C   C2140     1.0  0.05924  0.87492  0.24735  1.0000
  C   C2141     1.0  0.05497  0.86463  0.26149  1.0000
  C   C2142     1.0  0.03915  0.86549  0.26878  1.0000
  C   C2143     1.0  0.02756  0.87646  0.26184  1.0000
  C   C2144     1.0  0.03182  0.88667  0.24764  1.0000
  C   C2145     1.0  0.04765  0.88597  0.24047  1.0000
  H   H3412     1.0  0.06381  0.85620  0.26696  1.0000
  H   H3413     1.0  0.03586  0.85766  0.27982  1.0000
  H   H3414     1.0  0.02293  0.89500  0.24208  1.0000
  H   H3415     1.0  0.40611  0.87662  0.46569  1.0000
  H   H3416     1.0  0.99784  0.97598  0.29695  1.0000
  C   C2146     1.0  0.31178  0.94456  0.26889  1.0000
  C   C2147     1.0  0.41509  0.86508  0.44639  1.0000
  C   C2148     1.0  0.42819  0.86061  0.43496  1.0000
  C   C2149     1.0  0.44252  0.86369  0.43444  1.0000
  C   C2150     1.0  0.44381  0.87112  0.44539  1.0000
  C   C2151     1.0  0.25133  0.78890  0.41348  1.0000
  H   H3417     1.0  0.40393  0.86294  0.44670  1.0000
  H   H3418     1.0  0.45270  0.86019  0.42565  1.0000
  H   H3419     1.0  0.48176  0.81608  0.22412  1.0000
  C   C2152     1.0  0.32622  0.82832  0.39905  1.0000
  C   C2153     1.0  0.33556  0.83269  0.38429  1.0000
  C   C2154     1.0  0.34781  0.83996  0.38261  1.0000
  C   C2155     1.0  0.35078  0.84276  0.39570  1.0000
  C   C2156     1.0  0.34112  0.83882  0.41035  1.0000
  C   C2157     1.0  0.32890  0.83160  0.41202  1.0000
  H   H3420     1.0  0.33351  0.83025  0.37422  1.0000
  H   H3421     1.0  0.35511  0.84311  0.37121  1.0000
  H   H3422     1.0  0.34296  0.84146  0.42039  1.0000
  H   H3423     1.0  0.32151  0.82850  0.42340  1.0000
  C   C2158     1.0  0.22035  0.81144  0.36450  1.0000
  C   C2159     1.0  0.23616  0.80820  0.35716  1.0000
  C   C2160     1.0  0.24597  0.81755  0.35720  1.0000
  C   C2161     1.0  0.23992  0.83040  0.36425  1.0000
  C   C2162     1.0  0.22391  0.83417  0.37080  1.0000
  C   C2163     1.0  0.21417  0.82461  0.37105  1.0000
  H   H3424     1.0  0.24098  0.79810  0.35194  1.0000
  H   H3425     1.0  0.25822  0.81467  0.35191  1.0000
  H   H3426     1.0  0.21913  0.84419  0.37613  1.0000
  H   H3427     1.0  0.20190  0.82740  0.37639  1.0000
  H   H3428     1.0  0.08802  0.96272  0.31161  1.0000
  H   H3429     1.0  0.40596  0.92090  0.38543  1.0000
  H   H3430     1.0  0.33315  0.79851  0.42081  1.0000
  H   H3431     1.0  0.13527  0.74050  0.40827  1.0000
  C   C2164     1.0  0.38479  0.75502  0.24722  1.0000
  C   C2165     1.0  0.99730  0.96513  0.29476  1.0000
  S   S901      1.0  0.01709  0.96762  0.34609  1.0000
  H   H3432     1.0  0.04207  0.85457  0.24052  1.0000
  N   N212      1.0  0.11030  0.78177  0.30514  1.0000
  H   H3433     1.0  0.48622  0.89465  0.28231  1.0000
  H   H3434     1.0  0.26607  0.96711  0.27954  1.0000
  C   C2166     1.0  0.11912  0.77549  0.31764  1.0000
  H   H3435     1.0  0.39758  0.90373  0.41087  1.0000
  N   N213      1.0  0.36887  0.75204  0.25137  1.0000
  C   C2167     1.0  0.07542  0.77634  0.26195  1.0000
  C   C2168     1.0  0.14922  0.77020  0.38116  1.0000
  C   C2169     1.0  0.14645  0.75957  0.39541  1.0000
  S   S902      1.0  0.09871  0.73723  0.31149  1.0000
  H   H3436     1.0  0.36385  0.85700  0.27324  1.0000
  C   C2170     1.0  0.11070  0.79844  0.29860  1.0000
  H   H3437     1.0  0.15627  0.77845  0.37957  1.0000
  C   C2171     1.0  0.41006  0.89877  0.41143  1.0000
  H   H3438     1.0  0.33258  0.93879  0.29622  1.0000
  N   N214      1.0  0.35532  0.78695  0.42673  1.0000
  H   H3439     1.0  0.25392  0.80073  0.40836  1.0000
  H   H3440     1.0  0.16891  0.80043  0.34388  1.0000
  C   C2172     1.0  0.07365  0.91404  0.27060  1.0000
  C   C2173     1.0  0.11695  0.88474  0.29158  1.0000
  C   C2174     1.0  0.12781  0.87317  0.29905  1.0000
  C   C2175     1.0  0.13230  0.85808  0.29598  1.0000
  C   C2176     1.0  0.12597  0.85454  0.28543  1.0000
  C   C2177     1.0  0.11518  0.86615  0.27793  1.0000
  C   C2178     1.0  0.11072  0.88120  0.28098  1.0000
  H   H3441     1.0  0.13262  0.87579  0.30731  1.0000
  H   H3442     1.0  0.14063  0.84914  0.30182  1.0000
  H   H3443     1.0  0.11030  0.86356  0.26972  1.0000
  H   H3444     1.0  0.10263  0.89016  0.27492  1.0000
  C   C2179     1.0  0.15081  0.84812  0.38820  1.0000
  C   C2180     1.0  0.13973  0.85866  0.38022  1.0000
  C   C2181     1.0  0.14455  0.86691  0.36491  1.0000
  C   C2182     1.0  0.16045  0.86476  0.35774  1.0000
  C   C2183     1.0  0.17149  0.85478  0.36600  1.0000
  C   C2184     1.0  0.16667  0.84640  0.38112  1.0000
  H   H3445     1.0  0.12742  0.85995  0.38566  1.0000
  H   H3446     1.0  0.13594  0.87449  0.35854  1.0000
  H   H3447     1.0  0.18383  0.85335  0.36065  1.0000
  H   H3448     1.0  0.17526  0.83866  0.38736  1.0000
  C   C2185     1.0  0.18865  0.93172  0.28837  1.0000
  C   C2186     1.0  0.19224  0.91991  0.30116  1.0000
  C   C2187     1.0  0.20770  0.91451  0.30295  1.0000
  C   C2188     1.0  0.21969  0.92077  0.29190  1.0000
  C   C2189     1.0  0.21615  0.93263  0.27913  1.0000
  C   C2190     1.0  0.20062  0.93817  0.27742  1.0000
  H   H3449     1.0  0.18319  0.91466  0.30951  1.0000
  H   H3450     1.0  0.21039  0.90530  0.31283  1.0000
  H   H3451     1.0  0.22535  0.93759  0.27062  1.0000
  H   H3452     1.0  0.19790  0.94732  0.26752  1.0000
  S   S903      1.0  0.08538  0.79810  0.26983  1.0000
  H   H3453     1.0  0.31452  0.73321  0.33299  1.0000
  H   H3454     1.0  0.44021  0.73469  0.43446  1.0000
  C   C2191     1.0  0.13750  0.96520  0.35195  1.0000
  C   C2192     1.0  0.13205  0.95437  0.34772  1.0000
  C   C2193     1.0  0.11728  0.95135  0.35522  1.0000
  C   C2194     1.0  0.10771  0.95970  0.36648  1.0000
  C   C2195     1.0  0.34082  0.78663  0.42280  1.0000
  C   C2196     1.0  0.34913  0.86781  0.24972  1.0000
  H   H3455     1.0  0.13941  0.94823  0.33883  1.0000
  H   H3456     1.0  0.09621  0.95751  0.37227  1.0000
  H   H3457     1.0  0.16523  0.73438  0.37667  1.0000
  C   C2197     1.0  0.44739  0.93130  0.40705  1.0000
  C   C2198     1.0  0.45108  0.93412  0.41971  1.0000
  H   H3458     1.0  0.43820  0.92520  0.40913  1.0000
  H   H3459     1.0  0.44468  0.93025  0.43143  1.0000
  C   C2199     1.0  0.37268  0.83561  0.31920  1.0000
  C   C2200     1.0  0.36505  0.84569  0.30773  1.0000
  C   C2201     1.0  0.34936  0.84615  0.30878  1.0000
  C   C2202     1.0  0.34120  0.83683  0.32151  1.0000
  C   C2203     1.0  0.34868  0.82722  0.33331  1.0000
  C   C2204     1.0  0.36447  0.82651  0.33209  1.0000
  H   H3460     1.0  0.37125  0.85304  0.29802  1.0000
  H   H3461     1.0  0.34349  0.85370  0.29977  1.0000
  H   H3462     1.0  0.34241  0.82014  0.34322  1.0000
  H   H3463     1.0  0.37032  0.81880  0.34106  1.0000
  C   C2205     1.0  0.33041  0.89858  0.27680  1.0000
  C   C2206     1.0  0.33580  0.90809  0.26250  1.0000
  H   H3464     1.0  0.32782  0.91486  0.25508  1.0000
  H   H3465     1.0  0.35569  0.91658  0.24691  1.0000
  C   C2207     1.0  0.44547  0.89080  0.30222  1.0000
  C   C2208     1.0  0.44047  0.90452  0.29175  1.0000
  C   C2209     1.0  0.45569  0.93615  0.39188  1.0000
  C   C2210     1.0  0.45640  0.90549  0.31344  1.0000
  C   C2211     1.0  0.45339  0.89135  0.31308  1.0000
  H   H3466     1.0  0.43439  0.90420  0.28331  1.0000
  H   H3467     1.0  0.46252  0.90573  0.32183  1.0000
  H   H3468     1.0  0.45726  0.88075  0.32121  1.0000
  H   H3469     1.0  0.42602  0.91718  0.37507  1.0000
  N   N215      1.0  0.45083  0.73740  0.45150  1.0000
  C   C2212     1.0  0.12803  0.97342  0.36334  1.0000
  C   C2213     1.0  0.19587  0.78882  0.45754  1.0000
  N   N216      1.0  0.04887  0.82963  0.24292  1.0000
  H   H3470     1.0  0.05233  0.94617  0.32762  1.0000
  H   H3471     1.0  0.17913  0.80171  0.35741  1.0000
  S   S904      1.0  0.47641  0.91944  0.33856  1.0000
  H   H3472     1.0  0.09381  0.95769  0.32986  1.0000
  C   C2214     1.0  0.23959  0.76922  0.41120  1.0000
  C   C2215     1.0  0.36451  0.84829  0.26654  1.0000
  H   H3473     1.0  0.05320  0.81426  0.26456  1.0000
  S   S905      1.0  0.33998  0.74369  0.30873  1.0000
  S   S906      1.0  0.05179  0.73610  0.25346  1.0000
  H   H3474     1.0  0.14980  0.82428  0.34913  1.0000
  C   C2216     1.0  0.46837  0.80726  0.25424  1.0000
  H   H3475     1.0  0.11901  0.76293  0.32285  1.0000
  H   H3476     1.0  0.05296  0.96611  0.32552  1.0000
  H   H3477     1.0  0.37554  0.83931  0.26740  1.0000
  H   H3478     1.0  0.41321  0.90524  0.41835  1.0000
  H   H3479     1.0  0.44016  0.92916  0.28356  1.0000
  C   C2217     1.0  0.40649  0.81153  0.23631  1.0000
  C   C2218     1.0  0.30185  0.94462  0.29619  1.0000
  H   H3480     1.0  0.37532  0.79730  0.41610  1.0000
  S   S907      1.0  0.46867  0.94387  0.43322  1.0000
  C   C2219     1.0  0.35683  0.89010  0.28126  1.0000
  H   H3481     1.0  0.05607  0.90678  0.29950  1.0000
  Fe  Fe454     1.0  0.11722  0.73839  0.35650  1.0000
  H   H3482     1.0  0.08673  0.74563  0.28400  1.0000
  H   H3483     1.0  0.45080  0.97383  0.41760  1.0000
  H   H3484     1.0  0.17508  0.83629  0.23309  1.0000
  S   S908      1.0  0.29644  0.92797  0.24512  1.0000
  H   H3485     1.0  0.04715  0.92144  0.26009  1.0000
  H   H3486     1.0  0.34458  0.80620  0.43815  1.0000
  H   H3487     1.0  0.40883  0.82809  0.26445  1.0000
  C   C2220     1.0  0.47114  0.94703  0.40205  1.0000
  S   S909      1.0  0.43480  0.84166  0.24451  1.0000
  C   C2221     1.0  0.32664  0.75206  0.32375  1.0000
  C   C2222     1.0  0.32772  0.76643  0.32559  1.0000
  C   C2223     1.0  0.31815  0.77262  0.33836  1.0000
  C   C2224     1.0  0.30762  0.76435  0.34942  1.0000
  S   S910      1.0  0.39448  0.80116  0.23302  1.0000
  S   S911      1.0  0.02165  0.95125  0.30961  1.0000
  H   H3488     1.0  0.33614  0.77266  0.31728  1.0000
  H   H3489     1.0  0.31922  0.78360  0.33984  1.0000
  H   H3490     1.0  0.35807  0.73285  0.25462  1.0000
  N   N217      1.0  0.39703  0.85617  0.34790  1.0000
  C   C2225     1.0  0.38295  0.86463  0.34170  1.0000
  C   C2226     1.0  0.39543  0.84005  0.35601  1.0000
  C   C2227     1.0  0.39868  0.86433  0.35900  1.0000
  C   C2228     1.0  0.41104  0.85567  0.33497  1.0000
  H   H3491     1.0  0.38375  0.87680  0.33538  1.0000
  H   H3492     1.0  0.37219  0.86518  0.35120  1.0000
  H   H3493     1.0  0.38125  0.85875  0.33336  1.0000
  H   H3494     1.0  0.40580  0.83328  0.36089  1.0000
  H   H3495     1.0  0.38497  0.84002  0.36581  1.0000
  H   H3496     1.0  0.39408  0.83358  0.34799  1.0000
  H   H3497     1.0  0.38815  0.86521  0.36872  1.0000
  H   H3498     1.0  0.40019  0.87642  0.35317  1.0000
  H   H3499     1.0  0.40892  0.85801  0.36427  1.0000
  H   H3500     1.0  0.42189  0.84942  0.33923  1.0000
  H   H3501     1.0  0.41259  0.86761  0.32847  1.0000
  H   H3502     1.0  0.41029  0.84950  0.32640  1.0000
  Fe  Fe455     1.0  0.48221  0.96202  0.32764  1.0000
  N   N218      1.0  0.31491  0.94743  0.28269  1.0000
  C   C2229     1.0  0.32958  0.93668  0.28614  1.0000
  N   N219      1.0  0.17450  0.82279  0.34014  1.0000
  H   H3503     1.0  0.22237  0.89250  0.25135  1.0000
  H   H3504     1.0  0.15591  0.84219  0.34576  1.0000
  H   H3505     1.0  0.34329  0.78228  0.41196  1.0000
  H   H3506     1.0  0.05862  0.80597  0.24003  1.0000
  H   H3507     1.0  0.06386  0.95599  0.31029  1.0000
  H   H3508     1.0  0.06878  0.92687  0.26776  1.0000
  H   H3509     1.0  0.36046  0.74319  0.35085  1.0000
  H   H3510     1.0  0.26264  0.78044  0.41450  1.0000
  H   H3511     1.0  0.18951  0.80028  0.33808  1.0000
  H   H3512     1.0  0.24404  0.78904  0.42547  1.0000
  H   H3513     1.0  0.24761  0.92086  0.23058  1.0000
  H   H3514     1.0  0.45498  0.87313  0.44515  1.0000
  Fe  Fe456     1.0  0.42316  0.85399  0.26440  1.0000
  H   H3515     1.0  0.20827  0.89947  0.27733  1.0000
  H   H3516     1.0  0.04475  0.92229  0.28757  1.0000
  H   H3517     1.0  0.07651  0.88449  0.26841  1.0000
  H   H3518     1.0  0.06553  0.82801  0.25617  1.0000
  S   S912      1.0  0.39729  0.85767  0.27287  1.0000
  N   N220      1.0  0.06119  0.90514  0.27553  1.0000
  H   H3519     1.0  0.41803  0.87748  0.39375  1.0000
  H   H3520     1.0  0.01567  0.92676  0.29939  1.0000
  C   C2230     1.0  0.36005  0.76238  0.23967  1.0000
  H   H3521     1.0  0.36791  0.79151  0.40283  1.0000
  H   H3522     1.0  0.32153  0.94613  0.25851  1.0000
  C   C2231     1.0  0.08471  0.78743  0.25689  1.0000
  C   C2232     1.0  0.31639  0.96380  0.27953  1.0000
  C   C2233     1.0  0.34900  0.74143  0.35857  1.0000
  H   H3523     1.0  0.15982  0.82684  0.36221  1.0000
  C   C2234     1.0  0.08152  0.77204  0.23572  1.0000
  C   C2235     1.0  0.47423  0.83066  0.25642  1.0000
  C   C2236     1.0  0.17812  0.80555  0.34504  1.0000
  H   H3524     1.0  0.36582  0.76013  0.22781  1.0000
  C   C2237     1.0  0.99628  0.93733  0.28811  1.0000
  Fe  Fe457     1.0  0.27648  0.94590  0.25504  1.0000
  C   C2238     1.0  0.47841  0.82519  0.23108  1.0000
  N   N221      1.0  0.36386  0.85587  0.25016  1.0000
  H   H3525     1.0  0.47922  0.97300  0.41437  1.0000
  H   H3526     1.0  0.47623  0.90324  0.39100  1.0000
  H   H3527     1.0  0.37555  0.83487  0.24167  1.0000
  C   C2239     1.0  0.13748  0.74871  0.39725  1.0000
  H   H3528     1.0  0.17249  0.90561  0.26309  1.0000
  H   H3529     1.0  0.15064  0.73070  0.35944  1.0000
  Fe  Fe458     1.0  0.06982  0.74138  0.23156  1.0000
  H   H3530     1.0  0.48539  0.91706  0.37566  1.0000
  C   C2240     1.0  0.08353  0.96115  0.32443  1.0000
  H   H3531     1.0  0.46640  0.83181  0.22993  1.0000
  C   C2241     1.0  0.40288  0.78142  0.46614  1.0000
  Fe  Fe459     1.0  0.45437  0.89299  0.46562  1.0000
  H   H3532     1.0  0.46212  0.83742  0.25587  1.0000
  C   C2242     1.0  0.24953  0.91237  0.22366  1.0000
  H   H3533     1.0  0.99575  0.92650  0.28582  1.0000
  H   H3534     1.0  0.46851  0.80176  0.26667  1.0000
  C   C2243     1.0  0.41640  0.88998  0.38742  1.0000
  C   C2244     1.0  0.43068  0.87571  0.45674  1.0000
  H   H3535     1.0  0.42392  0.89041  0.37548  1.0000
  H   H3536     1.0  0.09322  0.76784  0.31686  1.0000
  C   C2245     1.0  0.36447  0.79648  0.41341  1.0000
  H   H3537     1.0  0.39732  0.75492  0.44960  1.0000
  C   C2246     1.0  0.18289  0.80129  0.45882  1.0000
  C   C2247     1.0  0.41632  0.87278  0.45713  1.0000
  H   H3538     1.0  0.30039  0.93236  0.29881  1.0000
  H   H3539     1.0  0.02439  0.83670  0.25286  1.0000
  H   H3540     1.0  0.11083  0.77705  0.28324  1.0000
  C   C2248     1.0  0.05346  0.82647  0.25793  1.0000
  C   C2249     1.0  0.09392  0.78025  0.31163  1.0000
  H   H3541     1.0  0.12398  0.74043  0.38659  1.0000
  H   H3542     1.0  0.36785  0.76522  0.42011  1.0000
  H   H3543     1.0  0.99147  0.73306  0.22593  1.0000
  H   H3544     1.0  0.19871  0.82357  0.33596  1.0000
  Fe  Fe460     1.0  0.27755  0.91819  0.24250  1.0000
  C   C2250     1.0  0.13381  0.75935  0.37079  1.0000
  H   H3545     1.0  0.08700  0.78452  0.30243  1.0000
  H   H3546     1.0  0.38451  0.76746  0.24664  1.0000
  H   H3547     1.0  0.44013  0.90027  0.40369  1.0000
  H   H3548     1.0  0.34681  0.74699  0.36858  1.0000
  C   C2251     1.0  0.22858  0.79656  0.40247  1.0000
  H   H3549     1.0  0.11403  0.78184  0.32731  1.0000
  H   H3550     1.0  0.44422  0.75968  0.43631  1.0000
  H   H3551     1.0  0.37708  0.87259  0.24873  1.0000
  H   H3552     1.0  0.22069  0.79721  0.41412  1.0000
  C   C2252     1.0  0.16741  0.84355  0.22500  1.0000
  C   C2253     1.0  0.35130  0.79387  0.44053  1.0000
  H   H3553     1.0  0.04332  0.90217  0.26621  1.0000
  H   H3554     1.0  0.10398  0.80352  0.28926  1.0000
  H   H3555     1.0  0.10556  0.80552  0.30767  1.0000
  C   C2254     1.0  0.27141  0.97712  0.27558  1.0000
  H   H3556     1.0  0.25637  0.79596  0.38226  1.0000
  H   H3557     1.0  0.23205  0.76905  0.42311  1.0000
  N   N222      1.0  0.19756  0.90064  0.25878  1.0000
  C   C2255     1.0  0.19826  0.91722  0.25210  1.0000
  C   C2256     1.0  0.19782  0.89683  0.27549  1.0000
  C   C2257     1.0  0.21116  0.89057  0.25049  1.0000
  C   C2258     1.0  0.18295  0.89801  0.25706  1.0000
  H   H3558     1.0  0.18813  0.92516  0.25806  1.0000
  H   H3559     1.0  0.19810  0.92051  0.23949  1.0000
  H   H3560     1.0  0.20907  0.91970  0.25332  1.0000
  H   H3561     1.0  0.39180  0.74757  0.25583  1.0000
  H   H3562     1.0  0.18730  0.90372  0.28216  1.0000
  H   H3563     1.0  0.36706  0.74762  0.27611  1.0000
  C   C2259     1.0  0.08694  0.73335  0.28892  1.0000
  C   C2260     1.0  0.36451  0.84399  0.24169  1.0000
  H   H3564     1.0  0.21121  0.89300  0.23787  1.0000
  C   C2261     1.0  0.06015  0.95461  0.32316  1.0000
  H   H3565     1.0  0.29788  0.74394  0.35575  1.0000
  H   H3566     1.0  0.35831  0.76339  0.44038  1.0000
  N   N223      1.0  0.24324  0.78476  0.40382  1.0000
  H   H3567     1.0  0.23087  0.80842  0.39681  1.0000
  S   S913      1.0  0.12626  0.75939  0.35511  1.0000
  C   C2262     1.0  0.25340  0.78442  0.38814  1.0000
  H   H3568     1.0  0.39123  0.75251  0.23559  1.0000
  H   H3569     1.0  0.36199  0.79389  0.44409  1.0000
  C   C2263     1.0  0.44485  0.75453  0.44872  1.0000
  H   H3570     1.0  0.48204  0.83909  0.25172  1.0000
  C   C2264     1.0  0.20417  0.78300  0.46945  1.0000
  H   H3571     1.0  0.06114  0.95891  0.35072  1.0000
  H   H3572     1.0  0.15851  0.83694  0.22598  1.0000
  H   H3573     1.0  0.31009  0.93248  0.27109  1.0000
  H   H3574     1.0  0.38861  0.85478  0.24296  1.0000
  C   C2265     1.0  0.39981  0.77547  0.45507  1.0000
  H   H3575     1.0  0.12287  0.80007  0.29342  1.0000
  H   H3576     1.0  0.41089  0.88646  0.41808  1.0000
  S   S914      1.0  0.38164  0.90179  0.26148  1.0000
  Fe  Fe461     1.0  0.12391  0.82853  0.23167  1.0000
  H   H3577     1.0  0.08767  0.93509  0.31427  1.0000
  C   C2266     1.0  0.46735  0.94432  0.38936  1.0000
  H   H3578     1.0  0.30099  0.95267  0.26573  1.0000
  N   N224      1.0  0.27340  0.87507  0.31886  1.0000
  C   C2267     1.0  0.25925  0.87027  0.32949  1.0000
  C   C2268     1.0  0.27246  0.89165  0.31823  1.0000
  C   C2269     1.0  0.27455  0.87311  0.30307  1.0000
  C   C2270     1.0  0.28738  0.86525  0.32459  1.0000
  H   H3579     1.0  0.25958  0.85777  0.33030  1.0000
  H   H3580     1.0  0.24846  0.87746  0.32553  1.0000
  H   H3581     1.0  0.25807  0.87148  0.34156  1.0000
  H   H3582     1.0  0.28298  0.89562  0.31027  1.0000
  H   H3583     1.0  0.26207  0.89939  0.31386  1.0000
  H   H3584     1.0  0.27157  0.89358  0.32994  1.0000
  H   H3585     1.0  0.28518  0.87659  0.29481  1.0000
  H   H3586     1.0  0.26422  0.88047  0.29834  1.0000
  H   H3587     1.0  0.27529  0.86073  0.30309  1.0000
  H   H3588     1.0  0.29834  0.86839  0.31674  1.0000
  H   H3589     1.0  0.28839  0.85263  0.32532  1.0000
  H   H3590     1.0  0.28703  0.86649  0.33643  1.0000
  Fe  Fe462     1.0  0.39841  0.88178  0.27301  1.0000
  C   C2271     1.0  0.05274  0.90879  0.26291  1.0000
  S   S915      1.0  0.35825  0.84788  0.47151  1.0000
  H   H3591     1.0  0.34873  0.75317  0.27048  1.0000
  H   H3592     1.0  0.29059  0.95249  0.29395  1.0000
  H   H3593     1.0  0.04045  0.90319  0.29360  1.0000
  S   S916      1.0  0.27927  0.97092  0.24625  1.0000
  H   H3594     1.0  0.34834  0.87695  0.25598  1.0000
  H   H3595     1.0  0.06071  0.93893  0.35265  1.0000
  H   H3596     1.0  0.18736  0.82637  0.35472  1.0000
  H   H3597     1.0  0.40400  0.89404  0.38634  1.0000
  H   H3598     1.0  0.05914  0.88114  0.28275  1.0000
  H   H3599     1.0  0.06225  0.84743  0.23230  1.0000
  H   H3600     1.0  0.14907  0.96728  0.34634  1.0000
  H   H3601     1.0  0.06664  0.76010  0.25535  1.0000
  H   H3602     1.0  0.07689  0.97275  0.32691  1.0000
  C   C2272     1.0  0.00798  0.95136  0.29929  1.0000
  H   H3603     1.0  0.35764  0.80861  0.41027  1.0000
  H   H3604     1.0  0.06075  0.90567  0.25203  1.0000
  H   H3605     1.0  0.13154  0.77642  0.31324  1.0000
  H   H3606     1.0  0.22207  0.79372  0.39539  1.0000
  C   C2273     1.0  0.41818  0.91604  0.38691  1.0000
  C   C2274     1.0  0.41161  0.82500  0.25328  1.0000
  S   S917      1.0  0.09337  0.74044  0.35309  1.0000
  C   C2275     1.0  0.31563  0.74414  0.33446  1.0000
  N   N225      1.0  0.42037  0.89961  0.39570  1.0000
  C   C2276     1.0  0.15934  0.82928  0.34972  1.0000
  H   H3607     1.0  0.33988  0.74798  0.35184  1.0000
  C   C2277     1.0  0.36210  0.90005  0.26725  1.0000
  H   H3608     1.0  0.44496  0.89462  0.38540  1.0000
  H   H3609     1.0  0.11747  0.76020  0.29728  1.0000
  H   H3610     1.0  0.07485  0.88501  0.28828  1.0000
  H   H3611     1.0  0.08809  0.78701  0.32089  1.0000
  H   H3612     1.0  0.35462  0.84237  0.27256  1.0000
  H   H3613     1.0  0.30376  0.94670  0.30685  1.0000
  C   C2278     1.0  0.44373  0.91864  0.29193  1.0000
  C   C2279     1.0  0.30619  0.75024  0.34733  1.0000
  C   C2280     1.0  0.06816  0.94767  0.34762  1.0000
  N   N226      1.0  0.14541  0.90658  0.38015  1.0000
  C   C2281     1.0  0.15951  0.89506  0.37472  1.0000
  C   C2282     1.0  0.13193  0.90473  0.37547  1.0000
  C   C2283     1.0  0.14799  0.92257  0.37313  1.0000
  C   C2284     1.0  0.14216  0.90394  0.39731  1.0000
  H   H3614     1.0  0.17004  0.89644  0.37757  1.0000
  H   H3615     1.0  0.16199  0.89629  0.36185  1.0000
  H   H3616     1.0  0.15814  0.88286  0.38025  1.0000
  H   H3617     1.0  0.13405  0.90642  0.36261  1.0000
  H   H3618     1.0  0.12945  0.89288  0.38076  1.0000
  H   H3619     1.0  0.12114  0.91347  0.37908  1.0000
  H   H3620     1.0  0.13751  0.93159  0.37685  1.0000
  H   H3621     1.0  0.15054  0.92491  0.36019  1.0000
  H   H3622     1.0  0.15800  0.92450  0.37646  1.0000
  H   H3623     1.0  0.13158  0.91247  0.40178  1.0000
  H   H3624     1.0  0.15210  0.90521  0.40127  1.0000
  H   H3625     1.0  0.14011  0.89197  0.40298  1.0000
  H   H3626     1.0  0.33874  0.86257  0.25539  1.0000
  N   N227      1.0  0.47906  0.81817  0.24757  1.0000
  H   H3627     1.0  0.47493  0.73894  0.44532  1.0000
  C   C2285     1.0  0.39974  0.75958  0.45810  1.0000
  H   H3628     1.0  0.45232  0.76043  0.45182  1.0000
  H   H3629     1.0  0.39319  0.81242  0.25966  1.0000
  H   H3630     1.0  0.08016  0.91170  0.27993  1.0000
  C   C2286     1.0  0.18695  0.82893  0.34221  1.0000
  H   H3631     1.0  0.17091  0.84042  0.31955  1.0000
  S   S918      1.0  0.45843  0.95654  0.33391  1.0000
  C   C2287     1.0  0.14286  0.77013  0.36891  1.0000
  H   H3632     1.0  0.18487  0.82279  0.31599  1.0000
  C   C2288     1.0  0.45178  0.91916  0.30271  1.0000
  C   C2289     1.0  0.43683  0.89362  0.39706  1.0000
  C   C2290     1.0  0.46314  0.94173  0.41725  1.0000
  C   C2291     1.0  0.05014  0.90953  0.28967  1.0000
  C   C2292     1.0  0.07393  0.76854  0.25140  1.0000
  H   H3633     1.0  0.24760  0.78145  0.38049  1.0000
  S   S919      1.0  0.45720  0.93667  0.30142  1.0000
  C   C2293     1.0  0.17361  0.82744  0.32356  1.0000
  Fe  Fe463     1.0  0.46922  0.93878  0.31902  1.0000
  H   H3634     1.0  0.16428  0.82306  0.32158  1.0000
  H   H3635     1.0  0.47444  0.82579  0.26895  1.0000
  H   H3636     1.0  0.33387  0.77909  0.43233  1.0000
  C   C2294     1.0  0.40283  0.81599  0.25061  1.0000
  H   H3637     1.0  0.25039  0.75998  0.41223  1.0000
  C   C2295     1.0  0.13115  0.74861  0.38497  1.0000
  C   C2296     1.0  0.45090  0.73112  0.46820  1.0000
  C   C2297     1.0  0.37727  0.86344  0.24271  1.0000
  H   H3638     1.0  0.09330  0.92993  0.33260  1.0000
  C   C2298     1.0  0.08306  0.93422  0.32703  1.0000
  H   H3639     1.0  0.34816  0.87382  0.23755  1.0000
  N   N228      1.0  0.07372  0.94941  0.33055  1.0000
  H   H3640     1.0  0.23316  0.76595  0.40433  1.0000
  H   H3641     1.0  0.17650  0.80591  0.44962  1.0000
  C   C2299     1.0  0.36473  0.77085  0.43021  1.0000
  C   C2300     1.0  0.36079  0.75527  0.26695  1.0000
  H   H3642     1.0  0.07808  0.94388  0.35358  1.0000
  H   H3643     1.0  0.37723  0.86921  0.23030  1.0000
  C   C2301     1.0  0.41928  0.81579  0.22485  1.0000
  S   S920      1.0  0.01651  0.73467  0.23755  1.0000
  H   H3644     1.0  0.47160  0.79771  0.24782  1.0000
  H   H3645     1.0  0.05577  0.73517  0.34187  1.0000
  H   H3646     1.0  0.19795  0.88427  0.28082  1.0000
  H   H3647     1.0  0.10565  0.97709  0.37926  1.0000
  H   H3648     1.0  0.47360  0.94836  0.37769  1.0000
  H   H3649     1.0  0.07603  0.92509  0.33138  1.0000
  H   H3650     1.0  0.04552  0.83445  0.26546  1.0000
  S   S921      1.0  0.99895  0.92176  0.25136  1.0000
  C   C2302     1.0  0.03252  0.82820  0.24592  1.0000
  H   H3651     1.0  0.40294  0.79364  0.46389  1.0000
  Fe  Fe464     1.0  0.01445  0.97153  0.32160  1.0000
  C   C2303     1.0  0.36986  0.73553  0.25159  1.0000
  C   C2304     1.0  0.09100  0.78297  0.23073  1.0000
  H   H3652     1.0  0.32863  0.92425  0.28904  1.0000
  H   H3653     1.0  0.30550  0.97218  0.27685  1.0000
  H   H3654     1.0  0.33962  0.93799  0.27598  1.0000
  H   H3655     1.0  0.35468  0.83790  0.24710  1.0000
  H   H3656     1.0  0.48641  0.83337  0.22564  1.0000
  H   H3657     1.0  0.02864  0.83052  0.23485  1.0000
  S   S922      1.0  0.43196  0.88487  0.47070  1.0000
  H   H3658     1.0  0.46732  0.73829  0.42946  1.0000
  H   H3659     1.0  0.47783  0.91520  0.27951  1.0000
  H   H3660     1.0  0.37588  0.73263  0.24003  1.0000
  C   C2305     1.0  0.42808  0.82482  0.22754  1.0000
  H   H3661     1.0  0.16106  0.85441  0.22927  1.0000
  H   H3662     1.0  0.48614  0.91449  0.30399  1.0000
  Fe  Fe465     1.0  0.98794  0.92411  0.23160  1.0000
  H   H3663     1.0  0.07165  0.81903  0.23123  1.0000
  H   H3664     1.0  0.21429  0.77344  0.46846  1.0000
  C   C2306     1.0  0.48700  0.90454  0.38177  1.0000
  H   H3665     1.0  0.07704  0.73073  0.27129  1.0000
  C   C2307     1.0  0.40299  0.74961  0.47206  1.0000
  H   H3666     1.0  0.05610  0.82011  0.22234  1.0000
  H   H3667     1.0  0.04742  0.84826  0.22254  1.0000
  C   C2308     1.0  0.44065  0.73016  0.44697  1.0000
  H   H3668     1.0  0.45841  0.73633  0.47209  1.0000
  C   C2309     1.0  0.17806  0.80767  0.47216  1.0000
  C   C2310     1.0  0.37750  0.87604  0.69006  1.0000
  H   H3669     1.0  0.41396  0.88306  0.68070  1.0000
  H   H3670     1.0  0.25946  0.76216  0.57134  1.0000
  N   N229      1.0  0.43231  0.92993  0.54340  1.0000
  H   H3671     1.0  0.25781  0.82345  0.53651  1.0000
  H   H3672     1.0  0.17150  0.75651  0.51709  1.0000
  C   C2311     1.0  0.40639  0.77139  0.48000  1.0000
  Fe  Fe466     1.0  0.37793  0.87620  0.63574  1.0000
  S   S923      1.0  0.35611  0.88491  0.65253  1.0000
  S   S924      1.0  0.40087  0.88281  0.63252  1.0000
  Fe  Fe467     1.0  0.36390  0.85227  0.62988  1.0000
  S   S925      1.0  0.34111  0.85864  0.64658  1.0000
  S   S926      1.0  0.37043  0.83518  0.61415  1.0000
  Fe  Fe468     1.0  0.34325  0.88341  0.63558  1.0000
  S   S927      1.0  0.32280  0.90096  0.62698  1.0000
  Fe  Fe469     1.0  0.35585  0.85948  0.66220  1.0000
  S   S928      1.0  0.34951  0.85154  0.68841  1.0000
  S   S929      1.0  0.36521  0.87703  0.61778  1.0000
  S   S930      1.0  0.37846  0.85082  0.64650  1.0000
  C   C2312     1.0  0.48236  0.92307  0.53179  1.0000
  C   C2313     1.0  0.19921  0.78925  0.48285  1.0000
  C   C2314     1.0  0.24730  0.85323  0.53852  1.0000
  Fe  Fe470     1.0  0.44179  0.94782  0.58139  1.0000
  S   S931      1.0  0.41767  0.94389  0.58472  1.0000
  H   H3673     1.0  0.99578  0.92169  0.71996  1.0000
  S   S932      1.0  0.08337  0.78320  0.70068  1.0000
  Fe  Fe471     1.0  0.19249  0.90764  0.59929  1.0000
  S   S933      1.0  0.16933  0.90833  0.61620  1.0000
  S   S934      1.0  0.20856  0.92303  0.59825  1.0000
  Fe  Fe472     1.0  0.18649  0.88542  0.58309  1.0000
  S   S935      1.0  0.16283  0.88450  0.59867  1.0000
  S   S936      1.0  0.19507  0.87316  0.56297  1.0000
  Fe  Fe473     1.0  0.15971  0.91039  0.59553  1.0000
  Fe  Fe474     1.0  0.17465  0.88253  0.61777  1.0000
  S   S937      1.0  0.17087  0.86536  0.64074  1.0000
  S   S938      1.0  0.18249  0.91160  0.57839  1.0000
  S   S939      1.0  0.19874  0.88148  0.60240  1.0000
  C   C2315     1.0  0.00464  0.83231  0.67239  1.0000
  Fe  Fe475     1.0  0.22050  0.95126  0.66733  1.0000
  S   S940      1.0  0.20799  0.93510  0.66330  1.0000
  H   H3674     1.0  0.15113  0.88737  0.67719  1.0000
  H   H3675     1.0  0.05318  0.97589  0.58379  1.0000
  H   H3676     1.0  0.30930  0.74317  0.67362  1.0000
  Fe  Fe476     1.0  0.25108  0.95240  0.67337  1.0000
  S   S941      1.0  0.27529  0.93880  0.67592  1.0000
  S   S942      1.0  0.23200  0.94007  0.68758  1.0000
  H   H3677     1.0  0.40475  0.83036  0.51703  1.0000
  S   S943      1.0  0.10991  0.81192  0.69275  1.0000
  H   H3678     1.0  0.37256  0.76140  0.52272  1.0000
  H   H3679     1.0  0.02456  0.82575  0.64615  1.0000
  S   S944      1.0  0.07413  0.82922  0.68835  1.0000
  C   C2316     1.0  0.48009  0.93810  0.52231  1.0000
  Fe  Fe477     1.0  0.08605  0.80660  0.70142  1.0000
  Fe  Fe478     1.0  0.10376  0.82172  0.71417  1.0000
  Fe  Fe479     1.0  0.09752  0.83547  0.68157  1.0000
  S   S945      1.0  0.10499  0.84871  0.65713  1.0000
  H   H3680     1.0  0.02973  0.83245  0.68243  1.0000
  H   H3681     1.0  0.10949  0.97718  0.47879  1.0000
  C   C2317     1.0  0.16715  0.76523  0.48751  1.0000
  C   C2318     1.0  0.02965  0.82875  0.65435  1.0000
  C   C2319     1.0  0.30873  0.74352  0.61523  1.0000
  H   H3682     1.0  0.47304  0.94774  0.64142  1.0000
  H   H3683     1.0  0.38129  0.82345  0.50368  1.0000
  C   C2320     1.0  0.11247  0.97606  0.50765  1.0000
  S   S946      1.0  0.46355  0.93169  0.57170  1.0000
  H   H3684     1.0  0.29247  0.74587  0.57552  1.0000
  S   S947      1.0  0.01875  0.88841  0.66091  1.0000
  H   H3685     1.0  0.25256  0.85846  0.52631  1.0000
  H   H3686     1.0  0.00678  0.85209  0.64432  1.0000
  N   N230      1.0  0.47782  0.96849  0.62448  1.0000
  S   S948      1.0  0.01150  0.76072  0.65508  1.0000
  H   H3687     1.0  0.18950  0.96084  0.55908  1.0000
  Fe  Fe480     1.0  0.02615  0.76174  0.67052  1.0000
  S   S949      1.0  0.02497  0.78472  0.67609  1.0000
  H   H3688     1.0  0.41728  0.84936  0.48488  1.0000
  C   C2321     1.0  0.38653  0.85192  0.48781  1.0000
  C   C2322     1.0  0.48349  0.91004  0.52588  1.0000
  C   C2323     1.0  0.40663  0.75546  0.48285  1.0000
  H   H3689     1.0  0.13726  0.85011  0.58347  1.0000
  C   C2324     1.0  0.44002  0.91780  0.55504  1.0000
  Fe  Fe481     1.0  0.07110  0.83803  0.70979  1.0000
  H   H3690     1.0  0.48353  0.92145  0.54357  1.0000
  H   H3691     1.0  0.03986  0.83387  0.64744  1.0000
  H   H3692     1.0  0.40897  0.94077  0.54018  1.0000
  H   H3693     1.0  0.25702  0.84709  0.54463  1.0000
  H   H3694     1.0  0.24013  0.86298  0.54430  1.0000
  H   H3695     1.0  0.31547  0.73216  0.69963  1.0000
  C   C2325     1.0  0.13702  0.94254  0.57625  1.0000
  Fe  Fe482     1.0  0.18840  0.79378  0.55599  1.0000
  S   S950      1.0  0.20291  0.76926  0.55982  1.0000
  S   S951      1.0  0.18158  0.80575  0.57625  1.0000
  Fe  Fe483     1.0  0.18851  0.79406  0.52270  1.0000
  S   S952      1.0  0.20329  0.76978  0.52380  1.0000
  S   S953      1.0  0.17836  0.80812  0.50187  1.0000
  Fe  Fe484     1.0  0.18773  0.76399  0.54733  1.0000
  H   H3696     1.0  0.41453  0.83746  0.47364  1.0000
  Fe  Fe485     1.0  0.21711  0.77721  0.53610  1.0000
  S   S954      1.0  0.24339  0.77052  0.53112  1.0000
  S   S955      1.0  0.17180  0.78779  0.54558  1.0000
  S   S956      1.0  0.20374  0.80216  0.53298  1.0000
  Fe  Fe486     1.0  0.32088  0.76865  0.57834  1.0000
  S   S957      1.0  0.30135  0.78612  0.58913  1.0000
  H   H3697     1.0  0.14089  0.78744  0.48833  1.0000
  Fe  Fe487     1.0  0.33227  0.79315  0.55081  1.0000
  S   S958      1.0  0.31362  0.81309  0.55897  1.0000
  S   S959      1.0  0.35187  0.79125  0.52950  1.0000
  Fe  Fe488     1.0  0.31878  0.80126  0.58262  1.0000
  S   S960      1.0  0.31555  0.81517  0.60062  1.0000
  Fe  Fe489     1.0  0.29734  0.79677  0.56506  1.0000
  S   S961      1.0  0.27185  0.80466  0.56411  1.0000
  S   S962      1.0  0.33886  0.78265  0.57401  1.0000
  S   S963      1.0  0.31540  0.77798  0.55472  1.0000
  S   S964      1.0  0.20722  0.97241  0.67708  1.0000
  C   C2326     1.0  0.35244  0.80700  0.51327  1.0000
  C   C2327     1.0  0.34428  0.82218  0.51460  1.0000
  C   C2328     1.0  0.34585  0.83468  0.50162  1.0000
  C   C2329     1.0  0.35537  0.83199  0.48725  1.0000
  H   H3698     1.0  0.14229  0.85184  0.70743  1.0000
  C   C2330     1.0  0.36190  0.80431  0.49888  1.0000
  H   H3699     1.0  0.33700  0.82432  0.52569  1.0000
  H   H3700     1.0  0.33973  0.84646  0.50273  1.0000
  C   C2331     1.0  0.14919  0.95333  0.54966  1.0000
  H   H3701     1.0  0.36825  0.79258  0.49780  1.0000
  C   C2332     1.0  0.25138  0.77955  0.54064  1.0000
  C   C2333     1.0  0.24172  0.78789  0.55179  1.0000
  C   C2334     1.0  0.24823  0.79514  0.55927  1.0000
  C   C2335     1.0  0.26436  0.79429  0.55547  1.0000
  C   C2336     1.0  0.27406  0.78577  0.54448  1.0000
  C   C2337     1.0  0.26757  0.77833  0.53713  1.0000
  H   H3702     1.0  0.22924  0.78873  0.55467  1.0000
  H   H3703     1.0  0.24070  0.80141  0.56803  1.0000
  H   H3704     1.0  0.28649  0.78523  0.54135  1.0000
  H   H3705     1.0  0.27504  0.77189  0.52847  1.0000
  C   C2338     1.0  0.01232  0.85426  0.65267  1.0000
  H   H3706     1.0  0.20566  0.78463  0.49196  1.0000
  S   S965      1.0  0.47838  0.95470  0.52947  1.0000
  C   C2339     1.0  0.34839  0.74777  0.53795  1.0000
  C   C2340     1.0  0.18597  0.80140  0.48438  1.0000
  H   H3707     1.0  0.40543  0.86967  0.69724  1.0000
  H   H3708     1.0  0.33698  0.73149  0.67589  1.0000
  C   C2341     1.0  0.13583  0.75075  0.55013  1.0000
  C   C2342     1.0  0.15008  0.75211  0.55208  1.0000
  S   S966      1.0  0.41264  0.74272  0.49932  1.0000
  H   H3709     1.0  0.14350  0.96862  0.49692  1.0000
  H   H3710     1.0  0.47723  0.95160  0.49950  1.0000
  H   H3711     1.0  0.12554  0.76004  0.55181  1.0000
  H   H3712     1.0  0.15071  0.76231  0.55550  1.0000
  H   H3713     1.0  0.00850  0.82097  0.68026  1.0000
  H   H3714     1.0  0.43621  0.92094  0.56665  1.0000
  H   H3715     1.0  0.11792  0.88139  0.71125  1.0000
  H   H3716     1.0  0.01668  0.85134  0.68127  1.0000
  H   H3717     1.0  0.02198  0.86027  0.64588  1.0000
  C   C2343     1.0  0.40269  0.88069  0.68843  1.0000
  H   H3718     1.0  0.25225  0.83425  0.51861  1.0000
  H   H3719     1.0  0.08618  0.74020  0.69134  1.0000
  H   H3720     1.0  0.22940  0.85618  0.51856  1.0000
  C   C2344     1.0  0.28604  0.75602  0.58095  1.0000
  H   H3721     1.0  0.13145  0.76386  0.69824  1.0000
  S   S967      1.0  0.48327  0.89540  0.50365  1.0000
  C   C2345     1.0  0.39322  0.82384  0.49629  1.0000
  C   C2346     1.0  0.02454  0.87150  0.70503  1.0000
  Fe  Fe490     1.0  0.03190  0.74261  0.64617  1.0000
  H   H3722     1.0  0.38898  0.86331  0.48737  1.0000
  C   C2347     1.0  0.39671  0.84028  0.51104  1.0000
  H   H3723     1.0  0.45061  0.92422  0.52392  1.0000
  H   H3724     1.0  0.39317  0.82246  0.48461  1.0000
  Fe  Fe491     1.0  0.45941  0.97203  0.58104  1.0000
  C   C2348     1.0  0.30844  0.73135  0.67331  1.0000
  H   H3725     1.0  0.37104  0.88574  0.69609  1.0000
  H   H3726     1.0  0.17555  0.77302  0.48229  1.0000
  C   C2349     1.0  0.06755  0.78477  0.69270  1.0000
  C   C2350     1.0  0.06849  0.77404  0.68400  1.0000
  C   C2351     1.0  0.05553  0.77415  0.67865  1.0000
  C   C2352     1.0  0.04156  0.78504  0.68196  1.0000
  C   C2353     1.0  0.04066  0.79599  0.69046  1.0000
  C   C2354     1.0  0.05368  0.79591  0.69578  1.0000
  C   C2355     1.0  0.02804  0.96467  0.60186  1.0000
  H   H3727     1.0  0.05643  0.76587  0.67188  1.0000
  H   H3728     1.0  0.02980  0.80425  0.69331  1.0000
  C   C2356     1.0  0.37545  0.74839  0.52617  1.0000
  H   H3729     1.0  0.00342  0.86268  0.65911  1.0000
  H   H3730     1.0  0.11181  0.76107  0.70376  1.0000
  C   C2357     1.0  0.01800  0.87954  0.69214  1.0000
  C   C2358     1.0  0.02737  0.88070  0.67707  1.0000
  C   C2359     1.0  0.04347  0.87462  0.67497  1.0000
  C   C2360     1.0  0.05007  0.86677  0.68791  1.0000
  S   S968      1.0  0.48282  0.95801  0.57098  1.0000
  H   H3731     1.0  0.00565  0.88468  0.69390  1.0000
  H   H3732     1.0  0.05081  0.87567  0.66334  1.0000
  H   H3733     1.0  0.06253  0.86217  0.68621  1.0000
  H   H3734     1.0  0.13861  0.78964  0.50784  1.0000
  S   S969      1.0  0.11700  0.73580  0.54360  1.0000
  H   H3735     1.0  0.26971  0.76962  0.60474  1.0000
  C   C2361     1.0  0.12523  0.95623  0.57614  1.0000
  Fe  Fe492     1.0  0.47440  0.93742  0.58798  1.0000
  C   C2362     1.0  0.14728  0.78600  0.49752  1.0000
  H   H3736     1.0  0.28490  0.76667  0.57143  1.0000
  H   H3737     1.0  0.43528  0.91385  0.52896  1.0000
  H   H3738     1.0  0.15726  0.84745  0.58407  1.0000
  H   H3739     1.0  0.37524  0.74384  0.51617  1.0000
  H   H3740     1.0  0.16044  0.94330  0.59133  1.0000
  C   C2363     1.0  0.19084  0.85461  0.56691  1.0000
  C   C2364     1.0  0.19024  0.84481  0.58173  1.0000
  C   C2365     1.0  0.18784  0.82965  0.58436  1.0000
  C   C2366     1.0  0.18586  0.82428  0.57226  1.0000
  C   C2367     1.0  0.18651  0.83406  0.55744  1.0000
  C   C2368     1.0  0.18896  0.84920  0.55479  1.0000
  H   H3741     1.0  0.19192  0.84883  0.59108  1.0000
  H   H3742     1.0  0.18757  0.82202  0.59579  1.0000
  H   H3743     1.0  0.18475  0.83010  0.54810  1.0000
  H   H3744     1.0  0.18918  0.85681  0.54336  1.0000
  C   C2369     1.0  0.15232  0.86119  0.64587  1.0000
  C   C2370     1.0  0.14943  0.84775  0.65714  1.0000
  C   C2371     1.0  0.13472  0.84405  0.66100  1.0000
  C   C2372     1.0  0.12300  0.85370  0.65342  1.0000
  C   C2373     1.0  0.12581  0.86726  0.64236  1.0000
  C   C2374     1.0  0.14040  0.87112  0.63873  1.0000
  H   H3745     1.0  0.15865  0.84008  0.66269  1.0000
  H   H3746     1.0  0.13257  0.83354  0.66952  1.0000
  H   H3747     1.0  0.11665  0.87487  0.63667  1.0000
  H   H3748     1.0  0.14244  0.88172  0.63033  1.0000
  C   C2375     1.0  0.20866  0.92631  0.61629  1.0000
  C   C2376     1.0  0.20846  0.93215  0.64497  1.0000
  C   C2377     1.0  0.21681  0.93993  0.63110  1.0000
  C   C2378     1.0  0.21690  0.93700  0.61676  1.0000
  H   H3749     1.0  0.22309  0.94823  0.63140  1.0000
  H   H3750     1.0  0.22330  0.94305  0.60603  1.0000
  Fe  Fe493     1.0  0.47714  0.89932  0.48041  1.0000
  S   S970      1.0  0.01756  0.74294  0.69002  1.0000
  Fe  Fe494     1.0  0.47015  0.95330  0.55542  1.0000
  C   C2379     1.0  0.13755  0.96711  0.54965  1.0000
  C   C2380     1.0  0.35558  0.82809  0.61145  1.0000
  C   C2381     1.0  0.35859  0.82069  0.59904  1.0000
  C   C2382     1.0  0.34650  0.81623  0.59578  1.0000
  C   C2383     1.0  0.33139  0.81913  0.60499  1.0000
  C   C2384     1.0  0.32851  0.82612  0.61764  1.0000
  C   C2385     1.0  0.34056  0.83057  0.62088  1.0000
  H   H3751     1.0  0.37022  0.81868  0.59175  1.0000
  H   H3752     1.0  0.34881  0.81080  0.58603  1.0000
  H   H3753     1.0  0.31687  0.82819  0.62490  1.0000
  H   H3754     1.0  0.33821  0.83598  0.63063  1.0000
  C   C2386     1.0  0.30971  0.91161  0.64052  1.0000
  C   C2387     1.0  0.31123  0.90801  0.65594  1.0000
  C   C2388     1.0  0.30066  0.91657  0.66661  1.0000
  C   C2389     1.0  0.28841  0.92868  0.66197  1.0000
  C   C2390     1.0  0.28688  0.93232  0.64652  1.0000
  C   C2391     1.0  0.29747  0.92374  0.63583  1.0000
  H   H3755     1.0  0.32057  0.89864  0.65969  1.0000
  H   H3756     1.0  0.30194  0.91374  0.67853  1.0000
  H   H3757     1.0  0.27771  0.94191  0.64276  1.0000
  H   H3758     1.0  0.29634  0.92666  0.62386  1.0000
  H   H3759     1.0  0.06549  0.73410  0.68303  1.0000
  H   H3760     1.0  0.04754  0.74903  0.70551  1.0000
  C   C2392     1.0  0.36118  0.84054  0.71484  1.0000
  C   C2393     1.0  0.36449  0.84200  0.69865  1.0000
  C   C2394     1.0  0.37979  0.83667  0.69086  1.0000
  C   C2395     1.0  0.39178  0.83034  0.69914  1.0000
  H   H3761     1.0  0.37970  0.86521  0.69918  1.0000
  S   S971      1.0  0.45471  0.91392  0.47384  1.0000
  H   H3762     1.0  0.38243  0.83746  0.67845  1.0000
  H   H3763     1.0  0.40361  0.82632  0.69303  1.0000
  C   C2396     1.0  0.40534  0.89971  0.61896  1.0000
  C   C2397     1.0  0.42005  0.90293  0.61672  1.0000
  C   C2398     1.0  0.42396  0.91645  0.60620  1.0000
  C   C2399     1.0  0.41310  0.92686  0.59794  1.0000
  C   C2400     1.0  0.39841  0.92362  0.60011  1.0000
  C   C2401     1.0  0.39453  0.91005  0.61061  1.0000
  H   H3764     1.0  0.42846  0.89493  0.62315  1.0000
  H   H3765     1.0  0.43531  0.91887  0.60456  1.0000
  H   H3766     1.0  0.38997  0.93168  0.59377  1.0000
  H   H3767     1.0  0.38315  0.90766  0.61234  1.0000
  H   H3768     1.0  0.19400  0.91525  0.65516  1.0000
  H   H3769     1.0  0.12275  0.85518  0.70501  1.0000
  H   H3770     1.0  0.03252  0.95865  0.61262  1.0000
  C   C2402     1.0  0.04055  0.86484  0.70293  1.0000
  H   H3771     1.0  0.14305  0.86366  0.59057  1.0000
  H   H3772     1.0  0.99571  0.84003  0.67965  1.0000
  Fe  Fe495     1.0  0.22044  0.96206  0.69604  1.0000
  C   C2403     1.0  0.47987  0.92699  0.50104  1.0000
  H   H3773     1.0  0.40345  0.85522  0.67940  1.0000
  H   H3774     1.0  0.15722  0.77271  0.52376  1.0000
  S   S972      1.0  0.45194  0.95160  0.59926  1.0000
  H   H3775     1.0  0.40144  0.81347  0.50146  1.0000
  H   H3776     1.0  0.17380  0.77615  0.50844  1.0000
  H   H3777     1.0  0.11596  0.95739  0.58641  1.0000
  H   H3778     1.0  0.06681  0.73980  0.59402  1.0000
  H   H3779     1.0  0.37419  0.85201  0.49421  1.0000
  H   H3780     1.0  0.42219  0.82845  0.49085  1.0000
  Fe  Fe496     1.0  0.99289  0.89097  0.66942  1.0000
  S   S973      1.0  0.13694  0.92773  0.59334  1.0000
  H   H3781     1.0  0.43722  0.90628  0.55662  1.0000
  C   C2404     1.0  0.16193  0.97309  0.57623  1.0000
  H   H3782     1.0  0.44910  0.94410  0.53842  1.0000
  H   H3783     1.0  0.15512  0.79438  0.49311  1.0000
  C   C2405     1.0  0.43778  0.92533  0.52819  1.0000
  C   C2406     1.0  0.30136  0.73671  0.63027  1.0000
  H   H3784     1.0  0.05133  0.97606  0.60382  1.0000
  C   C2407     1.0  0.31722  0.73414  0.60457  1.0000
  H   H3785     1.0  0.15988  0.95461  0.60470  1.0000
  H   H3786     1.0  0.99860  0.82998  0.66455  1.0000
  H   H3787     1.0  0.30790  0.75601  0.61193  1.0000
  H   H3788     1.0  0.15924  0.87049  0.69054  1.0000
  C   C2408     1.0  0.16505  0.76869  0.51325  1.0000
  H   H3789     1.0  0.19000  0.97584  0.57769  1.0000
  H   H3790     1.0  0.12748  0.74471  0.70733  1.0000
  H   H3791     1.0  0.48051  0.96931  0.60021  1.0000
  H   H3792     1.0  0.24924  0.75042  0.58802  1.0000
  H   H3793     1.0  0.17682  0.94742  0.56487  1.0000
  H   H3794     1.0  0.19431  0.91004  0.62998  1.0000
  H   H3795     1.0  0.19360  0.94288  0.57312  1.0000
  S   S974      1.0  0.47570  0.87781  0.47393  1.0000
  H   H3796     1.0  0.12971  0.89499  0.69938  1.0000
  S   S975      1.0  0.32605  0.74234  0.58547  1.0000
  H   H3797     1.0  0.37050  0.81455  0.47479  1.0000
  C   C2409     1.0  0.47894  0.94000  0.50690  1.0000
  C   C2410     1.0  0.38855  0.82928  0.71525  1.0000
  H   H3798     1.0  0.02841  0.74893  0.71769  1.0000
  H   H3799     1.0  0.06905  0.74990  0.71600  1.0000
  C   C2411     1.0  0.26269  0.76767  0.59756  1.0000
  H   H3800     1.0  0.12468  0.78394  0.71402  1.0000
  S   S976      1.0  0.04201  0.74459  0.62045  1.0000
  C   C2412     1.0  0.36535  0.74881  0.55343  1.0000
  H   H3801     1.0  0.43214  0.93414  0.51913  1.0000
  C   C2413     1.0  0.48220  0.91196  0.51052  1.0000
  H   H3802     1.0  0.24156  0.95160  0.71624  1.0000
  H   H3803     1.0  0.12714  0.87324  0.67171  1.0000
  N   N231      1.0  0.14206  0.84137  0.60641  1.0000
  C   C2414     1.0  0.15252  0.84312  0.61523  1.0000
  C   C2415     1.0  0.12562  0.84652  0.61434  1.0000
  C   C2416     1.0  0.14508  0.82479  0.60567  1.0000
  C   C2417     1.0  0.14501  0.85108  0.59045  1.0000
  H   H3804     1.0  0.16500  0.83885  0.60999  1.0000
  H   H3805     1.0  0.15014  0.83656  0.62756  1.0000
  H   H3806     1.0  0.15105  0.85557  0.61539  1.0000
  H   H3807     1.0  0.12294  0.85901  0.61505  1.0000
  H   H3808     1.0  0.11734  0.84525  0.60814  1.0000
  H   H3809     1.0  0.12300  0.83959  0.62652  1.0000
  H   H3810     1.0  0.13752  0.82302  0.59895  1.0000
  H   H3811     1.0  0.14292  0.81715  0.61752  1.0000
  H   H3812     1.0  0.15741  0.82051  0.59981  1.0000
  N   N232      1.0  0.01795  0.83962  0.66342  1.0000
  H   H3813     1.0  0.47518  0.94682  0.62158  1.0000
  N   N233      1.0  0.39752  0.83862  0.49522  1.0000
  H   H3814     1.0  0.39998  0.85128  0.51066  1.0000
  H   H3815     1.0  0.15458  0.97941  0.58548  1.0000
  H   H3816     1.0  0.27966  0.74100  0.61108  1.0000
  Fe  Fe497     1.0  0.00430  0.74061  0.67384  1.0000
  C   C2418     1.0  0.13478  0.73728  0.54632  1.0000
  C   C2419     1.0  0.41358  0.83845  0.48575  1.0000
  H   H3817     1.0  0.48533  0.89844  0.53324  1.0000
  H   H3818     1.0  0.01562  0.96376  0.60449  1.0000
  C   C2420     1.0  0.18404  0.95257  0.56918  1.0000
  H   H3819     1.0  0.03513  0.84891  0.66778  1.0000
  C   C2421     1.0  0.13471  0.85679  0.69881  1.0000
  H   H3820     1.0  0.17677  0.93961  0.59997  1.0000
  C   C2422     1.0  0.22489  0.85095  0.53098  1.0000
  C   C2423     1.0  0.36321  0.81675  0.48584  1.0000
  H   H3821     1.0  0.41178  0.92043  0.54991  1.0000
  H   H3822     1.0  0.30499  0.88546  0.58967  1.0000
  C   C2424     1.0  0.24759  0.82969  0.53118  1.0000
  H   H3823     1.0  0.15143  0.74684  0.51199  1.0000
  H   H3824     1.0  0.41076  0.93497  0.56010  1.0000
  S   S977      1.0  0.09366  0.84604  0.70205  1.0000
  N   N234      1.0  0.15617  0.76975  0.50162  1.0000
  H   H3825     1.0  0.01708  0.87008  0.71653  1.0000
  H   H3826     1.0  0.07935  0.76580  0.68118  1.0000
  S   S978      1.0  0.04844  0.85350  0.71897  1.0000
  H   H3827     1.0  0.35711  0.74475  0.56443  1.0000
  C   C2425     1.0  0.20049  0.91846  0.63019  1.0000
  H   H3828     1.0  0.19428  0.95778  0.59155  1.0000
  C   C2426     1.0  0.12319  0.75740  0.70736  1.0000
  C   C2427     1.0  0.16336  0.74010  0.54996  1.0000
  N   N235      1.0  0.32800  0.87506  0.59393  1.0000
  C   C2428     1.0  0.33241  0.89022  0.59075  1.0000
  C   C2429     1.0  0.32215  0.86991  0.61087  1.0000
  C   C2430     1.0  0.34183  0.86330  0.58846  1.0000
  C   C2431     1.0  0.31563  0.87674  0.58572  1.0000
  H   H3829     1.0  0.33700  0.89449  0.57812  1.0000
  H   H3830     1.0  0.34159  0.88931  0.59699  1.0000
  H   H3831     1.0  0.32227  0.89936  0.59484  1.0000
  H   H3832     1.0  0.31216  0.87882  0.61557  1.0000
  H   H3833     1.0  0.31817  0.85880  0.61370  1.0000
  H   H3834     1.0  0.33141  0.86794  0.61733  1.0000
  H   H3835     1.0  0.34685  0.86692  0.57581  1.0000
  H   H3836     1.0  0.33881  0.85181  0.59036  1.0000
  H   H3837     1.0  0.35124  0.86132  0.59479  1.0000
  H   H3838     1.0  0.31213  0.86542  0.58791  1.0000
  H   H3839     1.0  0.31964  0.88061  0.57290  1.0000
  N   N236      1.0  0.13476  0.87345  0.69177  1.0000
  H   H3840     1.0  0.26089  0.77850  0.58833  1.0000
  C   C2432     1.0  0.12985  0.88235  0.70421  1.0000
  C   C2433     1.0  0.14521  0.75914  0.50819  1.0000
  C   C2434     1.0  0.15069  0.87498  0.68288  1.0000
  H   H3841     1.0  0.38468  0.84057  0.51841  1.0000
  H   H3842     1.0  0.10982  0.96510  0.50704  1.0000
  H   H3843     1.0  0.03413  0.81755  0.66210  1.0000
  C   C2435     1.0  0.13629  0.97204  0.48801  1.0000
  H   H3844     1.0  0.45527  0.97207  0.61954  1.0000
  H   H3845     1.0  0.11165  0.87864  0.68752  1.0000
  H   H3846     1.0  0.29474  0.74402  0.63845  1.0000
  H   H3847     1.0  0.40298  0.73733  0.47428  1.0000
  C   C2436     1.0  0.12550  0.96852  0.56288  1.0000
  H   H3848     1.0  0.29353  0.75742  0.58791  1.0000
  H   H3849     1.0  0.12352  0.89223  0.67562  1.0000
  S   S979      1.0  0.24048  0.96226  0.65227  1.0000
  H   H3850     1.0  0.37730  0.74508  0.55575  1.0000
  C   C2437     1.0  0.12378  0.87969  0.68121  1.0000
  H   H3851     1.0  0.13640  0.76254  0.51853  1.0000
  H   H3852     1.0  0.13401  0.96118  0.48669  1.0000
  S   S980      1.0  0.20797  0.96279  0.72084  1.0000
  S   S981      1.0  0.04731  0.74539  0.65995  1.0000
  H   H3853     1.0  0.11892  0.97316  0.51713  1.0000
  H   H3854     1.0  0.43200  0.94908  0.55294  1.0000
  H   H3855     1.0  0.26671  0.74146  0.57582  1.0000
  N   N237      1.0  0.17454  0.96047  0.58193  1.0000
  H   H3856     1.0  0.40913  0.77594  0.48839  1.0000
  H   H3857     1.0  0.15487  0.86829  0.67348  1.0000
  N   N238      1.0  0.27063  0.75381  0.59076  1.0000
  H   H3858     1.0  0.17411  0.75307  0.49020  1.0000
  C   C2438     1.0  0.16760  0.94902  0.59506  1.0000
  H   H3859     1.0  0.43103  0.95438  0.53283  1.0000
  H   H3860     1.0  0.03464  0.95800  0.59267  1.0000
  H   H3861     1.0  0.10477  0.78205  0.71870  1.0000
  H   H3862     1.0  0.13868  0.75929  0.49955  1.0000
  C   C2439     1.0  0.14891  0.94106  0.56293  1.0000
  H   H3863     1.0  0.15402  0.96834  0.57239  1.0000
  H   H3864     1.0  0.15845  0.95213  0.53940  1.0000
  C   C2440     1.0  0.20039  0.92138  0.64446  1.0000
  H   H3865     1.0  0.14577  0.76042  0.71894  1.0000
  H   H3866     1.0  0.21723  0.86064  0.53659  1.0000
  H   H3867     1.0  0.15780  0.93040  0.56276  1.0000
  C   C2441     1.0  0.43627  0.94502  0.54181  1.0000
  C   C2442     1.0  0.46104  0.97614  0.62642  1.0000
  H   H3868     1.0  0.05285  0.80415  0.70263  1.0000
  S   S982      1.0  0.18100  0.74060  0.55379  1.0000
  H   H3869     1.0  0.03599  0.76629  0.71216  1.0000
  H   H3870     1.0  0.47928  0.97064  0.64678  1.0000
  C   C2443     1.0  0.26109  0.75184  0.58110  1.0000
  N   N239      1.0  0.39225  0.87932  0.67938  1.0000
  C   C2444     1.0  0.38884  0.89410  0.66786  1.0000
  C   C2445     1.0  0.39999  0.86640  0.67118  1.0000
  H   H3871     1.0  0.38304  0.90416  0.67356  1.0000
  H   H3872     1.0  0.38100  0.89339  0.66086  1.0000
  H   H3873     1.0  0.39968  0.89680  0.65941  1.0000
  H   H3874     1.0  0.39216  0.86451  0.66484  1.0000
  H   H3875     1.0  0.41073  0.86884  0.66239  1.0000
  H   H3876     1.0  0.36956  0.87433  0.68370  1.0000
  H   H3877     1.0  0.39722  0.89032  0.69479  1.0000
  N   N240      1.0  0.23773  0.84238  0.53902  1.0000
  C   C2446     1.0  0.23115  0.83569  0.55545  1.0000
  H   H3878     1.0  0.21742  0.84306  0.53124  1.0000
  H   H3879     1.0  0.45294  0.91622  0.55150  1.0000
  H   H3880     1.0  0.24092  0.82087  0.53199  1.0000
  H   H3881     1.0  0.24056  0.82904  0.56182  1.0000
  H   H3882     1.0  0.22362  0.82761  0.55637  1.0000
  H   H3883     1.0  0.22382  0.84501  0.56173  1.0000
  N   N241      1.0  0.25379  0.90488  0.65885  1.0000
  C   C2447     1.0  0.27025  0.89681  0.65890  1.0000
  C   C2448     1.0  0.24774  0.89876  0.64891  1.0000
  C   C2449     1.0  0.25284  0.92180  0.65268  1.0000
  C   C2450     1.0  0.24426  0.90227  0.67493  1.0000
  H   H3884     1.0  0.27149  0.88399  0.66346  1.0000
  H   H3885     1.0  0.27509  0.90124  0.66633  1.0000
  H   H3886     1.0  0.27786  0.89871  0.64698  1.0000
  H   H3887     1.0  0.23529  0.90462  0.64876  1.0000
  H   H3888     1.0  0.25450  0.90077  0.63663  1.0000
  H   H3889     1.0  0.24832  0.88598  0.65314  1.0000
  H   H3890     1.0  0.24068  0.92820  0.65205  1.0000
  H   H3891     1.0  0.26024  0.92424  0.64074  1.0000
  H   H3892     1.0  0.25674  0.92690  0.66025  1.0000
  H   H3893     1.0  0.23181  0.90848  0.67533  1.0000
  H   H3894     1.0  0.24859  0.90667  0.68276  1.0000
  H   H3895     1.0  0.24450  0.88964  0.67993  1.0000
  H   H3896     1.0  0.13891  0.84960  0.68983  1.0000
  C   C2451     1.0  0.02519  0.84318  0.67421  1.0000
  S   S983      1.0  0.44752  0.96924  0.56393  1.0000
  C   C2452     1.0  0.41520  0.93159  0.54858  1.0000
  N   N242      1.0  0.36448  0.74256  0.54052  1.0000
  H   H3897     1.0  0.38724  0.85135  0.47563  1.0000
  H   H3898     1.0  0.99001  0.94507  0.61764  1.0000
  C   C2453     1.0  0.18460  0.96710  0.58727  1.0000
  S   S984      1.0  0.24043  0.97362  0.68373  1.0000
  C   C2454     1.0  0.03916  0.75332  0.71566  1.0000
  H   H3899     1.0  0.33977  0.74390  0.54871  1.0000
  H   H3900     1.0  0.25102  0.76645  0.60510  1.0000
  H   H3901     1.0  0.13785  0.87794  0.71244  1.0000
  H   H3902     1.0  0.34498  0.76076  0.53459  1.0000
  H   H3903     1.0  0.34935  0.84459  0.72095  1.0000
  C   C2455     1.0  0.27278  0.73974  0.60340  1.0000
  H   H3904     1.0  0.38770  0.74480  0.52774  1.0000
  H   H3905     1.0  0.34721  0.74308  0.52846  1.0000
  H   H3906     1.0  0.45468  0.97364  0.63879  1.0000
  H   H3907     1.0  0.36226  0.76182  0.55072  1.0000
  H   H3908     1.0  0.47888  0.92858  0.48917  1.0000
  H   H3909     1.0  0.16095  0.76603  0.47837  1.0000
  H   H3910     1.0  0.17786  0.97296  0.59704  1.0000
  H   H3911     1.0  0.29597  0.73053  0.67779  1.0000
  H   H3912     1.0  0.11644  0.97910  0.56293  1.0000
  C   C2456     1.0  0.48489  0.97378  0.63421  1.0000
  H   H3913     1.0  0.16791  0.81720  0.47319  1.0000
  C   C2457     1.0  0.47958  0.95134  0.62927  1.0000
  H   H3914     1.0  0.14345  0.97717  0.47670  1.0000
  H   H3915     1.0  0.26138  0.73750  0.61090  1.0000
  C   C2458     1.0  0.48578  0.97278  0.60796  1.0000
  H   H3916     1.0  0.43895  0.73365  0.47563  1.0000
  H   H3917     1.0  0.25227  0.97897  0.71092  1.0000
  H   H3918     1.0  0.31157  0.73050  0.66086  1.0000
  Fe  Fe498     1.0  0.12981  0.85686  0.80135  1.0000
  S   S985      1.0  0.14830  0.85526  0.77937  1.0000
  S   S986      1.0  0.12362  0.83638  0.82040  1.0000
  Fe  Fe499     1.0  0.12285  0.89239  0.79385  1.0000
  S   S987      1.0  0.14073  0.89372  0.77132  1.0000
  S   S988      1.0  0.10901  0.91471  0.80107  1.0000
  Fe  Fe500     1.0  0.13125  0.87491  0.76811  1.0000
  Fe  Fe501     1.0  0.15587  0.87406  0.78492  1.0000
  S   S989      1.0  0.18112  0.87241  0.78399  1.0000
  S   S990      1.0  0.11206  0.87516  0.78967  1.0000
  S   S991      1.0  0.13874  0.87417  0.80775  1.0000
  Fe  Fe502     1.0  0.03095  0.92950  0.90474  1.0000
  S   S992      1.0  0.05550  0.93043  0.90359  1.0000
  S   S993      1.0  0.01548  0.91691  0.92534  1.0000
  Fe  Fe503     1.0  0.03197  0.94705  0.87100  1.0000
  S   S994      1.0  0.05655  0.94978  0.86701  1.0000
  S   S995      1.0  0.01851  0.95833  0.85197  1.0000
  Fe  Fe504     1.0  0.06107  0.92475  0.88006  1.0000
  S   S996      1.0  0.08084  0.90494  0.87343  1.0000
  Fe  Fe505     1.0  0.04887  0.95526  0.89077  1.0000
  C   C2459     1.0  0.25987  0.73493  0.96535  1.0000
  S   S997      1.0  0.03707  0.92157  0.88232  1.0000
  S   S998      1.0  0.02377  0.95484  0.89368  1.0000
  H   H3919     1.0  0.12468  0.80494  0.78935  1.0000
  C   C2460     1.0  0.41755  0.82075  0.81131  1.0000
  C   C2461     1.0  0.35006  0.80316  0.81036  1.0000
  H   H3920     1.0  0.17010  0.94496  0.74177  1.0000
  Fe  Fe506     1.0  0.41910  0.89976  0.96565  1.0000
  H   H3921     1.0  0.29702  0.89247  0.80316  1.0000
  C   C2462     1.0  0.42955  0.84123  0.79340  1.0000
  C   C2463     1.0  0.19096  0.92624  0.76966  1.0000
  H   H3922     1.0  0.09819  0.75630  0.73125  1.0000
  H   H3923     1.0  0.00315  0.88017  0.77871  1.0000
  C   C2464     1.0  0.13683  0.77982  0.76482  1.0000
  H   H3924     1.0  0.06130  0.85156  0.92745  1.0000
  H   H3925     1.0  0.35977  0.74469  0.79433  1.0000
  H   H3926     1.0  0.20366  0.91109  0.74616  1.0000
  H   H3927     1.0  0.48508  0.88568  0.94975  1.0000
  Fe  Fe507     1.0  0.38351  0.82254  0.78275  1.0000
  S   S999      1.0  0.39362  0.79873  0.79530  1.0000
  S   S1000     1.0  0.36766  0.84110  0.79548  1.0000
  N   N243      1.0  0.06705  0.87332  0.91362  1.0000
  C   C2465     1.0  0.11393  0.78180  0.78578  1.0000
  H   H3928     1.0  0.39410  0.84524  0.81857  1.0000
  H   H3929     1.0  0.21127  0.76434  0.86340  1.0000
  C   C2466     1.0  0.13526  0.80523  0.83061  1.0000
  H   H3930     1.0  0.39811  0.84543  0.79818  1.0000
  C   C2467     1.0  0.12966  0.80111  0.77809  1.0000
  Fe  Fe508     1.0  0.21338  0.92389  0.81464  1.0000
  S   S1001     1.0  0.23514  0.91301  0.79936  1.0000
  S   S1002     1.0  0.18914  0.92095  0.81706  1.0000
  Fe  Fe509     1.0  0.23007  0.94195  0.82543  1.0000
  S   S1003     1.0  0.25341  0.93285  0.81093  1.0000
  S   S1004     1.0  0.12549  0.96957  0.89384  1.0000
  Fe  Fe510     1.0  0.24058  0.93676  0.79217  1.0000
  Fe  Fe511     1.0  0.24643  0.90979  0.81914  1.0000
  S   S1005     1.0  0.26489  0.88813  0.82443  1.0000
  S   S1006     1.0  0.21774  0.94818  0.80576  1.0000
  S   S1007     1.0  0.22410  0.91838  0.83533  1.0000
  H   H3931     1.0  0.06495  0.86342  0.93820  1.0000
  S   S1008     1.0  0.14614  0.96498  0.92672  1.0000
  H   H3932     1.0  0.40007  0.84071  0.95688  1.0000
  H   H3933     1.0  0.30719  0.88714  0.77653  1.0000
  C   C2468     1.0  0.39110  0.84873  0.96376  1.0000
  H   H3934     1.0  0.43533  0.83232  0.82216  1.0000
  C   C2469     1.0  0.10888  0.84437  0.73542  1.0000
  H   H3935     1.0  0.35402  0.73249  0.77613  1.0000
  S   S1009     1.0  0.40022  0.91397  0.95287  1.0000
  C   C2470     1.0  0.19006  0.73835  0.90396  1.0000
  C   C2471     1.0  0.08581  0.96372  0.88704  1.0000
  S   S1010     1.0  0.41687  0.87704  0.96242  1.0000
  N   N244      1.0  0.18421  0.92746  0.75636  1.0000
  Fe  Fe512     1.0  0.39645  0.89106  0.95183  1.0000
  S   S1011     1.0  0.39409  0.88584  0.92995  1.0000
  H   H3936     1.0  0.17877  0.94456  0.86267  1.0000
  H   H3937     1.0  0.30917  0.93182  0.86469  1.0000
  Fe  Fe513     1.0  0.34115  0.84267  0.88189  1.0000
  S   S1012     1.0  0.31723  0.84813  0.87705  1.0000
  S   S1013     1.0  0.36170  0.82813  0.86820  1.0000
  Fe  Fe514     1.0  0.33029  0.85781  0.90979  1.0000
  S   S1014     1.0  0.30543  0.86440  0.90724  1.0000
  S   S1015     1.0  0.33368  0.86424  0.93060  1.0000
  Fe  Fe515     1.0  0.30953  0.84049  0.90290  1.0000
  S   S1016     1.0  0.29036  0.82713  0.91351  1.0000
  Fe  Fe516     1.0  0.31521  0.87156  0.88172  1.0000
  S   S1017     1.0  0.30233  0.89465  0.86970  1.0000
  S   S1018     1.0  0.33357  0.83309  0.90761  1.0000
  S   S1019     1.0  0.33991  0.86688  0.88441  1.0000
  C   C2472     1.0  0.29299  0.81051  0.90619  1.0000
  C   C2473     1.0  0.30725  0.80470  0.89684  1.0000
  C   C2474     1.0  0.30940  0.79081  0.89196  1.0000
  H   H3938     1.0  0.31675  0.81068  0.89366  1.0000
  H   H3939     1.0  0.32056  0.78615  0.88499  1.0000
  C   C2475     1.0  0.37683  0.88096  0.92960  1.0000
  C   C2476     1.0  0.36343  0.88299  0.94147  1.0000
  C   C2477     1.0  0.35016  0.87811  0.94144  1.0000
  C   C2478     1.0  0.35013  0.87131  0.92947  1.0000
  C   C2479     1.0  0.36339  0.86962  0.91738  1.0000
  C   C2480     1.0  0.37671  0.87442  0.91747  1.0000
  H   H3940     1.0  0.36328  0.88834  0.95065  1.0000
  H   H3941     1.0  0.33989  0.87954  0.95076  1.0000
  H   H3942     1.0  0.36348  0.86437  0.90812  1.0000
  H   H3943     1.0  0.38702  0.87288  0.90822  1.0000
  N   N245      1.0  0.17816  0.96477  0.87076  1.0000
  H   H3944     1.0  0.46305  0.83494  0.75411  1.0000
  H   H3945     1.0  0.26659  0.93763  0.88042  1.0000
  H   H3946     1.0  0.42602  0.83927  0.78353  1.0000
  H   H3947     1.0  0.30863  0.79313  0.94784  1.0000
  C   C2481     1.0  0.35983  0.74216  0.77160  1.0000
  H   H3948     1.0  0.11675  0.74794  0.91744  1.0000
  C   C2482     1.0  0.37688  0.95326  0.96350  1.0000
  H   H3949     1.0  0.25636  0.73643  0.84277  1.0000
  H   H3950     1.0  0.16797  0.91741  0.75134  1.0000
  H   H3951     1.0  0.11056  0.95752  0.87747  1.0000
  H   H3952     1.0  0.38399  0.94442  0.95719  1.0000
  H   H3953     1.0  0.16402  0.91913  0.77122  1.0000
  C   C2483     1.0  0.25582  0.95758  0.83731  1.0000
  H   H3954     1.0  0.15357  0.73889  0.78140  1.0000
  H   H3955     1.0  0.02351  0.75039  0.74549  1.0000
  H   H3956     1.0  0.34649  0.77368  0.81651  1.0000
  H   H3957     1.0  0.04704  0.86875  0.93172  1.0000
  H   H3958     1.0  0.25811  0.94848  0.83107  1.0000
  C   C2484     1.0  0.04285  0.88339  0.96047  1.0000
  C   C2485     1.0  0.13484  0.84493  0.74558  1.0000
  H   H3959     1.0  0.31679  0.76563  0.96097  1.0000
  C   C2486     1.0  0.27590  0.89054  0.83610  1.0000
  C   C2487     1.0  0.27104  0.90339  0.84311  1.0000
  C   C2488     1.0  0.27943  0.90476  0.85314  1.0000
  C   C2489     1.0  0.29271  0.89330  0.85620  1.0000
  C   C2490     1.0  0.29776  0.88062  0.84892  1.0000
  C   C2491     1.0  0.28934  0.87922  0.83889  1.0000
  H   H3960     1.0  0.26056  0.91208  0.84116  1.0000
  H   H3961     1.0  0.27533  0.91453  0.85883  1.0000
  H   H3962     1.0  0.30820  0.87193  0.85094  1.0000
  H   H3963     1.0  0.29318  0.86931  0.83341  1.0000
  H   H3964     1.0  0.99377  0.88355  0.74748  1.0000
  C   C2492     1.0  0.29075  0.92570  0.77530  1.0000
  H   H3965     1.0  0.27486  0.90684  0.77168  1.0000
  H   H3966     1.0  0.06937  0.88928  0.92583  1.0000
  H   H3967     1.0  0.28097  0.93261  0.78272  1.0000
  H   H3968     1.0  0.19233  0.92442  0.73273  1.0000
  H   H3969     1.0  0.44225  0.81979  0.76225  1.0000
  C   C2493     1.0  0.47534  0.80833  0.78491  1.0000
  C   C2494     1.0  0.15535  0.78909  0.81459  1.0000
  H   H3970     1.0  0.48447  0.80515  0.79130  1.0000
  C   C2495     1.0  0.36558  0.83719  0.81580  1.0000
  C   C2496     1.0  0.35429  0.84726  0.82454  1.0000
  C   C2497     1.0  0.35282  0.84449  0.84072  1.0000
  C   C2498     1.0  0.36274  0.83172  0.84814  1.0000
  C   C2499     1.0  0.37396  0.82164  0.83941  1.0000
  C   C2500     1.0  0.37532  0.82434  0.82332  1.0000
  H   H3971     1.0  0.34674  0.85727  0.81880  1.0000
  H   H3972     1.0  0.34421  0.85239  0.84739  1.0000
  H   H3973     1.0  0.38167  0.81177  0.84514  1.0000
  H   H3974     1.0  0.38420  0.81672  0.81672  1.0000
  H   H3975     1.0  0.26802  0.91036  0.79092  1.0000
  C   C2501     1.0  0.30185  0.78930  0.94177  1.0000
  H   H3976     1.0  0.15191  0.77617  0.78724  1.0000
  H   H3977     1.0  0.41004  0.73537  0.74473  1.0000
  C   C2502     1.0  0.07837  0.97718  0.90821  1.0000
  H   H3978     1.0  0.28797  0.92885  0.76357  1.0000
  H   H3979     1.0  0.14356  0.82121  0.74241  1.0000
  H   H3980     1.0  0.30153  0.92970  0.77413  1.0000
  H   H3981     1.0  0.30338  0.90240  0.75988  1.0000
  S   S1020     1.0  0.27620  0.74020  0.88361  1.0000
  H   H3982     1.0  0.13716  0.76727  0.76584  1.0000
  S   S1021     1.0  0.00287  0.91328  0.82008  1.0000
  H   H3983     1.0  0.37127  0.77739  0.81916  1.0000
  C   C2503     1.0  0.47528  0.82090  0.77204  1.0000
  H   H3984     1.0  0.02224  0.85690  0.77067  1.0000
  C   C2504     1.0  0.00844  0.88751  0.76763  1.0000
  C   C2505     1.0  0.36310  0.74908  0.78189  1.0000
  H   H3985     1.0  0.12568  0.73754  0.94234  1.0000
  H   H3986     1.0  0.19693  0.94506  0.86645  1.0000
  H   H3987     1.0  0.37506  0.76466  0.73732  1.0000
  H   H3988     1.0  0.10058  0.86835  0.73765  1.0000
  Fe  Fe517     1.0  0.25144  0.74682  0.89633  1.0000
  H   H3989     1.0  0.03185  0.89296  0.74274  1.0000
  C   C2506     1.0  0.01295  0.94576  0.84407  1.0000
  C   C2507     1.0  0.00461  0.95206  0.83219  1.0000
  C   C2508     1.0  0.00079  0.94214  0.82522  1.0000
  C   C2509     1.0  0.36425  0.74768  0.75551  1.0000
  C   C2510     1.0  0.01363  0.91965  0.84197  1.0000
  C   C2511     1.0  0.01723  0.92955  0.84907  1.0000
  C   C2512     1.0  0.18894  0.97466  0.86965  1.0000
  H   H3990     1.0  0.28350  0.75954  0.94914  1.0000
  H   H3991     1.0  0.08263  0.95904  0.87902  1.0000
  H   H3992     1.0  0.02355  0.92457  0.85820  1.0000
  C   C2513     1.0  0.02555  0.90461  0.93949  1.0000
  C   C2514     1.0  0.03829  0.90831  0.94217  1.0000
  H   H3993     1.0  0.03684  0.86844  0.76250  1.0000
  N   N246      1.0  0.12146  0.76036  0.72289  1.0000
  C   C2515     1.0  0.22661  0.74556  0.87569  1.0000
  C   C2516     1.0  0.02118  0.89054  0.94769  1.0000
  H   H3994     1.0  0.04149  0.91933  0.93614  1.0000
  H   H3995     1.0  0.19913  0.93417  0.76666  1.0000
  H   H3996     1.0  0.13986  0.76213  0.79337  1.0000
  H   H3997     1.0  0.01160  0.88745  0.94539  1.0000
  C   C2517     1.0  0.10225  0.91194  0.82133  1.0000
  C   C2518     1.0  0.09556  0.92493  0.82813  1.0000
  C   C2519     1.0  0.08909  0.92287  0.84418  1.0000
  C   C2520     1.0  0.08941  0.90780  0.85347  1.0000
  C   C2521     1.0  0.09637  0.89481  0.84671  1.0000
  C   C2522     1.0  0.10267  0.89687  0.83064  1.0000
  H   H3998     1.0  0.09534  0.93660  0.82099  1.0000
  H   H3999     1.0  0.08407  0.93292  0.84938  1.0000
  H   H4000     1.0  0.09663  0.88314  0.85386  1.0000
  H   H4001     1.0  0.10758  0.88679  0.82544  1.0000
  C   C2523     1.0  0.18329  0.88510  0.79417  1.0000
  C   C2524     1.0  0.19814  0.88486  0.79580  1.0000
  C   C2525     1.0  0.20006  0.89554  0.80321  1.0000
  C   C2526     1.0  0.18711  0.90649  0.80897  1.0000
  C   C2527     1.0  0.17223  0.90645  0.80764  1.0000
  C   C2528     1.0  0.17033  0.89584  0.80019  1.0000
  H   H4002     1.0  0.20821  0.87655  0.79116  1.0000
  H   H4003     1.0  0.21154  0.89537  0.80437  1.0000
  H   H4004     1.0  0.16217  0.91488  0.81211  1.0000
  H   H4005     1.0  0.15884  0.89627  0.79885  1.0000
  C   C2529     1.0  0.13510  0.81797  0.81784  1.0000
  C   C2530     1.0  0.14465  0.81604  0.80334  1.0000
  C   C2531     1.0  0.15492  0.80170  0.80176  1.0000
  H   H4006     1.0  0.14418  0.82559  0.79334  1.0000
  H   H4007     1.0  0.16256  0.80038  0.79058  1.0000
  H   H4008     1.0  0.48402  0.77391  0.78018  1.0000
  H   H4009     1.0  0.18319  0.95210  0.74793  1.0000
  C   C2532     1.0  0.10160  0.96293  0.88612  1.0000
  C   C2533     1.0  0.26833  0.96259  0.83893  1.0000
  H   H4010     1.0  0.39686  0.85148  0.97155  1.0000
  H   H4011     1.0  0.20534  0.93112  0.73952  1.0000
  H   H4012     1.0  0.20005  0.73076  0.89749  1.0000
  H   H4013     1.0  0.42431  0.85219  0.81922  1.0000
  H   H4014     1.0  0.09132  0.73509  0.86878  1.0000
  H   H4015     1.0  0.41217  0.93497  0.96582  1.0000
  C   C2534     1.0  0.17543  0.94365  0.75172  1.0000
  H   H4016     1.0  0.40939  0.81729  0.82256  1.0000
  H   H4017     1.0  0.03263  0.85811  0.75069  1.0000
  C   C2535     1.0  0.33538  0.97621  0.94944  1.0000
  H   H4018     1.0  0.10847  0.78509  0.79726  1.0000
  C   C2536     1.0  0.08390  0.86632  0.90934  1.0000
  H   H4019     1.0  0.40891  0.95591  0.96129  1.0000
  H   H4020     1.0  0.13580  0.75687  0.73909  1.0000
  H   H4021     1.0  0.08592  0.85420  0.90778  1.0000
  H   H4022     1.0  0.11439  0.77995  0.73396  1.0000
  C   C2537     1.0  0.23768  0.97588  0.85220  1.0000
  C   C2538     1.0  0.05980  0.86381  0.92837  1.0000
  H   H4023     1.0  0.41535  0.83694  0.83252  1.0000
  Fe  Fe518     1.0  0.14962  0.73764  0.86560  1.0000
  H   H4024     1.0  0.36692  0.84856  0.95294  1.0000
  H   H4025     1.0  0.20160  0.74688  0.85379  1.0000
  S   S1022     1.0  0.28150  0.97999  0.84939  1.0000
  C   C2539     1.0  0.31101  0.97013  0.95050  1.0000
  N   N247      1.0  0.05794  0.91998  0.81201  1.0000
  C   C2540     1.0  0.05523  0.91890  0.82893  1.0000
  C   C2541     1.0  0.06827  0.90530  0.80806  1.0000
  C   C2542     1.0  0.06538  0.93325  0.80333  1.0000
  C   C2543     1.0  0.04286  0.92249  0.80773  1.0000
  H   H4026     1.0  0.04811  0.93005  0.83223  1.0000
  H   H4027     1.0  0.06641  0.91628  0.83270  1.0000
  H   H4028     1.0  0.04897  0.90947  0.83586  1.0000
  H   H4029     1.0  0.06300  0.89505  0.81444  1.0000
  H   H4030     1.0  0.07068  0.90573  0.79537  1.0000
  H   H4031     1.0  0.07976  0.90304  0.81114  1.0000
  H   H4032     1.0  0.07672  0.93182  0.80638  1.0000
  H   H4033     1.0  0.05784  0.94451  0.80598  1.0000
  H   H4034     1.0  0.06785  0.93428  0.79052  1.0000
  H   H4035     1.0  0.03467  0.93332  0.81084  1.0000
  H   H4036     1.0  0.03698  0.91259  0.81389  1.0000
  N   N248      1.0  0.17313  0.83260  0.82462  1.0000
  C   C2544     1.0  0.16919  0.84807  0.82864  1.0000
  C   C2545     1.0  0.13400  0.83136  0.74173  1.0000
  C   C2546     1.0  0.16387  0.82217  0.83670  1.0000
  C   C2547     1.0  0.37777  0.96897  0.95726  1.0000
  H   H4037     1.0  0.15644  0.85324  0.83017  1.0000
  H   H4038     1.0  0.17532  0.85652  0.81932  1.0000
  H   H4039     1.0  0.17245  0.84727  0.83969  1.0000
  H   H4040     1.0  0.15683  0.83966  0.80981  1.0000
  H   H4041     1.0  0.28626  0.91158  0.80564  1.0000
  C   C2548     1.0  0.27796  0.90406  0.78321  1.0000
  H   H4042     1.0  0.16639  0.81046  0.83391  1.0000
  H   H4043     1.0  0.15108  0.82707  0.83768  1.0000
  H   H4044     1.0  0.19321  0.82411  0.83489  1.0000
  H   H4045     1.0  0.16588  0.94722  0.76153  1.0000
  N   N249      1.0  0.26379  0.85714  0.88372  1.0000
  C   C2549     1.0  0.25399  0.86813  0.87317  1.0000
  C   C2550     1.0  0.27013  0.86606  0.89077  1.0000
  C   C2551     1.0  0.27682  0.84710  0.87480  1.0000
  C   C2552     1.0  0.25420  0.84727  0.89614  1.0000
  H   H4046     1.0  0.24935  0.86187  0.86725  1.0000
  H   H4047     1.0  0.26078  0.87598  0.86390  1.0000
  H   H4048     1.0  0.24388  0.87573  0.87953  1.0000
  H   H4049     1.0  0.27738  0.85815  0.89900  1.0000
  H   H4050     1.0  0.27772  0.87338  0.88177  1.0000
  H   H4051     1.0  0.26067  0.87398  0.89738  1.0000
  H   H4052     1.0  0.27249  0.84016  0.86932  1.0000
  H   H4053     1.0  0.28447  0.83869  0.88241  1.0000
  H   H4054     1.0  0.28432  0.85415  0.86536  1.0000
  H   H4055     1.0  0.24430  0.85444  0.90317  1.0000
  H   H4056     1.0  0.26125  0.83883  0.90431  1.0000
  H   H4057     1.0  0.24929  0.84032  0.89123  1.0000
  H   H4058     1.0  0.21695  0.73705  0.91123  1.0000
  H   H4059     1.0  0.21752  0.97578  0.89399  1.0000
  S   S1023     1.0  0.37492  0.76981  0.78927  1.0000
  H   H4060     1.0  0.99642  0.86644  0.76271  1.0000
  H   H4061     1.0  0.42920  0.81277  0.81179  1.0000
  C   C2553     1.0  0.34016  0.78043  0.82575  1.0000
  H   H4062     1.0  0.05717  0.90028  0.95428  1.0000
  H   H4063     1.0  0.05256  0.89554  0.91724  1.0000
  N   N250      1.0  0.13001  0.78438  0.78000  1.0000
  Fe  Fe519     1.0  0.38694  0.78991  0.77821  1.0000
  H   H4064     1.0  0.41347  0.81847  0.80195  1.0000
  H   H4065     1.0  0.01360  0.89945  0.73687  1.0000
  Fe  Fe520     1.0  0.28201  0.75077  0.90006  1.0000
  C   C2554     1.0  0.41624  0.94498  0.96682  1.0000
  H   H4066     1.0  0.33842  0.80965  0.80796  1.0000
  H   H4067     1.0  0.33883  0.77186  0.83713  1.0000
  H   H4068     1.0  0.27353  0.78274  0.90872  1.0000
  H   H4069     1.0  0.99904  0.89775  0.76440  1.0000
  H   H4070     1.0  0.35663  0.81196  0.80973  1.0000
  H   H4071     1.0  0.46352  0.79029  0.79968  1.0000
  C   C2555     1.0  0.17354  0.91662  0.76096  1.0000
  C   C2556     1.0  0.37493  0.76724  0.76006  1.0000
  C   C2557     1.0  0.37170  0.76029  0.74977  1.0000
  C   C2558     1.0  0.24045  0.96430  0.84379  1.0000
  C   C2559     1.0  0.40273  0.84745  0.80733  1.0000
  C   C2560     1.0  0.00266  0.87344  0.75198  1.0000
  H   H4072     1.0  0.27562  0.78789  0.96389  1.0000
  C   C2561     1.0  0.20990  0.74192  0.86116  1.0000
  H   H4073     1.0  0.04671  0.87942  0.90390  1.0000
  S   S1024     1.0  0.18553  0.97576  0.90903  1.0000
  Fe  Fe521     1.0  0.13163  0.97947  0.94397  1.0000
  C   C2562     1.0  0.24058  0.94889  0.75439  1.0000
  C   C2563     1.0  0.46343  0.80001  0.78968  1.0000
  H   H4074     1.0  0.44150  0.83389  0.79377  1.0000
  C   C2564     1.0  0.12117  0.83121  0.73631  1.0000
  C   C2565     1.0  0.10989  0.85802  0.73889  1.0000
  H   H4075     1.0  0.06461  0.88107  0.88983  1.0000
  H   H4076     1.0  0.18895  0.75044  0.89666  1.0000
  H   H4077     1.0  0.16633  0.82041  0.84836  1.0000
  H   H4078     1.0  0.07154  0.89644  0.90529  1.0000
  C   C2566     1.0  0.16462  0.97448  0.86418  1.0000
  H   H4079     1.0  0.11104  0.73759  0.86453  1.0000
  C   C2567     1.0  0.05942  0.87396  0.90113  1.0000
  C   C2568     1.0  0.03458  0.75448  0.74260  1.0000
  C   C2569     1.0  0.24675  0.94833  0.73866  1.0000
  H   H4080     1.0  0.40298  0.86005  0.80451  1.0000
  H   H4081     1.0  0.30947  0.78745  0.93029  1.0000
  H   H4082     1.0  0.43041  0.85367  0.79063  1.0000
  C   C2570     1.0  0.04958  0.73088  0.73404  1.0000
  C   C2571     1.0  0.45151  0.80406  0.78152  1.0000
  H   H4083     1.0  0.06064  0.86209  0.89930  1.0000
  C   C2572     1.0  0.31002  0.76235  0.95446  1.0000
  H   H4084     1.0  0.27377  0.74219  0.84251  1.0000
  H   H4085     1.0  0.00125  0.96460  0.82822  1.0000
  C   C2573     1.0  0.33172  0.94985  0.96012  1.0000
  S   S1025     1.0  0.24770  0.73524  0.95338  1.0000
  C   C2574     1.0  0.29731  0.78275  0.89634  1.0000
  H   H4086     1.0  0.37901  0.82930  0.95542  1.0000
  C   C2575     1.0  0.17838  0.74709  0.92805  1.0000
  H   H4087     1.0  0.15615  0.96738  0.86507  1.0000
  H   H4088     1.0  0.20217  0.96242  0.75330  1.0000
  C   C2576     1.0  0.10985  0.75207  0.73434  1.0000
  H   H4089     1.0  0.18173  0.92929  0.77992  1.0000
  H   H4090     1.0  0.28656  0.91542  0.89125  1.0000
  H   H4091     1.0  0.03156  0.76751  0.73962  1.0000
  H   H4092     1.0  0.00738  0.86608  0.74316  1.0000
  S   S1026     1.0  0.17021  0.74896  0.85623  1.0000
  H   H4093     1.0  0.31537  0.96807  0.93843  1.0000
  H   H4094     1.0  0.30685  0.90841  0.79724  1.0000
  C   C2577     1.0  0.29587  0.90515  0.79765  1.0000
  H   H4095     1.0  0.36377  0.77539  0.83978  1.0000
  H   H4096     1.0  0.28697  0.92527  0.90555  1.0000
  S   S1027     1.0  0.30069  0.76494  0.89075  1.0000
  H   H4097     1.0  0.31680  0.90321  0.77058  1.0000
  C   C2578     1.0  0.14536  0.79074  0.82898  1.0000
  H   H4098     1.0  0.17619  0.84222  0.79997  1.0000
  H   H4099     1.0  0.34028  0.97397  0.93750  1.0000
  S   S1028     1.0  0.22455  0.95842  0.84159  1.0000
  H   H4100     1.0  0.12776  0.80663  0.84184  1.0000
  C   C2579     1.0  0.18646  0.95239  0.86196  1.0000
  H   H4101     1.0  0.10854  0.75354  0.74633  1.0000
  N   N251      1.0  0.28910  0.93918  0.88215  1.0000
  C   C2580     1.0  0.29599  0.95041  0.88549  1.0000
  S   S1029     1.0  0.14354  0.74269  0.84235  1.0000
  C   C2581     1.0  0.29641  0.93692  0.86612  1.0000
  C   C2582     1.0  0.27209  0.94537  0.88366  1.0000
  H   H4102     1.0  0.30880  0.94609  0.88457  1.0000
  H   H4103     1.0  0.29059  0.95263  0.89740  1.0000
  S   S1030     1.0  0.05441  0.97469  0.89743  1.0000
  H   H4104     1.0  0.19909  0.96776  0.87489  1.0000
  N   N252      1.0  0.01517  0.87868  0.75511  1.0000
  N   N253      1.0  0.41835  0.83732  0.80829  1.0000
  C   C2583     1.0  0.06041  0.75391  0.72615  1.0000
  C   C2584     1.0  0.02724  0.86492  0.76000  1.0000
  H   H4105     1.0  0.29124  0.92884  0.86303  1.0000
  H   H4106     1.0  0.27877  0.89134  0.78830  1.0000
  H   H4107     1.0  0.38070  0.77695  0.75554  1.0000
  N   N254      1.0  0.04594  0.74814  0.72961  1.0000
  H   H4108     1.0  0.01738  0.89209  0.77005  1.0000
  H   H4109     1.0  0.34616  0.80963  0.83827  1.0000
  H   H4110     1.0  0.47143  0.77895  0.74356  1.0000
  S   S1031     1.0  0.16831  0.77137  0.81211  1.0000
  C   C2585     1.0  0.28079  0.80265  0.91031  1.0000
  S   S1032     1.0  0.13494  0.73043  0.76575  1.0000
  H   H4111     1.0  0.33881  0.79272  0.84983  1.0000
  N   N255      1.0  0.29256  0.90872  0.78198  1.0000
  H   H4112     1.0  0.46899  0.76316  0.76032  1.0000
  H   H4113     1.0  0.08997  0.86587  0.91848  1.0000
  N   N256      1.0  0.32392  0.96659  0.95857  1.0000
  H   H4114     1.0  0.06624  0.74969  0.73617  1.0000
  C   C2586     1.0  0.30557  0.89999  0.77178  1.0000
  H   H4115     1.0  0.37114  0.79234  0.82846  1.0000
  C   C2587     1.0  0.18997  0.82575  0.82361  1.0000
  C   C2588     1.0  0.34004  0.80071  0.83809  1.0000
  C   C2589     1.0  0.16944  0.83445  0.80944  1.0000
  H   H4116     1.0  0.12245  0.80871  0.76967  1.0000
  C   C2590     1.0  0.36440  0.78395  0.82840  1.0000
  C   C2591     1.0  0.46313  0.82521  0.76408  1.0000
  S   S1033     1.0  0.23252  0.75823  0.88301  1.0000
  Fe  Fe522     1.0  0.25961  0.73601  0.92803  1.0000
  C   C2592     1.0  0.28588  0.77822  0.96596  1.0000
  C   C2593     1.0  0.21555  0.75181  0.86644  1.0000
  H   H4117     1.0  0.19719  0.83344  0.81456  1.0000
  H   H4118     1.0  0.04437  0.92361  0.79502  1.0000
  H   H4119     1.0  0.13501  0.77812  0.80285  1.0000
  C   C2594     1.0  0.28568  0.73068  0.97019  1.0000
  N   N257      1.0  0.29642  0.77501  0.95114  1.0000
  H   H4120     1.0  0.32348  0.94217  0.96693  1.0000
  C   C2595     1.0  0.42358  0.83981  0.82111  1.0000
  N   N258      1.0  0.34866  0.79207  0.82566  1.0000
  H   H4121     1.0  0.36000  0.83320  0.96808  1.0000
  H   H4122     1.0  0.16611  0.96663  0.89412  1.0000
  H   H4123     1.0  0.17933  0.73440  0.90484  1.0000
  H   H4124     1.0  0.14557  0.78095  0.83890  1.0000
  H   H4125     1.0  0.19333  0.81412  0.82048  1.0000
  H   H4126     1.0  0.14902  0.78151  0.76019  1.0000
  H   H4127     1.0  0.17219  0.82302  0.80605  1.0000
  S   S1034     1.0  0.41013  0.78998  0.76139  1.0000
  H   H4128     1.0  0.08962  0.87330  0.89820  1.0000
  H   H4129     1.0  0.46536  0.78270  0.76278  1.0000
  C   C2596     1.0  0.13682  0.73449  0.90429  1.0000
  H   H4130     1.0  0.33680  0.94675  0.94853  1.0000
  C   C2597     1.0  0.22447  0.95375  0.75966  1.0000
  C   C2598     1.0  0.37056  0.83801  0.96185  1.0000
  H   H4131     1.0  0.14160  0.80350  0.77368  1.0000
  C   C2599     1.0  0.06503  0.88932  0.91562  1.0000
  C   C2600     1.0  0.26690  0.73295  0.84782  1.0000
  H   H4132     1.0  0.26952  0.95712  0.87594  1.0000
  C   C2601     1.0  0.26555  0.97435  0.84709  1.0000
  H   H4133     1.0  0.46776  0.92050  0.95770  1.0000
  C   C2602     1.0  0.13265  0.73347  0.93199  1.0000
  S   S1035     1.0  0.25310  0.94388  0.76726  1.0000
  H   H4134     1.0  0.16774  0.74261  0.92969  1.0000
  C   C2603     1.0  0.10578  0.96940  0.89615  1.0000
  S   S1036     1.0  0.43753  0.79255  0.78726  1.0000
  C   C2604     1.0  0.21456  0.95822  0.74922  1.0000
  C   C2605     1.0  0.28293  0.78882  0.90536  1.0000
  H   H4135     1.0  0.02744  0.88261  0.73108  1.0000
  H   H4136     1.0  0.30465  0.91870  0.89211  1.0000
  H   H4137     1.0  0.30631  0.75150  0.96177  1.0000
  C   C2606     1.0  0.13666  0.75464  0.72751  1.0000
  H   H4138     1.0  0.26973  0.80713  0.91754  1.0000
  H   H4139     1.0  0.32808  0.80695  0.83645  1.0000
  H   H4140     1.0  0.17966  0.74678  0.93987  1.0000
  H   H4141     1.0  0.10636  0.78892  0.77753  1.0000
  C   C2607     1.0  0.22066  0.95737  0.73358  1.0000
  H   H4142     1.0  0.28019  0.95738  0.83381  1.0000
  H   H4143     1.0  0.14501  0.84522  0.74922  1.0000
  H   H4144     1.0  0.17612  0.75953  0.92171  1.0000
  C   C2608     1.0  0.29193  0.92401  0.89329  1.0000
  C   C2609     1.0  0.09415  0.97628  0.90737  1.0000
  H   H4145     1.0  0.35635  0.79703  0.80069  1.0000
  H   H4146     1.0  0.01725  0.90711  0.84570  1.0000
  S   S1037     1.0  0.40625  0.82575  0.76610  1.0000
  C   C2610     1.0  0.46794  0.90958  0.96626  1.0000
  H   H4147     1.0  0.29554  0.76747  0.93117  1.0000
  H   H4148     1.0  0.29485  0.94813  0.85738  1.0000
  S   S1038     1.0  0.25697  0.75933  0.91128  1.0000
  S   S1039     1.0  0.36167  0.73827  0.74237  1.0000
  H   H4149     1.0  0.38758  0.85981  0.95545  1.0000
  H   H4150     1.0  0.20837  0.74361  0.92911  1.0000
  H   H4151     1.0  0.31808  0.75943  0.94354  1.0000
  C   C2611     1.0  0.45134  0.81669  0.76871  1.0000
  S   S1040     1.0  0.12500  0.87626  0.74569  1.0000
  H   H4152     1.0  0.02638  0.86907  0.96444  1.0000
  H   H4153     1.0  0.17985  0.90426  0.76420  1.0000
  H   H4154     1.0  0.42844  0.94413  0.95980  1.0000
  C   C2612     1.0  0.19694  0.92331  0.74311  1.0000
  H   H4155     1.0  0.11378  0.76929  0.78733  1.0000
  C   C2613     1.0  0.13959  0.77479  0.79133  1.0000
  Fe  Fe523     1.0  0.16568  0.75134  0.83272  1.0000
  Fe  Fe524     1.0  0.39873  0.81463  0.75112  1.0000
  S   S1041     1.0  0.37503  0.81365  0.76680  1.0000
  H   H4156     1.0  0.21966  0.95439  0.77173  1.0000
  Fe  Fe525     1.0  0.41579  0.80109  0.77752  1.0000
  H   H4157     1.0  0.30232  0.96280  0.95683  1.0000
  H   H4158     1.0  0.27763  0.77947  0.93959  1.0000
  C   C2614     1.0  0.02966  0.88005  0.95836  1.0000
  H   H4159     1.0  0.16440  0.94999  0.88860  1.0000
  H   H4160     1.0  0.12997  0.78700  0.75594  1.0000
  H   H4161     1.0  0.32827  0.78612  0.82360  1.0000
  C   C2615     1.0  0.37069  0.76158  0.77614  1.0000
  C   C2616     1.0  0.12293  0.85839  0.74378  1.0000
  C   C2617     1.0  0.17256  0.95756  0.88727  1.0000
  S   S1042     1.0  0.44078  0.90973  0.95912  1.0000
  S   S1043     1.0  0.13056  0.74210  0.88664  1.0000
  C   C2618     1.0  0.04709  0.89758  0.95249  1.0000
  S   S1044     1.0  0.12271  0.96969  0.96943  1.0000
  H   H4162     1.0  0.11337  0.73933  0.73465  1.0000
  C   C2619     1.0  0.07417  0.97116  0.89788  1.0000
  C   C2620     1.0  0.00552  0.92592  0.82997  1.0000
  H   H4163     1.0  0.25921  0.94453  0.73454  1.0000
  H   H4164     1.0  0.38558  0.97216  0.94616  1.0000
  H   H4165     1.0  0.26610  0.94666  0.89576  1.0000
  H   H4166     1.0  0.34146  0.94682  0.96626  1.0000
  H   H4167     1.0  0.37056  0.83351  0.73552  1.0000
  C   C2621     1.0  0.02232  0.88886  0.74082  1.0000
  C   C2622     1.0  0.20621  0.74392  0.91765  1.0000
  H   H4168     1.0  0.19764  0.91417  0.77343  1.0000
  C   C2623     1.0  0.12763  0.73937  0.91788  1.0000
  C   C2624     1.0  0.28792  0.77018  0.94237  1.0000
  H   H4169     1.0  0.29417  0.96193  0.87713  1.0000
  H   H4170     1.0  0.20488  0.75625  0.91090  1.0000
  H   H4171     1.0  0.39432  0.73511  0.73685  1.0000
  H   H4172     1.0  0.26269  0.73298  0.86047  1.0000
  H   H4173     1.0  0.18243  0.95042  0.89281  1.0000
  C   C2625     1.0  0.23677  0.95238  0.72829  1.0000
  H   H4174     1.0  0.19071  0.95745  0.84941  1.0000
  N   N259      1.0  0.19237  0.73766  0.91950  1.0000
  C   C2626     1.0  0.45579  0.90175  0.96951  1.0000
  H   H4175     1.0  0.29186  0.79921  0.93938  1.0000
  S   S1045     1.0  0.40415  0.82277  0.72490  1.0000
  H   H4176     1.0  0.34534  0.97371  0.95510  1.0000
  H   H4177     1.0  0.03932  0.75079  0.75333  1.0000
  S   S1046     1.0  0.98866  0.92960  0.74968  1.0000
  H   H4178     1.0  0.09868  0.84416  0.73181  1.0000
  H   H4179     1.0  0.99456  0.94706  0.81591  1.0000
  C   C2627     1.0  0.47318  0.77425  0.75569  1.0000
  H   H4180     1.0  0.14088  0.74180  0.72846  1.0000
  S   S1047     1.0  0.12100  0.81500  0.72965  1.0000
  H   H4181     1.0  0.15416  0.97393  0.96383  1.0000
  C   C2628     1.0  0.27610  0.73019  0.96085  1.0000
  S   S1048     1.0  0.08079  0.81458  0.72369  1.0000
  H   H4182     1.0  0.05801  0.76691  0.72326  1.0000
  H   H4183     1.0  0.99423  0.88644  0.97184  1.0000
  C   C2629     1.0  0.37317  0.83423  0.72312  1.0000
  H   H4184     1.0  0.19377  0.97995  0.85731  1.0000
  C   C2630     1.0  0.11610  0.77731  0.72238  1.0000
  S   S1049     1.0  0.77683  0.13529  0.15821  1.0000
  N   N260      1.0  0.91356  0.12347  0.07487  1.0000
  S   S1050     1.0  0.85204  0.14132  0.13024  1.0000
  S   S1051     1.0  0.81330  0.14701  0.16234  1.0000
  Fe  Fe526     1.0  0.86624  0.07730  0.09188  1.0000
  S   S1052     1.0  0.88441  0.05610  0.08634  1.0000
  S   S1053     1.0  0.85031  0.07887  0.11528  1.0000
  Fe  Fe527     1.0  0.87244  0.09605  0.05872  1.0000
  S   S1054     1.0  0.89135  0.07677  0.05001  1.0000
  S   S1055     1.0  0.86493  0.11981  0.04426  1.0000
  Fe  Fe528     1.0  0.87505  0.06136  0.06482  1.0000
  S   S1056     1.0  0.87049  0.04311  0.05572  1.0000
  Fe  Fe529     1.0  0.89904  0.07338  0.07215  1.0000
  S   S1057     1.0  0.92429  0.06986  0.07235  1.0000
  S   S1058     1.0  0.85541  0.08093  0.07169  1.0000
  S   S1059     1.0  0.88163  0.09425  0.07939  1.0000
  H   H4185     1.0  0.52457  0.07435  0.98538  1.0000
  H   H4186     1.0  0.97237  0.09786  0.20622  1.0000
  S   S1060     1.0  0.79376  0.02882  0.00432  1.0000
  N   N261      1.0  0.50507  0.09354  0.98955  1.0000
  Fe  Fe530     1.0  0.81683  0.05835  0.00476  1.0000
  S   S1061     1.0  0.80349  0.04562  0.02681  1.0000
  S   S1062     1.0  0.82999  0.07560  0.00497  1.0000
  Fe  Fe531     1.0  0.81370  0.02482  0.01582  1.0000
  Fe  Fe532     1.0  0.78493  0.05084  0.01342  1.0000
  S   S1063     1.0  0.76000  0.06127  0.02336  1.0000
  S   S1064     1.0  0.82859  0.03720  0.99472  1.0000
  S   S1065     1.0  0.79734  0.06550  0.99225  1.0000
  C   C2631     1.0  0.85024  0.15900  0.21270  1.0000
  N   N262      1.0  0.60983  0.06625  0.98538  1.0000
  S   S1066     1.0  0.92464  0.14665  0.00783  1.0000
  H   H4187     1.0  0.95050  0.00515  0.10093  1.0000
  C   C2632     1.0  0.75768  0.10646  0.19501  1.0000
  Fe  Fe533     1.0  0.61870  0.16678  0.07314  1.0000
  S   S1067     1.0  0.59409  0.17197  0.07029  1.0000
  S   S1068     1.0  0.62903  0.14317  0.08629  1.0000
  S   S1069     1.0  0.60245  0.16570  0.02691  1.0000
  S   S1070     1.0  0.62903  0.17123  0.04761  1.0000
  H   H4188     1.0  0.87483  0.13982  0.99007  1.0000
  Fe  Fe534     1.0  0.53847  0.15292  0.99302  1.0000
  H   H4189     1.0  0.52528  0.09766  0.99398  1.0000
  S   S1071     1.0  0.53993  0.16885  0.00740  1.0000
  H   H4190     1.0  0.93217  0.15295  0.19590  1.0000
  Fe  Fe535     1.0  0.54541  0.12008  0.98680  1.0000
  S   S1072     1.0  0.55632  0.09498  0.99630  1.0000
  H   H4191     1.0  0.96917  0.00705  0.10207  1.0000
  H   H4192     1.0  0.95917  0.00867  0.12968  1.0000
  Fe  Fe536     1.0  0.71825  0.09084  0.10165  1.0000
  S   S1073     1.0  0.69767  0.09473  0.12147  1.0000
  S   S1074     1.0  0.72069  0.07710  0.08380  1.0000
  Fe  Fe537     1.0  0.73705  0.10762  0.11152  1.0000
  S   S1075     1.0  0.71810  0.11297  0.13209  1.0000
  S   S1076     1.0  0.75932  0.11624  0.10470  1.0000
  Fe  Fe538     1.0  0.71559  0.08837  0.13588  1.0000
  Fe  Fe539     1.0  0.70192  0.11893  0.11598  1.0000
  S   S1077     1.0  0.68305  0.14074  0.11759  1.0000
  S   S1078     1.0  0.73601  0.08238  0.11657  1.0000
  S   S1079     1.0  0.72104  0.11568  0.09483  1.0000
  Fe  Fe540     1.0  0.69171  0.02327  0.04829  1.0000
  S   S1080     1.0  0.67758  0.02605  0.07200  1.0000
  S   S1081     1.0  0.71734  0.01230  0.04519  1.0000
  Fe  Fe541     1.0  0.66330  0.03445  0.03393  1.0000
  S   S1082     1.0  0.64668  0.03823  0.05650  1.0000
  S   S1083     1.0  0.65700  0.03817  0.01097  1.0000
  Fe  Fe542     1.0  0.66496  0.04872  0.05940  1.0000
  S   S1084     1.0  0.65952  0.07041  0.06894  1.0000
  Fe  Fe543     1.0  0.66095  0.01526  0.06691  1.0000
  S   S1085     1.0  0.68048  0.04683  0.03585  1.0000
  S   S1086     1.0  0.67605  0.01066  0.04410  1.0000
  C   C2633     1.0  0.93271  0.12038  0.18448  1.0000
  C   C2634     1.0  0.70408  0.07694  0.18939  1.0000
  H   H4193     1.0  0.76803  0.10421  0.18535  1.0000
  H   H4194     1.0  0.62818  0.05995  0.99788  1.0000
  H   H4195     1.0  0.62783  0.04786  0.97660  1.0000
  Fe  Fe544     1.0  0.60236  0.00439  0.98999  1.0000
  S   S1087     1.0  0.60479  0.00376  0.01398  1.0000
  S   S1088     1.0  0.78548  0.17691  0.15193  1.0000
  H   H4196     1.0  0.71138  0.98830  0.09652  1.0000
  S   S1089     1.0  0.58084  0.00132  0.98484  1.0000
  N   N263      1.0  0.94963  0.02437  0.11066  1.0000
  S   S1090     1.0  0.65102  0.99568  0.08420  1.0000
  C   C2635     1.0  0.55049  0.20240  0.97329  1.0000
  Fe  Fe545     1.0  0.95486  0.07314  0.13955  1.0000
  S   S1091     1.0  0.95728  0.05939  0.16345  1.0000
  S   S1092     1.0  0.93065  0.08091  0.13502  1.0000
  Fe  Fe546     1.0  0.97337  0.07459  0.16179  1.0000
  S   S1093     1.0  0.96927  0.08627  0.18169  1.0000
  H   H4197     1.0  0.74685  0.02455  0.99372  1.0000
  H   H4198     1.0  0.87412  0.11657  0.01173  1.0000
  S   S1094     1.0  0.96917  0.08970  0.13882  1.0000
  S   S1095     1.0  0.97472  0.05697  0.12731  1.0000
  H   H4199     1.0  0.93519  0.03964  0.09513  1.0000
  H   H4200     1.0  0.74883  0.01658  0.19807  1.0000
  C   C2636     1.0  0.63356  0.98902  0.05759  1.0000
  C   C2637     1.0  0.80220  0.22972  0.09618  1.0000
  H   H4201     1.0  0.58637  0.22455  0.15862  1.0000
  C   C2638     1.0  0.74336  0.22722  0.09830  1.0000
  C   C2639     1.0  0.71121  0.02713  0.08389  1.0000
  C   C2640     1.0  0.51252  0.09897  0.99885  1.0000
  H   H4202     1.0  0.94189  0.02288  0.13537  1.0000
  C   C2641     1.0  0.50808  0.10240  0.97323  1.0000
  H   H4203     1.0  0.72176  0.99771  0.11369  1.0000
  S   S1096     1.0  0.64588  0.20808  0.03476  1.0000
  H   H4204     1.0  0.91804  0.10861  0.09668  1.0000
  C   C2642     1.0  0.64272  0.02823  0.01205  1.0000
  C   C2643     1.0  0.64232  0.02360  0.99885  1.0000
  C   C2644     1.0  0.63076  0.01596  0.99940  1.0000
  C   C2645     1.0  0.61941  0.01314  0.01311  1.0000
  C   C2646     1.0  0.61970  0.01795  0.02625  1.0000
  C   C2647     1.0  0.63144  0.02533  0.02579  1.0000
  H   H4205     1.0  0.65105  0.02579  0.98820  1.0000
  H   H4206     1.0  0.63066  0.01221  0.98922  1.0000
  H   H4207     1.0  0.61235  0.07561  0.00340  1.0000
  H   H4208     1.0  0.63152  0.02912  0.03593  1.0000
  C   C2648     1.0  0.70344  0.07606  0.07951  1.0000
  C   C2649     1.0  0.68874  0.08447  0.08584  1.0000
  C   C2650     1.0  0.67521  0.08296  0.08243  1.0000
  C   C2651     1.0  0.67635  0.07282  0.07293  1.0000
  C   C2652     1.0  0.69104  0.06453  0.06659  1.0000
  C   C2653     1.0  0.70454  0.06633  0.06966  1.0000
  H   H4209     1.0  0.68778  0.09212  0.09335  1.0000
  H   H4210     1.0  0.66387  0.08941  0.08739  1.0000
  H   H4211     1.0  0.69194  0.05682  0.05922  1.0000
  H   H4212     1.0  0.71589  0.06008  0.06447  1.0000
  H   H4213     1.0  0.72916  0.09396  0.15857  1.0000
  H   H4214     1.0  0.96132  0.21275  0.98466  1.0000
  C   C2654     1.0  0.70585  0.08311  0.20104  1.0000
  Fe  Fe547     1.0  0.53565  0.21914  0.20408  1.0000
  C   C2655     1.0  0.92391  0.13366  0.07411  1.0000
  S   S1097     1.0  0.71041  0.07282  0.15969  1.0000
  C   C2656     1.0  0.55783  0.08092  0.98587  1.0000
  C   C2657     1.0  0.74155  0.03686  0.99481  1.0000
  C   C2658     1.0  0.83141  0.21877  0.14618  1.0000
  H   H4215     1.0  0.86620  0.10752  0.00159  1.0000
  C   C2659     1.0  0.56465  0.05358  0.98426  1.0000
  C   C2660     1.0  0.56234  0.06507  0.99266  1.0000
  H   H4216     1.0  0.56833  0.04135  0.98951  1.0000
  H   H4217     1.0  0.56423  0.06163  0.00440  1.0000
  C   C2661     1.0  0.64371  0.14253  0.09536  1.0000
  C   C2662     1.0  0.64299  0.15468  0.10222  1.0000
  C   C2663     1.0  0.65496  0.15392  0.10939  1.0000
  C   C2664     1.0  0.66772  0.14111  0.10948  1.0000
  C   C2665     1.0  0.66843  0.12901  0.10258  1.0000
  C   C2666     1.0  0.65634  0.12963  0.09570  1.0000
  H   H4218     1.0  0.63311  0.16456  0.10215  1.0000
  H   H4219     1.0  0.65440  0.16330  0.11473  1.0000
  H   H4220     1.0  0.67833  0.11921  0.10242  1.0000
  H   H4221     1.0  0.65688  0.12018  0.09045  1.0000
  H   H4222     1.0  0.78444  0.14508  0.12443  1.0000
  C   C2667     1.0  0.58483  0.16657  0.02197  1.0000
  C   C2668     1.0  0.58497  0.15696  0.01230  1.0000
  C   C2669     1.0  0.57124  0.15733  0.00798  1.0000
  C   C2670     1.0  0.55728  0.16749  0.01314  1.0000
  C   C2671     1.0  0.55716  0.17721  0.02270  1.0000
  C   C2672     1.0  0.57086  0.17669  0.02718  1.0000
  H   H4223     1.0  0.59574  0.14911  0.00822  1.0000
  H   H4224     1.0  0.57149  0.14975  0.00068  1.0000
  H   H4225     1.0  0.54640  0.18510  0.02674  1.0000
  H   H4226     1.0  0.57062  0.18416  0.03462  1.0000
  C   C2673     1.0  0.74833  0.04750  0.03059  1.0000
  C   C2674     1.0  0.75501  0.03148  0.03288  1.0000
  C   C2675     1.0  0.74543  0.02064  0.03760  1.0000
  C   C2676     1.0  0.72919  0.02584  0.04005  1.0000
  C   C2677     1.0  0.72254  0.04182  0.03817  1.0000
  C   C2678     1.0  0.73208  0.05265  0.03352  1.0000
  H   H4227     1.0  0.76756  0.02742  0.03091  1.0000
  H   H4228     1.0  0.75065  0.00826  0.03908  1.0000
  H   H4229     1.0  0.71007  0.04589  0.04005  1.0000
  H   H4230     1.0  0.72687  0.06504  0.03187  1.0000
  C   C2679     1.0  0.79627  0.22116  0.12427  1.0000
  H   H4231     1.0  0.78622  0.02871  0.97624  1.0000
  H   H4232     1.0  0.59094  0.08617  0.98879  1.0000
  H   H4233     1.0  0.74983  0.04423  0.98715  1.0000
  H   H4234     1.0  0.58853  0.21168  0.13774  1.0000
  C   C2680     1.0  0.65232  0.21939  0.04337  1.0000
  C   C2681     1.0  0.79869  0.21816  0.10954  1.0000
  H   H4235     1.0  0.78435  0.09531  0.20532  1.0000
  H   H4236     1.0  0.95939  0.02036  0.08748  1.0000
  H   H4237     1.0  0.59120  0.07762  0.97332  1.0000
  C   C2682     1.0  0.92608  0.07292  0.08974  1.0000
  C   C2683     1.0  0.91307  0.07452  0.10208  1.0000
  C   C2684     1.0  0.91456  0.07708  0.11592  1.0000
  C   C2685     1.0  0.92910  0.07782  0.11755  1.0000
  C   C2686     1.0  0.94212  0.07624  0.10520  1.0000
  C   C2687     1.0  0.94061  0.07378  0.09129  1.0000
  H   H4238     1.0  0.90187  0.07364  0.10105  1.0000
  H   H4239     1.0  0.90445  0.07834  0.12546  1.0000
  H   H4240     1.0  0.95331  0.07709  0.10630  1.0000
  H   H4241     1.0  0.95067  0.07264  0.08171  1.0000
  C   C2688     1.0  0.88140  0.12767  0.03475  1.0000
  C   C2689     1.0  0.87979  0.14253  0.02489  1.0000
  C   C2690     1.0  0.89306  0.14857  0.01679  1.0000
  C   C2691     1.0  0.90792  0.13971  0.01852  1.0000
  C   C2692     1.0  0.90949  0.12493  0.02847  1.0000
  C   C2693     1.0  0.89625  0.11892  0.03662  1.0000
  H   H4242     1.0  0.86831  0.14935  0.02347  1.0000
  H   H4243     1.0  0.89179  0.16012  0.00929  1.0000
  H   H4244     1.0  0.92101  0.11793  0.02949  1.0000
  H   H4245     1.0  0.89759  0.10745  0.04419  1.0000
  C   C2694     1.0  0.85946  0.05221  0.04143  1.0000
  C   C2695     1.0  0.85201  0.04344  0.03670  1.0000
  C   C2696     1.0  0.84311  0.05063  0.02539  1.0000
  C   C2697     1.0  0.84159  0.06661  0.01876  1.0000
  C   C2698     1.0  0.84911  0.07539  0.02339  1.0000
  C   C2699     1.0  0.85801  0.06821  0.03475  1.0000
  H   H4246     1.0  0.85282  0.03115  0.04196  1.0000
  H   H4247     1.0  0.83740  0.04374  0.02186  1.0000
  H   H4248     1.0  0.84785  0.08777  0.01838  1.0000
  H   H4249     1.0  0.86371  0.07506  0.03836  1.0000
  C   C2700     1.0  0.85211  0.12279  0.12823  1.0000
  C   C2701     1.0  0.86575  0.11402  0.12052  1.0000
  C   C2702     1.0  0.86547  0.09999  0.11727  1.0000
  C   C2703     1.0  0.85156  0.09473  0.12174  1.0000
  C   C2704     1.0  0.83818  0.10299  0.13035  1.0000
  C   C2705     1.0  0.83840  0.11710  0.13347  1.0000
  H   H4250     1.0  0.87644  0.11821  0.11684  1.0000
  H   H4251     1.0  0.87603  0.09321  0.11139  1.0000
  H   H4252     1.0  0.82747  0.09879  0.13407  1.0000
  H   H4253     1.0  0.82789  0.12371  0.13966  1.0000
  C   C2706     1.0  0.77170  0.13030  0.14329  1.0000
  C   C2707     1.0  0.76188  0.11976  0.14718  1.0000
  C   C2708     1.0  0.75785  0.11550  0.13544  1.0000
  C   C2709     1.0  0.76373  0.12167  0.11973  1.0000
  C   C2710     1.0  0.77345  0.13224  0.11586  1.0000
  C   C2711     1.0  0.77730  0.13664  0.12758  1.0000
  H   H4254     1.0  0.75743  0.11482  0.15927  1.0000
  H   H4255     1.0  0.75047  0.10721  0.13853  1.0000
  H   H4256     1.0  0.77776  0.13726  0.10376  1.0000
  H   H4257     1.0  0.63444  0.21750  0.06446  1.0000
  C   C2712     1.0  0.72370  0.09780  0.18180  1.0000
  H   H4258     1.0  0.94499  0.10982  0.20966  1.0000
  N   N264      1.0  0.72605  0.04232  0.99082  1.0000
  C   C2713     1.0  0.67885  0.11199  0.15797  1.0000
  H   H4259     1.0  0.72686  0.06656  0.98575  1.0000
  H   H4260     1.0  0.92824  0.13961  0.06186  1.0000
  S   S1098     1.0  0.89108  0.17563  0.20668  1.0000
  H   H4261     1.0  0.86640  0.13119  0.97990  1.0000
  H   H4262     1.0  0.82078  0.22007  0.14192  1.0000
  C   C2714     1.0  0.66232  0.13667  0.16267  1.0000
  H   H4263     1.0  0.97504  0.00860  0.19336  1.0000
  H   H4264     1.0  0.79336  0.21233  0.13462  1.0000
  H   H4265     1.0  0.68873  0.14175  0.16590  1.0000
  C   C2715     1.0  0.65006  0.98380  0.03308  1.0000
  H   H4266     1.0  0.96406  0.99407  0.18190  1.0000
  C   C2716     1.0  0.66555  0.22553  0.03531  1.0000
  H   H4267     1.0  0.97098  0.02977  0.11092  1.0000
  H   H4268     1.0  0.71779  0.05899  0.00551  1.0000
  H   H4269     1.0  0.59249  0.06034  0.00616  1.0000
  S   S1099     1.0  0.60234  0.20328  0.04391  1.0000
  H   H4270     1.0  0.54451  0.22320  0.13354  1.0000
  S   S1100     1.0  0.52363  0.21115  0.19041  1.0000
  H   H4271     1.0  0.92804  0.04127  0.11510  1.0000
  H   H4272     1.0  0.49637  0.22444  0.16476  1.0000
  Fe  Fe548     1.0  0.54383  0.21585  0.17032  1.0000
  C   C2717     1.0  0.98585  0.08571  0.18801  1.0000
  H   H4273     1.0  0.81920  0.16962  0.21431  1.0000
  H   H4274     1.0  0.84773  0.16901  0.20293  1.0000
  N   N265      1.0  0.67755  0.17687  0.06501  1.0000
  C   C2718     1.0  0.68268  0.19037  0.06627  1.0000
  C   C2719     1.0  0.66051  0.17886  0.07122  1.0000
  C   C2720     1.0  0.68572  0.16235  0.07409  1.0000
  C   C2721     1.0  0.68121  0.17591  0.04848  1.0000
  H   H4275     1.0  0.69549  0.18928  0.06170  1.0000
  H   H4276     1.0  0.93431  0.12681  0.07896  1.0000
  H   H4277     1.0  0.67676  0.20151  0.05959  1.0000
  H   H4278     1.0  0.65627  0.16869  0.07084  1.0000
  H   H4279     1.0  0.65718  0.18023  0.08349  1.0000
  H   H4280     1.0  0.65397  0.18938  0.06432  1.0000
  H   H4281     1.0  0.68168  0.15196  0.07394  1.0000
  H   H4282     1.0  0.68357  0.16295  0.08651  1.0000
  H   H4283     1.0  0.69858  0.16016  0.06947  1.0000
  H   H4284     1.0  0.67725  0.16598  0.04713  1.0000
  H   H4285     1.0  0.69397  0.17431  0.04337  1.0000
  H   H4286     1.0  0.67526  0.18676  0.04133  1.0000
  H   H4287     1.0  0.95919  0.13755  0.18908  1.0000
  H   H4288     1.0  0.82817  0.13685  0.20813  1.0000
  H   H4289     1.0  0.59414  0.05085  0.99087  1.0000
  C   C2722     1.0  0.88753  0.00651  0.03813  1.0000
  Fe  Fe549     1.0  0.80786  0.04304  0.98414  1.0000
  N   N266      1.0  0.76177  0.11103  0.20737  1.0000
  H   H4290     1.0  0.82381  0.08168  0.97306  1.0000
  C   C2723     1.0  0.98392  0.09260  0.20048  1.0000
  S   S1101     1.0  0.55891  0.13895  0.97894  1.0000
  C   C2724     1.0  0.98425  0.99378  0.14654  1.0000
  H   H4291     1.0  0.95182  0.98683  0.20006  1.0000
  H   H4292     1.0  0.70537  0.02352  0.20810  1.0000
  C   C2725     1.0  0.87535  0.98409  0.01913  1.0000
  H   H4293     1.0  0.77910  0.12301  0.19136  1.0000
  C   C2726     1.0  0.95453  0.13078  0.18370  1.0000
  H   H4294     1.0  0.98241  0.99928  0.21068  1.0000
  H   H4295     1.0  0.96347  0.16658  0.20104  1.0000
  N   N267      1.0  0.90169  0.00343  0.04423  1.0000
  C   C2727     1.0  0.83791  0.20055  0.19011  1.0000
  H   H4296     1.0  0.89702  0.09437  0.98106  1.0000
  H   H4297     1.0  0.74344  0.01930  0.21767  1.0000
  H   H4298     1.0  0.88382  0.09747  0.00830  1.0000
  Fe  Fe550     1.0  0.97840  0.04440  0.15123  1.0000
  C   C2728     1.0  0.93414  0.03284  0.10740  1.0000
  C   C2729     1.0  0.87729  0.10913  0.00306  1.0000
  H   H4299     1.0  0.61068  0.01617  0.03673  1.0000
  H   H4300     1.0  0.77125  0.12920  0.20956  1.0000
  H   H4301     1.0  0.50754  0.11153  0.99908  1.0000
  C   C2730     1.0  0.83716  0.14398  0.20464  1.0000
  H   H4302     1.0  0.55119  0.22914  0.10457  1.0000
  H   H4303     1.0  0.91608  0.99107  0.02653  1.0000
  H   H4304     1.0  0.68504  0.10947  0.18568  1.0000
  H   H4305     1.0  0.81360  0.19980  0.19942  1.0000
  C   C2731     1.0  0.71924  0.05843  0.99317  1.0000
  C   C2732     1.0  0.61993  0.05905  0.97235  1.0000
  H   H4306     1.0  0.65176  0.13157  0.16678  1.0000
  H   H4307     1.0  0.92645  0.02467  0.10918  1.0000
  H   H4308     1.0  0.92814  0.15169  0.17832  1.0000
  H   H4309     1.0  0.80422  0.22735  0.08477  1.0000
  H   H4310     1.0  0.70103  0.12337  0.16242  1.0000
  C   C2733     1.0  0.95656  0.16063  0.21148  1.0000
  C   C2734     1.0  0.84270  0.99477  0.02611  1.0000
  H   H4311     1.0  0.69611  0.06925  0.19223  1.0000
  C   C2735     1.0  0.56232  0.20202  0.13577  1.0000
  H   H4312     1.0  0.67263  0.12772  0.18933  1.0000
  H   H4313     1.0  0.65503  0.99419  0.03124  1.0000
  H   H4314     1.0  0.90139  0.12460  0.09850  1.0000
  H   H4315     1.0  0.71103  0.02827  0.07152  1.0000
  H   H4316     1.0  0.73835  0.12376  0.21492  1.0000
  H   H4317     1.0  0.70704  0.00104  0.07875  1.0000
  H   H4318     1.0  0.69491  0.00459  0.09710  1.0000
  C   C2736     1.0  0.90135  0.11785  0.99058  1.0000
  H   H4319     1.0  0.82803  0.21640  0.15912  1.0000
  C   C2737     1.0  0.61960  0.07042  0.99333  1.0000
  C   C2738     1.0  0.74274  0.02528  0.20544  1.0000
  H   H4320     1.0  0.51092  0.09227  0.01114  1.0000
  C   C2739     1.0  0.85234  0.00520  0.01772  1.0000
  H   H4321     1.0  0.88172  0.99642  0.04253  1.0000
  C   C2740     1.0  0.87762  0.13189  0.98190  1.0000
  H   H4322     1.0  0.71382  0.04410  0.18587  1.0000
  H   H4323     1.0  0.90873  0.12311  0.97949  1.0000
  H   H4324     1.0  0.66440  0.98097  0.05601  1.0000
  H   H4325     1.0  0.72047  0.01963  0.99956  1.0000
  C   C2741     1.0  0.77349  0.09814  0.21424  1.0000
  C   C2742     1.0  0.72777  0.04210  0.97434  1.0000
  H   H4326     1.0  0.94050  0.00648  0.12896  1.0000
  H   H4327     1.0  0.94246  0.12843  0.21414  1.0000
  H   H4328     1.0  0.96092  0.04293  0.09646  1.0000
  C   C2743     1.0  0.92817  0.14556  0.19066  1.0000
  C   C2744     1.0  0.95921  0.03573  0.10855  1.0000
  C   C2745     1.0  0.93783  0.12200  0.20838  1.0000
  H   H4329     1.0  0.66892  0.10598  0.16227  1.0000
  N   N268      1.0  0.67644  0.12478  0.16594  1.0000
  C   C2746     1.0  0.95751  0.01377  0.09981  1.0000
  N   N269      1.0  0.62980  0.11530  0.05810  1.0000
  C   C2747     1.0  0.63010  0.10525  0.04781  1.0000
  C   C2748     1.0  0.61933  0.13072  0.05399  1.0000
  C   C2749     1.0  0.64577  0.11736  0.05611  1.0000
  C   C2750     1.0  0.62404  0.10780  0.07450  1.0000
  H   H4330     1.0  0.61825  0.10337  0.04910  1.0000
  H   H4331     1.0  0.63794  0.09353  0.05059  1.0000
  H   H4332     1.0  0.63437  0.11057  0.03535  1.0000
  H   H4333     1.0  0.61859  0.13853  0.06169  1.0000
  H   H4334     1.0  0.62346  0.13687  0.04178  1.0000
  H   H4335     1.0  0.60721  0.12965  0.05511  1.0000
  H   H4336     1.0  0.65049  0.12303  0.04390  1.0000
  H   H4337     1.0  0.65395  0.10592  0.05913  1.0000
  H   H4338     1.0  0.64598  0.12482  0.06377  1.0000
  H   H4339     1.0  0.62376  0.11503  0.08260  1.0000
  H   H4340     1.0  0.63171  0.09614  0.07794  1.0000
  H   H4341     1.0  0.61199  0.10612  0.07649  1.0000
  C   C2751     1.0  0.89999  0.13296  0.06823  1.0000
  C   C2752     1.0  0.92232  0.11141  0.06582  1.0000
  H   H4342     1.0  0.89200  0.12560  0.06850  1.0000
  H   H4343     1.0  0.90373  0.13888  0.05582  1.0000
  H   H4344     1.0  0.89304  0.14215  0.07481  1.0000
  H   H4345     1.0  0.92711  0.11673  0.05351  1.0000
  H   H4346     1.0  0.91476  0.10379  0.06570  1.0000
  C   C2753     1.0  0.94768  0.01519  0.12689  1.0000
  H   H4347     1.0  0.87884  0.01689  0.04155  1.0000
  H   H4348     1.0  0.67172  0.22317  0.02399  1.0000
  S   S1102     1.0  0.52550  0.16369  0.97369  1.0000
  C   C2754     1.0  0.91277  0.98944  0.03945  1.0000
  H   H4349     1.0  0.56738  0.20691  0.21342  1.0000
  C   C2755     1.0  0.67449  0.11840  0.18291  1.0000
  S   S1103     1.0  0.55675  0.22170  0.18473  1.0000
  H   H4350     1.0  0.62274  0.99303  0.05299  1.0000
  H   H4351     1.0  0.83389  0.15387  0.19496  1.0000
  H   H4352     1.0  0.63013  0.98453  0.07040  1.0000
  H   H4353     1.0  0.84854  0.13669  0.19980  1.0000
  H   H4354     1.0  0.94506  0.22925  0.98338  1.0000
  H   H4355     1.0  0.72474  0.01736  0.10836  1.0000
  H   H4356     1.0  0.95359  0.04387  0.11661  1.0000
  Fe  Fe551     1.0  0.92170  0.15916  0.98371  1.0000
  C   C2756     1.0  0.55394  0.21543  0.12740  1.0000
  C   C2757     1.0  0.90904  0.01707  0.03783  1.0000
  N   N270      1.0  0.76688  0.07669  0.05883  1.0000
  C   C2758     1.0  0.75844  0.06432  0.06098  1.0000
  C   C2759     1.0  0.75672  0.08878  0.06734  1.0000
  C   C2760     1.0  0.77109  0.08384  0.04205  1.0000
  C   C2761     1.0  0.78125  0.06978  0.06492  1.0000
  H   H4357     1.0  0.76582  0.05488  0.05488  1.0000
  H   H4358     1.0  0.74769  0.06909  0.05620  1.0000
  H   H4359     1.0  0.75469  0.05894  0.07353  1.0000
  H   H4360     1.0  0.74574  0.09416  0.06305  1.0000
  H   H4361     1.0  0.75320  0.08374  0.08003  1.0000
  H   H4362     1.0  0.76267  0.09830  0.06610  1.0000
  H   H4363     1.0  0.77728  0.09338  0.03995  1.0000
  H   H4364     1.0  0.76054  0.08879  0.03697  1.0000
  H   H4365     1.0  0.77890  0.07506  0.03532  1.0000
  H   H4366     1.0  0.78793  0.07879  0.06343  1.0000
  H   H4367     1.0  0.78917  0.06061  0.05872  1.0000
  H   H4368     1.0  0.77850  0.06429  0.07756  1.0000
  N   N271      1.0  0.82344  0.12840  0.08935  1.0000
  C   C2762     1.0  0.81147  0.14304  0.08694  1.0000
  C   C2763     1.0  0.83661  0.13145  0.09357  1.0000
  C   C2764     1.0  0.82926  0.12250  0.07483  1.0000
  C   C2765     1.0  0.81649  0.11658  0.10202  1.0000
  H   H4369     1.0  0.81643  0.15236  0.07777  1.0000
  H   H4370     1.0  0.80159  0.14121  0.08331  1.0000
  H   H4371     1.0  0.84573  0.12057  0.09571  1.0000
  H   H4372     1.0  0.83268  0.13614  0.10436  1.0000
  H   H4373     1.0  0.83868  0.11177  0.07613  1.0000
  H   H4374     1.0  0.83428  0.13125  0.06491  1.0000
  H   H4375     1.0  0.81981  0.11954  0.07149  1.0000
  H   H4376     1.0  0.82510  0.10522  0.10386  1.0000
  H   H4377     1.0  0.80625  0.11426  0.09944  1.0000
  H   H4378     1.0  0.81239  0.12045  0.11329  1.0000
  H   H4379     1.0  0.89906  0.12550  0.99889  1.0000
  S   S1104     1.0  0.71783  0.10158  0.21147  1.0000
  H   H4380     1.0  0.72318  0.00981  0.20236  1.0000
  N   N272      1.0  0.88662  0.11627  0.98809  1.0000
  N   N273      1.0  0.72635  0.03176  0.20398  1.0000
  C   C2766     1.0  0.57808  0.19517  0.11129  1.0000
  H   H4381     1.0  0.74867  0.11586  0.18978  1.0000
  C   C2767     1.0  0.55772  0.21876  0.11101  1.0000
  H   H4382     1.0  0.90840  0.10634  0.99544  1.0000
  H   H4383     1.0  0.71413  0.03178  0.01349  1.0000
  H   H4384     1.0  0.66435  0.11270  0.18771  1.0000
  C   C2768     1.0  0.89023  0.10625  0.97678  1.0000
  H   H4385     1.0  0.92368  0.98674  0.04374  1.0000
  C   C2769     1.0  0.96378  0.98456  0.19261  1.0000
  H   H4386     1.0  0.63839  0.99946  0.05588  1.0000
  H   H4387     1.0  0.84979  0.22849  0.15841  1.0000
  H   H4388     1.0  0.58078  0.18141  0.13408  1.0000
  N   N274      1.0  0.93830  0.12968  0.19180  1.0000
  C   C2770     1.0  0.48804  0.09620  0.99605  1.0000
  S   S1105     1.0  0.93162  0.18298  0.20329  1.0000
  C   C2771     1.0  0.59883  0.08045  0.97927  1.0000
  H   H4389     1.0  0.73176  0.03091  0.17973  1.0000
  H   H4390     1.0  0.90090  0.02783  0.04116  1.0000
  H   H4391     1.0  0.68962  0.10302  0.15980  1.0000
  H   H4392     1.0  0.73208  0.04920  0.18324  1.0000
  H   H4393     1.0  0.70753  0.06295  0.99024  1.0000
  C   C2772     1.0  0.69015  0.13203  0.16016  1.0000
  C   C2773     1.0  0.71565  0.03191  0.00097  1.0000
  H   H4394     1.0  0.94003  0.10827  0.18525  1.0000
  C   C2774     1.0  0.71774  0.01904  0.20923  1.0000
  H   H4395     1.0  0.90770  0.99859  0.06645  1.0000
  Fe  Fe552     1.0  0.79358  0.15164  0.15034  1.0000
  H   H4396     1.0  0.74944  0.03465  0.20196  1.0000
  H   H4397     1.0  0.96244  0.11898  0.18415  1.0000
  S   S1106     1.0  0.61936  0.98922  0.97441  1.0000
  H   H4398     1.0  0.57615  0.18564  0.98372  1.0000
  H   H4399     1.0  0.83801  0.20785  0.19757  1.0000
  Fe  Fe553     1.0  0.60433  0.17793  0.04460  1.0000
  C   C2775     1.0  0.64472  0.22206  0.05822  1.0000
  H   H4400     1.0  0.93235  0.10368  0.07079  1.0000
  H   H4401     1.0  0.91771  0.14288  0.08087  1.0000
  H   H4402     1.0  0.84731  0.01743  0.01419  1.0000
  H   H4403     1.0  0.90033  0.10798  0.09234  1.0000
  H   H4404     1.0  0.73128  0.10591  0.17879  1.0000
  H   H4405     1.0  0.69906  0.03173  0.08995  1.0000
  H   H4406     1.0  0.67994  0.19155  0.07859  1.0000
  C   C2776     1.0  0.90808  0.11586  0.09130  1.0000
  Fe  Fe554     1.0  0.82754  0.15405  0.13835  1.0000
  H   H4407     1.0  0.83987  0.20821  0.14278  1.0000
  H   H4408     1.0  0.80654  0.14756  0.09781  1.0000
  S   S1107     1.0  0.82224  0.00114  0.03014  1.0000
  H   H4409     1.0  0.93317  0.12566  0.17188  1.0000
  S   S1108     1.0  0.52603  0.13317  0.00269  1.0000
  H   H4410     1.0  0.86161  0.18321  0.16083  1.0000
  C   C2777     1.0  0.72232  0.09123  0.17028  1.0000
  C   C2778     1.0  0.72601  0.03929  0.18751  1.0000
  H   H4411     1.0  0.83753  0.17454  0.16323  1.0000
  Fe  Fe555     1.0  0.80668  0.17270  0.16172  1.0000
  C   C2779     1.0  0.82412  0.19603  0.19112  1.0000
  S   S1109     1.0  0.82235  0.17950  0.13844  1.0000
  C   C2780     1.0  0.85140  0.19605  0.17908  1.0000
  S   S1110     1.0  0.55882  0.19797  0.15629  1.0000
  H   H4412     1.0  0.84233  0.14010  0.08416  1.0000
  H   H4413     1.0  0.87591  0.00797  0.00726  1.0000
  H   H4414     1.0  0.91237  0.01946  0.02488  1.0000
  S   S1111     1.0  0.80650  0.18137  0.18259  1.0000
  H   H4415     1.0  0.74121  0.01284  0.08243  1.0000
  C   C2781     1.0  0.74762  0.11432  0.21968  1.0000
  H   H4416     1.0  0.75988  0.13500  0.19490  1.0000
  C   C2782     1.0  0.85117  0.18677  0.16933  1.0000
  H   H4417     1.0  0.85076  0.22583  0.11830  1.0000
  C   C2783     1.0  0.70722  0.00074  0.09094  1.0000
  H   H4418     1.0  0.71854  0.03499  0.08398  1.0000
  H   H4419     1.0  0.73366  0.00554  0.07048  1.0000
  C   C2784     1.0  0.83748  0.18200  0.17056  1.0000
  H   H4420     1.0  0.95532  0.13662  0.17118  1.0000
  H   H4421     1.0  0.66352  0.14167  0.14991  1.0000
  C   C2785     1.0  0.76829  0.12518  0.20057  1.0000
  Fe  Fe556     1.0  0.87593  0.19896  0.19896  1.0000
  C   C2786     1.0  0.71567  0.09355  0.19721  1.0000
  S   S1112     1.0  0.86834  0.20264  0.17668  1.0000
  C   C2787     1.0  0.89733  0.00077  0.06141  1.0000
  Fe  Fe557     1.0  0.51461  0.14265  0.98216  1.0000
  H   H4422     1.0  0.72512  0.05322  0.21016  1.0000
  C   C2788     1.0  0.82385  0.18685  0.18126  1.0000
  Fe  Fe558     1.0  0.62626  0.19595  0.04905  1.0000
  H   H4423     1.0  0.69201  0.13693  0.14736  1.0000
  N   N275      1.0  0.71726  0.01076  0.09132  1.0000
  H   H4424     1.0  0.98069  0.16704  0.98320  1.0000
  S   S1113     1.0  0.61818  0.19089  0.07513  1.0000
  H   H4425     1.0  0.58736  0.18728  0.10515  1.0000
  C   C2789     1.0  0.86860  0.99986  0.01405  1.0000
  H   H4426     1.0  0.92047  0.11938  0.19022  1.0000
  C   C2790     1.0  0.73337  0.00530  0.08278  1.0000
  S   S1114     1.0  0.80862  0.15641  0.12627  1.0000
  H   H4427     1.0  0.89038  0.00875  0.02519  1.0000
  H   H4428     1.0  0.70527  0.01402  0.11437  1.0000
  H   H4429     1.0  0.64009  0.98768  0.02718  1.0000
  C   C2791     1.0  0.57431  0.19185  0.12767  1.0000
  H   H4430     1.0  0.68472  0.98974  0.07489  1.0000
  C   C2792     1.0  0.71728  0.00990  0.10767  1.0000
  H   H4431     1.0  0.73845  0.99308  0.08819  1.0000
  S   S1115     1.0  0.89151  0.21282  0.20148  1.0000
  Fe  Fe559     1.0  0.59424  0.19667  0.07009  1.0000
  C   C2793     1.0  0.71247  0.08085  0.17405  1.0000
  H   H4432     1.0  0.76890  0.08730  0.21950  1.0000
  H   H4433     1.0  0.86117  0.21976  0.14240  1.0000
  H   H4434     1.0  0.96182  0.00307  0.21149  1.0000
  S   S1116     1.0  0.79648  0.20031  0.10783  1.0000
  H   H4435     1.0  0.91973  0.01520  0.04225  1.0000
  H   H4436     1.0  0.88882  0.01111  0.06530  1.0000
  C   C2794     1.0  0.60090  0.05503  0.99662  1.0000
  H   H4437     1.0  0.60874  0.04455  0.00210  1.0000
  S   S1117     1.0  0.48886  0.14192  0.98946  1.0000
  H   H4438     1.0  0.68006  0.11642  0.14518  1.0000
  H   H4439     1.0  0.91587  0.14523  0.19686  1.0000
  Fe  Fe560     1.0  0.80192  0.18136  0.12860  1.0000
  S   S1118     1.0  0.57454  0.21337  0.08238  1.0000
  C   C2795     1.0  0.51168  0.07670  0.99006  1.0000
  S   S1119     1.0  0.90030  0.16065  0.97555  1.0000
  C   C2796     1.0  0.56981  0.20866  0.10291  1.0000
  H   H4440     1.0  0.97911  0.17236  0.21954  1.0000
  H   H4441     1.0  0.70381  0.03568  0.99831  1.0000
  H   H4442     1.0  0.74076  0.03733  0.00698  1.0000
  H   H4443     1.0  0.86200  0.15186  0.20857  1.0000
  H   H4444     1.0  0.97851  0.98823  0.15790  1.0000
  H   H4445     1.0  0.75284  0.09573  0.19965  1.0000
  C   C2797     1.0  0.96381  0.14736  0.22107  1.0000
  H   H4446     1.0  0.76546  0.22150  0.11441  1.0000
  H   H4447     1.0  0.87938  0.10489  0.97454  1.0000
  H   H4448     1.0  0.89177  0.99054  0.06661  1.0000
  H   H4449     1.0  0.66010  0.14653  0.16847  1.0000
  C   C2798     1.0  0.97366  0.99939  0.20429  1.0000
  S   S1120     1.0  0.98132  0.01827  0.15956  1.0000
  H   H4450     1.0  0.54802  0.19621  0.98576  1.0000
  C   C2799     1.0  0.95707  0.22432  0.97727  1.0000
  C   C2800     1.0  0.59262  0.22176  0.12899  1.0000
  H   H4451     1.0  0.74934  0.21463  0.10078  1.0000
  H   H4452     1.0  0.58879  0.22266  0.11817  1.0000
  H   H4453     1.0  0.50956  0.06963  0.00219  1.0000
  H   H4454     1.0  0.77447  0.22213  0.08626  1.0000
  H   H4455     1.0  0.50648  0.07223  0.98300  1.0000
  Fe  Fe561     1.0  0.90549  0.18937  0.21116  1.0000
  H   H4456     1.0  0.71750  0.01334  0.22170  1.0000
  H   H4457     1.0  0.60560  0.21879  0.12632  1.0000
  N   N276      1.0  0.97577  0.98394  0.20087  1.0000
  H   H4458     1.0  0.62638  0.07903  0.98528  1.0000
  C   C2801     1.0  0.71892  0.04345  0.21373  1.0000
  H   H4459     1.0  0.97624  0.14312  0.21800  1.0000
  H   H4460     1.0  0.56071  0.17131  0.97695  1.0000
  N   N277      1.0  0.83810  0.14970  0.21789  1.0000
  C   C2802     1.0  0.94039  0.16630  0.21538  1.0000
  H   H4461     1.0  0.69937  0.08009  0.21291  1.0000
  H   H4462     1.0  0.70649  0.04849  0.21308  1.0000
  H   H4463     1.0  0.92571  0.12140  0.21501  1.0000
  H   H4464     1.0  0.50371  0.11520  0.97252  1.0000
  H   H4465     1.0  0.73911  0.22961  0.08740  1.0000
  S   S1121     1.0  0.92338  0.18403  0.97293  1.0000
  H   H4466     1.0  0.73293  0.22906  0.10794  1.0000
  H   H4467     1.0  0.55143  0.21437  0.97299  1.0000
  H   H4468     1.0  0.85107  0.16379  0.22227  1.0000
  Fe  Fe562     1.0  0.57341  0.14295  0.29518  1.0000
  S   S1122     1.0  0.58642  0.14504  0.27029  1.0000
  S   S1123     1.0  0.54776  0.14245  0.30193  1.0000
  Fe  Fe563     1.0  0.60096  0.14581  0.30576  1.0000
  S   S1124     1.0  0.61629  0.14816  0.28172  1.0000
  S   S1125     1.0  0.60918  0.14475  0.32716  1.0000
  Fe  Fe564     1.0  0.59496  0.16405  0.27405  1.0000
  S   S1126     1.0  0.59685  0.18526  0.25457  1.0000
  Fe  Fe565     1.0  0.60657  0.12895  0.27995  1.0000
  S   S1127     1.0  0.62194  0.11086  0.26675  1.0000
  S   S1128     1.0  0.58030  0.16352  0.29828  1.0000
  S   S1129     1.0  0.59287  0.12505  0.30469  1.0000
  H   H4469     1.0  0.85373  0.12865  0.22669  1.0000
  H   H4470     1.0  0.51068  0.20480  0.45336  1.0000
  C   C2803     1.0  0.87953  0.07179  0.34433  1.0000
  H   H4471     1.0  0.52974  0.02636  0.33729  1.0000
  Fe  Fe566     1.0  0.88540  0.00324  0.37741  1.0000
  H   H4472     1.0  0.57294  0.17970  0.42783  1.0000
  H   H4473     1.0  0.52602  0.15960  0.27442  1.0000
  H   H4474     1.0  0.51352  0.12021  0.34284  1.0000
  H   H4475     1.0  0.55541  0.19957  0.46062  1.0000
  H   H4476     1.0  0.85631  0.05210  0.37491  1.0000
  H   H4477     1.0  0.81101  0.04475  0.30894  1.0000
  H   H4478     1.0  0.55549  0.13035  0.25435  1.0000
  Fe  Fe567     1.0  0.78379  0.13189  0.34109  1.0000
  S   S1130     1.0  0.80831  0.13030  0.32665  1.0000
  S   S1131     1.0  0.77362  0.14131  0.36289  1.0000
  Fe  Fe568     1.0  0.77312  0.11919  0.31934  1.0000
  S   S1132     1.0  0.79659  0.11682  0.30294  1.0000
  S   S1133     1.0  0.75193  0.11239  0.31745  1.0000
  Fe  Fe569     1.0  0.80616  0.10697  0.32461  1.0000
  S   S1134     1.0  0.82515  0.08488  0.32407  1.0000
  Fe  Fe570     1.0  0.79650  0.14019  0.30646  1.0000
  S   S1135     1.0  0.80120  0.16098  0.28721  1.0000
  S   S1136     1.0  0.78259  0.10774  0.34083  1.0000
  S   S1137     1.0  0.77213  0.14340  0.32111  1.0000
  H   H4479     1.0  0.82680  0.19404  0.29547  1.0000
  H   H4480     1.0  0.88826  0.04140  0.34206  1.0000
  S   S1138     1.0  0.86974  0.01418  0.39700  1.0000
  Fe  Fe571     1.0  0.85027  0.01280  0.38729  1.0000
  S   S1139     1.0  0.82987  0.03364  0.38654  1.0000
  H   H4481     1.0  0.85097  0.06713  0.35872  1.0000
  Fe  Fe572     1.0  0.70620  0.07407  0.26845  1.0000
  S   S1140     1.0  0.71760  0.09392  0.25458  1.0000
  S   S1141     1.0  0.68553  0.07845  0.28824  1.0000
  Fe  Fe573     1.0  0.72936  0.05042  0.25119  1.0000
  S   S1142     1.0  0.74272  0.06832  0.23563  1.0000
  S   S1143     1.0  0.73905  0.02562  0.24767  1.0000
  Fe  Fe574     1.0  0.74007  0.07677  0.25712  1.0000
  S   S1144     1.0  0.76060  0.08507  0.25840  1.0000
  Fe  Fe575     1.0  0.71941  0.08423  0.23411  1.0000
  H   H4482     1.0  0.90309  0.01674  0.41309  1.0000
  S   S1145     1.0  0.72869  0.05752  0.27304  1.0000
  S   S1146     1.0  0.70603  0.06561  0.24761  1.0000
  C   C2804     1.0  0.78628  0.07561  0.32306  1.0000
  C   C2805     1.0  0.73858  0.13242  0.35396  1.0000
  S   S1147     1.0  0.62930  0.20972  0.36188  1.0000
  H   H4483     1.0  0.83330  0.12895  0.23481  1.0000
  Fe  Fe576     1.0  0.64991  0.19760  0.34622  1.0000
  C   C2806     1.0  0.78244  0.06199  0.30581  1.0000
  S   S1148     1.0  0.64786  0.19382  0.32360  1.0000
  Fe  Fe577     1.0  0.67222  0.19556  0.36625  1.0000
  H   H4484     1.0  0.51212  0.01507  0.32090  1.0000
  S   S1149     1.0  0.69717  0.18810  0.36915  1.0000
  Fe  Fe578     1.0  0.63896  0.19205  0.38127  1.0000
  S   S1150     1.0  0.62175  0.18094  0.40120  1.0000
  H   H4485     1.0  0.91157  0.00876  0.43796  1.0000
  C   C2807     1.0  0.53675  0.17646  0.45208  1.0000
  S   S1151     1.0  0.65855  0.17880  0.36557  1.0000
  H   H4486     1.0  0.96357  0.16537  0.26265  1.0000
  Fe  Fe579     1.0  0.77723  0.21836  0.37798  1.0000
  S   S1152     1.0  0.75694  0.21197  0.39700  1.0000
  S   S1153     1.0  0.79212  0.20391  0.36047  1.0000
  H   H4487     1.0  0.71271  0.14878  0.34365  1.0000
  C   C2808     1.0  0.58798  0.16189  0.39719  1.0000
  H   H4488     1.0  0.57027  0.14325  0.41857  1.0000
  C   C2809     1.0  0.58047  0.19762  0.23147  1.0000
  C   C2810     1.0  0.72606  0.98232  0.28877  1.0000
  H   H4489     1.0  0.74682  0.15981  0.34891  1.0000
  H   H4490     1.0  0.92166  0.98896  0.44432  1.0000
  S   S1154     1.0  0.48897  0.09797  0.34556  1.0000
  C   C2811     1.0  0.58953  0.22958  0.23949  1.0000
  H   H4491     1.0  0.84293  0.14023  0.24073  1.0000
  S   S1155     1.0  0.50537  0.06156  0.35807  1.0000
  S   S1156     1.0  0.76372  0.21574  0.43667  1.0000
  S   S1157     1.0  0.78659  0.22812  0.39263  1.0000
  S   S1158     1.0  0.89258  0.18899  0.23594  1.0000
  C   C2812     1.0  0.87018  0.99035  0.44831  1.0000
  Fe  Fe580     1.0  0.87675  0.17725  0.23061  1.0000
  S   S1159     1.0  0.87010  0.15538  0.24673  1.0000
  H   H4492     1.0  0.95497  0.98931  0.32763  1.0000
  H   H4493     1.0  0.50239  0.09243  0.41428  1.0000
  C   C2813     1.0  0.71308  0.22654  0.37982  1.0000
  C   C2814     1.0  0.82281  0.15955  0.22366  1.0000
  H   H4494     1.0  0.50044  0.04345  0.31273  1.0000
  C   C2815     1.0  0.72769  0.14710  0.37426  1.0000
  H   H4495     1.0  0.73560  0.98537  0.27861  1.0000
  H   H4496     1.0  0.55813  0.16225  0.41324  1.0000
  H   H4497     1.0  0.73950  0.14607  0.37616  1.0000
  H   H4498     1.0  0.81229  0.07942  0.30115  1.0000
  H   H4499     1.0  0.78797  0.05521  0.29652  1.0000
  S   S1160     1.0  0.96377  0.12365  0.24731  1.0000
  C   C2816     1.0  0.75095  0.19899  0.35063  1.0000
  H   H4500     1.0  0.83385  0.20008  0.26003  1.0000
  H   H4501     1.0  0.72294  0.13715  0.38248  1.0000
  H   H4502     1.0  0.73403  0.12208  0.36150  1.0000
  H   H4503     1.0  0.77668  0.10114  0.22375  1.0000
  H   H4504     1.0  0.53739  0.14627  0.23688  1.0000
  H   H4505     1.0  0.96375  0.19272  0.23395  1.0000
  S   S1161     1.0  0.49639  0.15669  0.46815  1.0000
  H   H4506     1.0  0.96755  0.19268  0.25217  1.0000
  H   H4507     1.0  0.81342  0.15283  0.22789  1.0000
  H   H4508     1.0  0.53879  0.12786  0.33686  1.0000
  H   H4509     1.0  0.52218  0.04694  0.33140  1.0000
  S   S1162     1.0  0.90584  0.01373  0.36279  1.0000
  H   H4510     1.0  0.65645  0.14289  0.28454  1.0000
  C   C2817     1.0  0.92468  0.00288  0.36471  1.0000
  H   H4511     1.0  0.93520  0.99687  0.40110  1.0000
  N   N278      1.0  0.98076  0.17281  0.24237  1.0000
  H   H4512     1.0  0.70727  0.13885  0.36362  1.0000
  C   C2818     1.0  0.53998  0.03664  0.30627  1.0000
  H   H4513     1.0  0.79608  0.19637  0.47045  1.0000
  C   C2819     1.0  0.55222  0.20254  0.23612  1.0000
  C   C2820     1.0  0.83848  0.18855  0.28919  1.0000
  Fe  Fe581     1.0  0.50392  0.07789  0.33498  1.0000
  H   H4514     1.0  0.53269  0.00873  0.31990  1.0000
  C   C2821     1.0  0.93189  0.99825  0.41338  1.0000
  C   C2822     1.0  0.74895  0.21005  0.32392  1.0000
  H   H4515     1.0  0.53289  0.13556  0.35413  1.0000
  H   H4516     1.0  0.72641  0.98775  0.29810  1.0000
  C   C2823     1.0  0.85985  0.06237  0.36601  1.0000
  N   N279      1.0  0.58148  0.16245  0.41379  1.0000
  H   H4517     1.0  0.86819  0.04937  0.34082  1.0000
  C   C2824     1.0  0.54930  0.13834  0.26245  1.0000
  C   C2825     1.0  0.57707  0.17889  0.41537  1.0000
  H   H4518     1.0  0.67216  0.13748  0.31935  1.0000
  C   C2826     1.0  0.93143  0.15843  0.22869  1.0000
  C   C2827     1.0  0.93871  0.14521  0.23834  1.0000
  C   C2828     1.0  0.95493  0.13975  0.23463  1.0000
  H   H4519     1.0  0.98161  0.19710  0.23431  1.0000
  H   H4520     1.0  0.71902  0.03822  0.22620  1.0000
  H   H4521     1.0  0.91890  0.16254  0.23161  1.0000
  H   H4522     1.0  0.93176  0.13929  0.24877  1.0000
  H   H4523     1.0  0.73776  0.20637  0.32605  1.0000
  H   H4524     1.0  0.91690  0.98415  0.38283  1.0000
  S   S1163     1.0  0.86603  0.00375  0.36656  1.0000
  C   C2829     1.0  0.71255  0.14868  0.35587  1.0000
  H   H4525     1.0  0.96290  0.00477  0.34933  1.0000
  H   H4526     1.0  0.76737  0.22098  0.34530  1.0000
  C   C2830     1.0  0.86403  0.01553  0.45523  1.0000
  C   C2831     1.0  0.70284  0.20282  0.37385  1.0000
  H   H4527     1.0  0.53974  0.13317  0.27100  1.0000
  H   H4528     1.0  0.93616  0.01946  0.34663  1.0000
  H   H4529     1.0  0.72737  0.17184  0.35017  1.0000
  H   H4530     1.0  0.59169  0.19780  0.22346  1.0000
  C   C2832     1.0  0.71656  0.19927  0.37930  1.0000
  H   H4531     1.0  0.55767  0.13838  0.26919  1.0000
  H   H4532     1.0  0.74448  0.99473  0.24281  1.0000
  H   H4533     1.0  0.73229  0.20822  0.38639  1.0000
  H   H4534     1.0  0.72328  0.18735  0.38124  1.0000
  C   C2833     1.0  0.62531  0.18853  0.44699  1.0000
  C   C2834     1.0  0.63847  0.18767  0.43469  1.0000
  C   C2835     1.0  0.63766  0.18459  0.42081  1.0000
  C   C2836     1.0  0.62370  0.18238  0.41922  1.0000
  C   C2837     1.0  0.61084  0.18237  0.43187  1.0000
  C   C2838     1.0  0.61165  0.18544  0.44573  1.0000
  H   H4535     1.0  0.64917  0.18978  0.43574  1.0000
  H   H4536     1.0  0.64784  0.18399  0.41133  1.0000
  H   H4537     1.0  0.79486  0.07878  0.32752  1.0000
  H   H4538     1.0  0.60165  0.18552  0.45541  1.0000
  H   H4539     1.0  0.58905  0.15396  0.43547  1.0000
  H   H4540     1.0  0.87105  0.07629  0.33657  1.0000
  N   N280      1.0  0.87571  0.05801  0.35643  1.0000
  C   C2839     1.0  0.93773  0.00856  0.35517  1.0000
  S   S1164     1.0  0.52969  0.17499  0.43665  1.0000
  C   C2840     1.0  0.54457  0.18837  0.44990  1.0000
  H   H4541     1.0  0.87921  0.08152  0.34959  1.0000
  H   H4542     1.0  0.53850  0.10039  0.33876  1.0000
  Fe  Fe582     1.0  0.51014  0.16204  0.44357  1.0000
  H   H4543     1.0  0.85410  0.22085  0.27495  1.0000
  H   H4544     1.0  0.74255  0.10380  0.22510  1.0000
  H   H4545     1.0  0.50936  0.03365  0.33737  1.0000
  C   C2841     1.0  0.80123  0.22805  0.44145  1.0000
  H   H4546     1.0  0.86912  0.18580  0.27682  1.0000
  C   C2842     1.0  0.54975  0.19014  0.46226  1.0000
  C   C2843     1.0  0.94199  0.98051  0.37727  1.0000
  H   H4547     1.0  0.96555  0.98059  0.31134  1.0000
  H   H4548     1.0  0.48958  0.99590  0.36826  1.0000
  C   C2844     1.0  0.72617  0.01328  0.25104  1.0000
  C   C2845     1.0  0.71015  0.01811  0.25680  1.0000
  C   C2846     1.0  0.70011  0.00815  0.25897  1.0000
  Fe  Fe583     1.0  0.48884  0.08110  0.36860  1.0000
  H   H4549     1.0  0.76071  0.18924  0.34725  1.0000
  C   C2847     1.0  0.95288  0.00024  0.35666  1.0000
  H   H4550     1.0  0.70549  0.02950  0.25967  1.0000
  H   H4551     1.0  0.68772  0.01191  0.26357  1.0000
  H   H4552     1.0  0.88712  0.06154  0.37237  1.0000
  H   H4553     1.0  0.54633  0.19647  0.43875  1.0000
  H   H4554     1.0  0.86736  0.20093  0.25966  1.0000
  C   C2848     1.0  0.87345  0.98306  0.46308  1.0000
  C   C2849     1.0  0.86544  0.00662  0.44443  1.0000
  H   H4555     1.0  0.58716  0.18468  0.41024  1.0000
  H   H4556     1.0  0.86282  0.01235  0.43313  1.0000
  C   C2850     1.0  0.73208  0.99849  0.24736  1.0000
  C   C2851     1.0  0.82028  0.15905  0.27590  1.0000
  C   C2852     1.0  0.82391  0.17109  0.26310  1.0000
  C   C2853     1.0  0.83920  0.17005  0.25411  1.0000
  C   C2854     1.0  0.85092  0.15699  0.25791  1.0000
  C   C2855     1.0  0.84723  0.14483  0.27056  1.0000
  C   C2856     1.0  0.83192  0.14587  0.27960  1.0000
  H   H4557     1.0  0.81485  0.18122  0.26015  1.0000
  H   H4558     1.0  0.84185  0.17929  0.24417  1.0000
  H   H4559     1.0  0.85625  0.13464  0.27347  1.0000
  H   H4560     1.0  0.82916  0.13652  0.28947  1.0000
  C   C2857     1.0  0.77922  0.15841  0.36233  1.0000
  C   C2858     1.0  0.78939  0.16506  0.34924  1.0000
  C   C2859     1.0  0.79356  0.17884  0.34895  1.0000
  C   C2860     1.0  0.78742  0.18614  0.36164  1.0000
  C   C2861     1.0  0.77725  0.17947  0.37472  1.0000
  C   C2862     1.0  0.77315  0.16565  0.37506  1.0000
  H   H4561     1.0  0.79409  0.15958  0.33936  1.0000
  H   H4562     1.0  0.80150  0.18390  0.33883  1.0000
  H   H4563     1.0  0.77269  0.18483  0.38466  1.0000
  H   H4564     1.0  0.76534  0.16050  0.38525  1.0000
  C   C2863     1.0  0.75393  0.10553  0.30066  1.0000
  C   C2864     1.0  0.74285  0.09790  0.30001  1.0000
  C   C2865     1.0  0.74465  0.09177  0.28697  1.0000
  C   C2866     1.0  0.75762  0.09317  0.27459  1.0000
  C   C2867     1.0  0.76861  0.10092  0.27517  1.0000
  C   C2868     1.0  0.76668  0.10720  0.28810  1.0000
  H   H4565     1.0  0.73291  0.09661  0.30966  1.0000
  H   H4566     1.0  0.73611  0.08581  0.28658  1.0000
  H   H4567     1.0  0.77855  0.10218  0.26554  1.0000
  H   H4568     1.0  0.77499  0.11350  0.28824  1.0000
  C   C2869     1.0  0.82561  0.07041  0.34138  1.0000
  C   C2870     1.0  0.81635  0.07337  0.35568  1.0000
  C   C2871     1.0  0.81747  0.06182  0.36941  1.0000
  C   C2872     1.0  0.82786  0.04728  0.36893  1.0000
  C   C2873     1.0  0.83685  0.04419  0.35456  1.0000
  C   C2874     1.0  0.83573  0.05574  0.34083  1.0000
  H   H4569     1.0  0.80855  0.08466  0.35625  1.0000
  H   H4570     1.0  0.81046  0.06427  0.38049  1.0000
  H   H4571     1.0  0.84470  0.03293  0.35405  1.0000
  H   H4572     1.0  0.84283  0.05335  0.32977  1.0000
  H   H4573     1.0  0.88459  0.04194  0.37567  1.0000
  H   H4574     1.0  0.89925  0.04883  0.35965  1.0000
  H   H4575     1.0  0.97433  0.15052  0.25195  1.0000
  H   H4576     1.0  0.56239  0.15582  0.43221  1.0000
  H   H4577     1.0  0.89292  0.00114  0.41902  1.0000
  C   C2875     1.0  0.72202  0.98858  0.24943  1.0000
  H   H4578     1.0  0.50705  0.10807  0.36136  1.0000
  H   H4579     1.0  0.54927  0.02826  0.31194  1.0000
  S   S1165     1.0  0.66540  0.21320  0.34540  1.0000
  H   H4580     1.0  0.87301  0.03505  0.35768  1.0000
  C   C2876     1.0  0.61898  0.15916  0.32626  1.0000
  C   C2877     1.0  0.62344  0.15949  0.33959  1.0000
  C   C2878     1.0  0.63196  0.17037  0.33900  1.0000
  C   C2879     1.0  0.63630  0.18078  0.32497  1.0000
  C   C2880     1.0  0.63183  0.18044  0.31163  1.0000
  C   C2881     1.0  0.62304  0.16978  0.31230  1.0000
  H   H4581     1.0  0.62034  0.15129  0.35040  1.0000
  H   H4582     1.0  0.63538  0.17055  0.34932  1.0000
  H   H4583     1.0  0.63516  0.18849  0.30076  1.0000
  H   H4584     1.0  0.61960  0.16964  0.30198  1.0000
  C   C2882     1.0  0.63956  0.10203  0.27281  1.0000
  C   C2883     1.0  0.64003  0.09878  0.28855  1.0000
  C   C2884     1.0  0.65413  0.09118  0.29325  1.0000
  C   C2885     1.0  0.66787  0.08732  0.28218  1.0000
  C   C2886     1.0  0.66743  0.09087  0.26643  1.0000
  C   C2887     1.0  0.65324  0.09796  0.26179  1.0000
  H   H4585     1.0  0.62943  0.10173  0.29711  1.0000
  H   H4586     1.0  0.65439  0.08816  0.30546  1.0000
  H   H4587     1.0  0.67798  0.08812  0.25781  1.0000
  H   H4588     1.0  0.65290  0.10049  0.24962  1.0000
  C   C2888     1.0  0.57973  0.19178  0.24746  1.0000
  C   C2889     1.0  0.95441  0.98168  0.32028  1.0000
  H   H4589     1.0  0.75024  0.11782  0.22922  1.0000
  H   H4590     1.0  0.57899  0.21322  0.26790  1.0000
  C   C2890     1.0  0.55151  0.19719  0.25214  1.0000
  C   C2891     1.0  0.56524  0.19157  0.25779  1.0000
  S   S1166     1.0  0.62561  0.19479  0.46328  1.0000
  H   H4591     1.0  0.54030  0.19729  0.26021  1.0000
  H   H4592     1.0  0.56460  0.18724  0.27016  1.0000
  C   C2892     1.0  0.53250  0.09635  0.31180  1.0000
  C   C2893     1.0  0.52148  0.11029  0.31333  1.0000
  C   C2894     1.0  0.52634  0.12438  0.30996  1.0000
  C   C2895     1.0  0.54225  0.12463  0.30517  1.0000
  C   C2896     1.0  0.55330  0.11078  0.30331  1.0000
  C   C2897     1.0  0.54841  0.09667  0.30651  1.0000
  H   H4593     1.0  0.57956  0.22497  0.23929  1.0000
  H   H4594     1.0  0.51773  0.13510  0.31124  1.0000
  H   H4595     1.0  0.56561  0.11089  0.29952  1.0000
  H   H4596     1.0  0.55700  0.08595  0.30523  1.0000
  C   C2898     1.0  0.52950  0.10854  0.37463  1.0000
  H   H4597     1.0  0.50193  0.22408  0.47021  1.0000
  C   C2899     1.0  0.88716  0.05240  0.36649  1.0000
  H   H4598     1.0  0.73991  0.19491  0.35340  1.0000
  C   C2900     1.0  0.53544  0.16444  0.26529  1.0000
  H   H4599     1.0  0.89141  0.06887  0.33685  1.0000
  H   H4600     1.0  0.50918  0.11025  0.31697  1.0000
  H   H4601     1.0  0.61612  0.22371  0.44260  1.0000
  H   H4602     1.0  0.51254  0.05747  0.30688  1.0000
  H   H4603     1.0  0.98062  0.05848  0.28695  1.0000
  H   H4604     1.0  0.54273  0.03556  0.29394  1.0000
  H   H4605     1.0  0.52182  0.14915  0.25365  1.0000
  S   S1167     1.0  0.58001  0.21146  0.46632  1.0000
  H   H4606     1.0  0.54988  0.09351  0.35333  1.0000
  C   C2901     1.0  0.84847  0.21183  0.28401  1.0000
  S   S1168     1.0  0.48886  0.17364  0.43358  1.0000
  N   N281      1.0  0.52433  0.03371  0.31458  1.0000
  H   H4607     1.0  0.86035  0.02812  0.45215  1.0000
  C   C2902     1.0  0.52366  0.01777  0.31438  1.0000
  C   C2903     1.0  0.53847  0.12473  0.34959  1.0000
  C   C2904     1.0  0.95502  0.98629  0.36784  1.0000
  H   H4608     1.0  0.73911  0.22884  0.35370  1.0000
  N   N282      1.0  0.84601  0.20026  0.27692  1.0000
  H   H4609     1.0  0.51437  0.04462  0.29445  1.0000
  Fe  Fe584     1.0  0.87723  0.21134  0.22597  1.0000
  H   H4610     1.0  0.59860  0.16695  0.39247  1.0000
  H   H4611     1.0  0.77598  0.20876  0.33154  1.0000
  H   H4612     1.0  0.77895  0.06905  0.33322  1.0000
  H   H4613     1.0  0.52547  0.01631  0.30229  1.0000
  H   H4614     1.0  0.90047  0.22894  0.22609  1.0000
  H   H4615     1.0  0.73955  0.13215  0.34164  1.0000
  H   H4616     1.0  0.72007  0.15808  0.37761  1.0000
  Fe  Fe585     1.0  0.86887  0.98963  0.41029  1.0000
  H   H4617     1.0  0.73577  0.16090  0.33507  1.0000
  N   N283      1.0  0.79423  0.06636  0.31102  1.0000
  C   C2905     1.0  0.80337  0.07579  0.29760  1.0000
  H   H4618     1.0  0.63317  0.22146  0.42717  1.0000
  C   C2906     1.0  0.86126  0.19233  0.26870  1.0000
  S   S1169     1.0  0.69310  0.98095  0.25894  1.0000
  C   C2907     1.0  0.53188  0.15380  0.24553  1.0000
  H   H4619     1.0  0.68371  0.11392  0.30792  1.0000
  C   C2908     1.0  0.73777  0.22591  0.34319  1.0000
  H   H4620     1.0  0.82431  0.21455  0.27147  1.0000
  C   C2909     1.0  0.70600  0.99334  0.25538  1.0000
  H   H4621     1.0  0.79841  0.04481  0.32795  1.0000
  H   H4622     1.0  0.85621  0.20617  0.29241  1.0000
  H   H4623     1.0  0.59143  0.14968  0.39550  1.0000
  H   H4624     1.0  0.75987  0.22369  0.46573  1.0000
  H   H4625     1.0  0.57936  0.16867  0.38991  1.0000
  H   H4626     1.0  0.64825  0.12586  0.29162  1.0000
  C   C2910     1.0  0.76577  0.21819  0.33485  1.0000
  H   H4627     1.0  0.52864  0.15674  0.46829  1.0000
  C   C2911     1.0  0.80486  0.05211  0.31764  1.0000
  C   C2912     1.0  0.90446  0.00420  0.41330  1.0000
  S   S1170     1.0  0.84800  0.98896  0.40227  1.0000
  H   H4628     1.0  0.85993  0.18380  0.26279  1.0000
  H   H4629     1.0  0.82312  0.16432  0.23346  1.0000
  H   H4630     1.0  0.67358  0.10918  0.29635  1.0000
  N   N284      1.0  0.72843  0.14718  0.35791  1.0000
  N   N285      1.0  0.75086  0.21329  0.33813  1.0000
  H   H4631     1.0  0.81279  0.22922  0.43466  1.0000
  C   C2913     1.0  0.56672  0.20288  0.22579  1.0000
  H   H4632     1.0  0.60005  0.18054  0.43088  1.0000
  H   H4633     1.0  0.80959  0.06916  0.28831  1.0000
  H   H4634     1.0  0.68217  0.12589  0.28891  1.0000
  C   C2914     1.0  0.73488  0.16055  0.34753  1.0000
  H   H4635     1.0  0.84129  0.21724  0.25623  1.0000
  S   S1171     1.0  0.65333  0.20717  0.38371  1.0000
  H   H4636     1.0  0.55080  0.12114  0.35088  1.0000
  C   C2915     1.0  0.79130  0.22338  0.43521  1.0000
  H   H4637     1.0  0.81395  0.05512  0.32155  1.0000
  C   C2916     1.0  0.59337  0.15343  0.42294  1.0000
  H   H4638     1.0  0.54384  0.16563  0.27144  1.0000
  H   H4639     1.0  0.77539  0.05476  0.31560  1.0000
  H   H4640     1.0  0.93159  0.01060  0.41306  1.0000
  C   C2917     1.0  0.77144  0.22486  0.45895  1.0000
  C   C2918     1.0  0.58803  0.21962  0.26711  1.0000
  N   N286      1.0  0.54324  0.15429  0.25401  1.0000
  H   H4641     1.0  0.56293  0.15295  0.23449  1.0000
  H   H4642     1.0  0.60032  0.22035  0.23727  1.0000
  H   H4643     1.0  0.71479  0.98802  0.28511  1.0000
  C   C2919     1.0  0.96903  0.16326  0.25073  1.0000
  N   N287      1.0  0.91670  0.99409  0.42157  1.0000
  H   H4644     1.0  0.77852  0.08667  0.31837  1.0000
  H   H4645     1.0  0.90717  0.00297  0.40102  1.0000
  S   S1172     1.0  0.53490  0.20734  0.22942  1.0000
  C   C2920     1.0  0.92685  0.98876  0.37565  1.0000
  S   S1173     1.0  0.49537  0.08450  0.38937  1.0000
  Fe  Fe586     1.0  0.64547  0.22372  0.36288  1.0000
  C   C2921     1.0  0.53776  0.09798  0.35149  1.0000
  C   C2922     1.0  0.51374  0.11736  0.35540  1.0000
  S   S1174     1.0  0.52662  0.07843  0.31700  1.0000
  C   C2923     1.0  0.56750  0.15561  0.41968  1.0000
  H   H4646     1.0  0.52363  0.09866  0.38099  1.0000
  C   C2924     1.0  0.52128  0.03520  0.33087  1.0000
  C   C2925     1.0  0.49084  0.10249  0.39510  1.0000
  H   H4647     1.0  0.76630  0.22879  0.32529  1.0000
  H   H4648     1.0  0.56749  0.18580  0.40935  1.0000
  H   H4649     1.0  0.79572  0.08663  0.29233  1.0000
  C   C2926     1.0  0.51240  0.04531  0.30681  1.0000
  H   H4650     1.0  0.75062  0.13083  0.35548  1.0000
  H   H4651     1.0  0.52290  0.11873  0.37998  1.0000
  C   C2927     1.0  0.72168  0.21109  0.38226  1.0000
  H   H4652     1.0  0.63954  0.14247  0.30033  1.0000
  H   H4653     1.0  0.85906  0.07148  0.37228  1.0000
  C   C2928     1.0  0.53438  0.16614  0.46656  1.0000
  H   H4654     1.0  0.94148  0.99068  0.41914  1.0000
  H   H4655     1.0  0.77412  0.07252  0.30096  1.0000
  H   H4656     1.0  0.54077  0.04865  0.30615  1.0000
  C   C2929     1.0  0.87630  0.04544  0.34889  1.0000
  H   H4657     1.0  0.50103  0.18907  0.45772  1.0000
  H   H4658     1.0  0.50734  0.12794  0.36016  1.0000
  H   H4659     1.0  0.70457  0.15971  0.35869  1.0000
  H   H4660     1.0  0.53130  0.08842  0.35712  1.0000
  N   N288      1.0  0.52989  0.11216  0.35778  1.0000
  C   C2930     1.0  0.69405  0.21820  0.37172  1.0000
  S   S1175     1.0  0.51218  0.13862  0.43865  1.0000
  H   H4661     1.0  0.60424  0.15801  0.41858  1.0000
  H   H4662     1.0  0.90130  0.99325  0.44422  1.0000
  H   H4663     1.0  0.56471  0.16204  0.24876  1.0000
  H   H4664     1.0  0.54146  0.10513  0.37689  1.0000
  N   N289      1.0  0.66102  0.12890  0.30663  1.0000
  C   C2931     1.0  0.65285  0.11934  0.32075  1.0000
  C   C2932     1.0  0.66446  0.14188  0.31086  1.0000
  C   C2933     1.0  0.65090  0.13532  0.29526  1.0000
  C   C2934     1.0  0.67577  0.11908  0.29967  1.0000
  H   H4665     1.0  0.66019  0.11405  0.32954  1.0000
  H   H4666     1.0  0.64974  0.10966  0.31792  1.0000
  H   H4667     1.0  0.64173  0.12648  0.32636  1.0000
  H   H4668     1.0  0.67033  0.14955  0.30045  1.0000
  H   H4669     1.0  0.65357  0.14940  0.31630  1.0000
  H   H4670     1.0  0.59672  0.14090  0.42226  1.0000
  H   H4671     1.0  0.84179  0.98385  0.36210  1.0000
  H   H4672     1.0  0.49115  0.20860  0.45051  1.0000
  H   H4673     1.0  0.83724  0.21805  0.29037  1.0000
  C   C2935     1.0  0.49916  0.20148  0.45831  1.0000
  H   H4674     1.0  0.95947  0.16590  0.24443  1.0000
  H   H4675     1.0  0.58618  0.22239  0.27865  1.0000
  C   C2936     1.0  0.55630  0.16066  0.24276  1.0000
  H   H4676     1.0  0.84571  0.18235  0.29798  1.0000
  H   H4677     1.0  0.75239  0.20101  0.36155  1.0000
  H   H4678     1.0  0.72633  0.22245  0.34627  1.0000
  H   H4679     1.0  0.94481  0.98792  0.31406  1.0000
  H   H4680     1.0  0.75863  0.20051  0.31987  1.0000
  H   H4681     1.0  0.74888  0.22057  0.31420  1.0000
  H   H4682     1.0  0.60184  0.21672  0.42714  1.0000
  H   H4683     1.0  0.55200  0.17239  0.23570  1.0000
  C   C2937     1.0  0.84218  0.13627  0.23057  1.0000
  C   C2938     1.0  0.60816  0.22366  0.41641  1.0000
  H   H4684     1.0  0.53011  0.17639  0.25938  1.0000
  Fe  Fe587     1.0  0.48964  0.14975  0.43066  1.0000
  H   H4685     1.0  0.52713  0.16572  0.23902  1.0000
  H   H4686     1.0  0.61867  0.21547  0.41130  1.0000
  C   C2939     1.0  0.97308  0.18957  0.24063  1.0000
  H   H4687     1.0  0.68339  0.22103  0.36762  1.0000
  C   C2940     1.0  0.86730  0.00827  0.46999  1.0000
  H   H4688     1.0  0.60052  0.22812  0.40786  1.0000
  H   H4689     1.0  0.59956  0.21132  0.26505  1.0000
  Fe  Fe588     1.0  0.49666  0.13416  0.46267  1.0000
  C   C2941     1.0  0.91267  0.99637  0.43771  1.0000
  C   C2942     1.0  0.77640  0.22172  0.44399  1.0000
  H   H4690     1.0  0.83677  0.17948  0.28421  1.0000
  C   C2943     1.0  0.83590  0.20838  0.26570  1.0000
  C   C2944     1.0  0.49620  0.10305  0.40783  1.0000
  H   H4691     1.0  0.49788  0.11756  0.42207  1.0000
  H   H4692     1.0  0.82507  0.98530  0.34431  1.0000
  Fe  Fe589     1.0  0.76498  0.22394  0.41081  1.0000
  H   H4693     1.0  0.79526  0.22087  0.42371  1.0000
  C   C2945     1.0  0.49369  0.11728  0.41224  1.0000
  C   C2946     1.0  0.62248  0.22999  0.43142  1.0000
  C   C2947     1.0  0.78118  0.22996  0.46498  1.0000
  S   S1176     1.0  0.86023  0.19951  0.22258  1.0000
  H   H4694     1.0  0.79950  0.21408  0.59813  1.0000
  C   C2948     1.0  0.97313  0.08101  0.62297  1.0000
  H   H4695     1.0  0.81081  0.17919  0.47499  1.0000
  Fe  Fe590     1.0  0.56829  0.19865  0.48941  1.0000
  Fe  Fe591     1.0  0.79810  0.12772  0.60213  1.0000
  S   S1177     1.0  0.77588  0.14496  0.59844  1.0000
  S   S1178     1.0  0.81779  0.13029  0.61087  1.0000
  Fe  Fe592     1.0  0.78977  0.10228  0.59274  1.0000
  S   S1179     1.0  0.76670  0.11721  0.58802  1.0000
  S   S1180     1.0  0.79849  0.07639  0.59345  1.0000
  Fe  Fe593     1.0  0.77998  0.13623  0.57676  1.0000
  S   S1181     1.0  0.77399  0.15372  0.55541  1.0000
  Fe  Fe594     1.0  0.76404  0.12493  0.60996  1.0000
  S   S1182     1.0  0.74086  0.12961  0.62678  1.0000
  S   S1183     1.0  0.80337  0.12067  0.57927  1.0000
  S   S1184     1.0  0.78585  0.10840  0.61584  1.0000
  Fe  Fe595     1.0  0.89196  0.00791  0.52883  1.0000
  S   S1185     1.0  0.87933  0.02846  0.51388  1.0000
  S   S1186     1.0  0.91710  0.00488  0.52987  1.0000
  H   H4696     1.0  0.59391  0.21788  0.65037  1.0000
  S   S1187     1.0  0.84863  0.01252  0.52754  1.0000
  H   H4697     1.0  0.90841  0.13799  0.62688  1.0000
  Fe  Fe596     1.0  0.86962  0.01164  0.50756  1.0000
  Fe  Fe597     1.0  0.85899  0.02857  0.53437  1.0000
  S   S1188     1.0  0.84690  0.05371  0.53520  1.0000
  C   C2949     1.0  0.71684  0.10214  0.68476  1.0000
  S   S1189     1.0  0.87249  0.00924  0.55001  1.0000
  H   H4698     1.0  0.83258  0.98243  0.54390  1.0000
  Fe  Fe598     1.0  0.68781  0.07236  0.66800  1.0000
  S   S1190     1.0  0.80680  0.20426  0.66923  1.0000
  S   S1191     1.0  0.70393  0.07584  0.64436  1.0000
  Fe  Fe599     1.0  0.65609  0.08300  0.68784  1.0000
  S   S1192     1.0  0.63505  0.10301  0.68783  1.0000
  H   H4699     1.0  0.91757  0.00183  0.60927  1.0000
  H   H4700     1.0  0.84552  0.06437  0.50134  1.0000
  S   S1193     1.0  0.67884  0.09032  0.68254  1.0000
  S   S1194     1.0  0.66463  0.06643  0.67160  1.0000
  C   C2950     1.0  0.95627  0.04930  0.52403  1.0000
  H   H4701     1.0  0.63040  0.19178  0.52785  1.0000
  Fe  Fe600     1.0  0.56718  0.16708  0.62086  1.0000
  S   S1195     1.0  0.56930  0.14472  0.61424  1.0000
  S   S1196     1.0  0.57636  0.18644  0.60268  1.0000
  H   H4702     1.0  0.70752  0.09804  0.69463  1.0000
  Fe  Fe601     1.0  0.57355  0.13328  0.63816  1.0000
  Fe  Fe602     1.0  0.54381  0.14745  0.62554  1.0000
  S   S1197     1.0  0.52909  0.14677  0.60964  1.0000
  S   S1198     1.0  0.57392  0.15556  0.64372  1.0000
  S   S1199     1.0  0.54146  0.17073  0.63077  1.0000
  H   H4703     1.0  0.61490  0.18802  0.55520  1.0000
  H   H4704     1.0  0.73683  0.16565  0.60858  1.0000
  H   H4705     1.0  0.52083  0.06191  0.50994  1.0000
  C   C2951     1.0  0.85408  0.18606  0.71780  1.0000
  H   H4706     1.0  0.90350  0.12184  0.64242  1.0000
  C   C2952     1.0  0.93273  0.11306  0.62589  1.0000
  H   H4707     1.0  0.95216  0.04367  0.55521  1.0000
  C   C2953     1.0  0.83065  0.20596  0.59155  1.0000
  S   S1200     1.0  0.69736  0.07299  0.71881  1.0000
  S   S1201     1.0  0.63500  0.22852  0.57953  1.0000
  H   H4708     1.0  0.51337  0.13862  0.59113  1.0000
  H   H4709     1.0  0.49049  0.07417  0.53162  1.0000
  S   S1202     1.0  0.95840  0.04898  0.58953  1.0000
  H   H4710     1.0  0.85098  0.05450  0.48540  1.0000
  S   S1203     1.0  0.66689  0.20973  0.55889  1.0000
  C   C2954     1.0  0.57248  0.11013  0.68701  1.0000
  Fe  Fe603     1.0  0.65314  0.20631  0.58347  1.0000
  S   S1204     1.0  0.64748  0.18295  0.59625  1.0000
  H   H4711     1.0  0.49856  0.01790  0.56827  1.0000
  H   H4712     1.0  0.63787  0.19943  0.54845  1.0000
  H   H4713     1.0  0.97156  0.07128  0.52246  1.0000
  S   S1205     1.0  0.98650  0.11060  0.67297  1.0000
  C   C2955     1.0  0.92016  0.98597  0.58759  1.0000
  S   S1206     1.0  0.84050  0.20197  0.67705  1.0000
  C   C2956     1.0  0.73706  0.08396  0.69693  1.0000
  H   H4714     1.0  0.77548  0.20636  0.49152  1.0000
  S   S1207     1.0  0.49079  0.09418  0.62386  1.0000
  H   H4715     1.0  0.95216  0.98563  0.59970  1.0000
  H   H4716     1.0  0.71263  0.19315  0.59306  1.0000
  H   H4717     1.0  0.56142  0.12501  0.71956  1.0000
  H   H4718     1.0  0.53749  0.16001  0.49017  1.0000
  C   C2957     1.0  0.57071  0.13645  0.68897  1.0000
  C   C2958     1.0  0.64544  0.10857  0.63244  1.0000
  H   H4719     1.0  0.98393  0.02861  0.52389  1.0000
  S   S1208     1.0  0.59024  0.18883  0.49860  1.0000
  H   H4720     1.0  0.80685  0.05363  0.51759  1.0000
  C   C2959     1.0  0.67359  0.10187  0.62759  1.0000
  H   H4721     1.0  0.61340  0.21779  0.50884  1.0000
  H   H4722     1.0  0.68440  0.10500  0.62793  1.0000
  H   H4723     1.0  0.58522  0.10654  0.68676  1.0000
  C   C2960     1.0  0.53704  0.17884  0.69818  1.0000
  S   S1209     1.0  0.70639  0.21593  0.56190  1.0000
  S   S1210     1.0  0.66084  0.06459  0.70912  1.0000
  S   S1211     1.0  0.80377  0.21209  0.54119  1.0000
  C   C2961     1.0  0.60212  0.22028  0.54683  1.0000
  C   C2962     1.0  0.54756  0.12589  0.69702  1.0000
  H   H4724     1.0  0.72196  0.08013  0.66858  1.0000
  H   H4725     1.0  0.72254  0.16411  0.59938  1.0000
  S   S1212     1.0  0.95398  0.04293  0.63535  1.0000
  N   N290      1.0  0.79515  0.18728  0.49497  1.0000
  N   N291      1.0  0.96797  0.04798  0.53292  1.0000
  H   H4726     1.0  0.61826  0.98543  0.63741  1.0000
  C   C2963     1.0  0.82042  0.06876  0.48941  1.0000
  Fe  Fe604     1.0  0.82420  0.18620  0.68145  1.0000
  S   S1213     1.0  0.81727  0.17203  0.70570  1.0000
  Fe  Fe605     1.0  0.85179  0.19306  0.65522  1.0000
  S   S1214     1.0  0.87805  0.18785  0.64757  1.0000
  Fe  Fe606     1.0  0.82091  0.19538  0.64778  1.0000
  S   S1215     1.0  0.80840  0.19451  0.63006  1.0000
  S   S1216     1.0  0.83685  0.17564  0.66063  1.0000
  C   C2964     1.0  0.84424  0.05426  0.49762  1.0000
  S   S1217     1.0  0.95653  0.12662  0.69825  1.0000
  H   H4727     1.0  0.92843  0.98614  0.62147  1.0000
  C   C2965     1.0  0.56737  0.11621  0.71224  1.0000
  S   S1218     1.0  0.95595  0.13494  0.66101  1.0000
  Fe  Fe607     1.0  0.94129  0.12484  0.68369  1.0000
  S   S1219     1.0  0.91485  0.13039  0.68987  1.0000
  S   S1220     1.0  0.95295  0.09994  0.68244  1.0000
  S   S1221     1.0  0.94891  0.01646  0.61231  1.0000
  S   S1222     1.0  0.92565  0.03593  0.57983  1.0000
  C   C2966     1.0  0.96188  0.07689  0.65064  1.0000
  C   C2967     1.0  0.95711  0.06384  0.64991  1.0000
  H   H4728     1.0  0.95944  0.08013  0.66166  1.0000
  H   H4729     1.0  0.95094  0.05718  0.66038  1.0000
  C   C2968     1.0  0.88842  0.17127  0.65858  1.0000
  C   C2969     1.0  0.90431  0.16997  0.65756  1.0000
  C   C2970     1.0  0.91264  0.15728  0.66690  1.0000
  C   C2971     1.0  0.90515  0.14573  0.67713  1.0000
  C   C2972     1.0  0.88944  0.14669  0.67768  1.0000
  C   C2973     1.0  0.88103  0.15951  0.66853  1.0000
  H   H4730     1.0  0.91007  0.17905  0.64986  1.0000
  H   H4731     1.0  0.92471  0.15673  0.66652  1.0000
  H   H4732     1.0  0.88372  0.13758  0.68536  1.0000
  H   H4733     1.0  0.86883  0.16032  0.66920  1.0000
  H   H4734     1.0  0.95410  0.98481  0.62855  1.0000
  C   C2974     1.0  0.62263  0.17616  0.55734  1.0000
  C   C2975     1.0  0.56600  0.18597  0.68266  1.0000
  H   H4735     1.0  0.94257  0.10828  0.65204  1.0000
  H   H4736     1.0  0.94890  0.06135  0.52204  1.0000
  C   C2976     1.0  0.60397  0.10888  0.65447  1.0000
  H   H4737     1.0  0.54232  0.11556  0.70300  1.0000
  C   C2977     1.0  0.79839  0.18499  0.47890  1.0000
  H   H4738     1.0  0.96836  0.05118  0.55515  1.0000
  H   H4739     1.0  0.80305  0.20882  0.48749  1.0000
  Fe  Fe608     1.0  0.96868  0.11008  0.66062  1.0000
  S   S1223     1.0  0.66770  0.21688  0.59184  1.0000
  H   H4740     1.0  0.59391  0.98221  0.65738  1.0000
  S   S1224     1.0  0.98523  0.02057  0.60459  1.0000
  H   H4741     1.0  0.75417  0.19425  0.57520  1.0000
  C   C2978     1.0  0.87701  0.17927  0.69799  1.0000
  H   H4742     1.0  0.79091  0.17771  0.47794  1.0000
  C   C2979     1.0  0.49349  0.11835  0.52952  1.0000
  H   H4743     1.0  0.87138  0.18617  0.68812  1.0000
  H   H4744     1.0  0.84233  0.20334  0.58369  1.0000
  S   S1225     1.0  0.97847  0.08241  0.71345  1.0000
  H   H4745     1.0  0.58008  0.11346  0.71207  1.0000
  C   C2980     1.0  0.77853  0.19495  0.49959  1.0000
  H   H4746     1.0  0.97927  0.08768  0.61250  1.0000
  H   H4747     1.0  0.62852  0.19422  0.62787  1.0000
  H   H4748     1.0  0.60031  0.98981  0.67006  1.0000
  H   H4749     1.0  0.53800  0.19023  0.71559  1.0000
  H   H4750     1.0  0.63273  0.21033  0.61222  1.0000
  C   C2981     1.0  0.52208  0.04569  0.53937  1.0000
  H   H4751     1.0  0.64626  0.18454  0.56311  1.0000
  H   H4752     1.0  0.53449  0.04507  0.53907  1.0000
  H   H4753     1.0  0.95241  0.06386  0.54699  1.0000
  H   H4754     1.0  0.79089  0.16425  0.50596  1.0000
  H   H4755     1.0  0.81438  0.04014  0.49551  1.0000
  Fe  Fe609     1.0  0.68435  0.07055  0.70240  1.0000
  Fe  Fe610     1.0  0.94812  0.02998  0.58796  1.0000
  C   C2982     1.0  0.96039  0.05925  0.63574  1.0000
  H   H4756     1.0  0.94822  0.04124  0.53036  1.0000
  S   S1226     1.0  0.53618  0.16355  0.67661  1.0000
  H   H4757     1.0  0.67451  0.10134  0.61537  1.0000
  H   H4758     1.0  0.52638  0.07154  0.54470  1.0000
  H   H4759     1.0  0.50953  0.13253  0.49159  1.0000
  H   H4760     1.0  0.74761  0.07429  0.69578  1.0000
  H   H4761     1.0  0.86555  0.15331  0.70315  1.0000
  H   H4762     1.0  0.56766  0.09942  0.69181  1.0000
  H   H4763     1.0  0.60557  0.21646  0.60846  1.0000
  H   H4764     1.0  0.81556  0.20452  0.70459  1.0000
  C   C2983     1.0  0.49726  0.06213  0.53514  1.0000
  H   H4765     1.0  0.65711  0.18788  0.54330  1.0000
  H   H4766     1.0  0.79642  0.17335  0.51796  1.0000
  H   H4767     1.0  0.57117  0.11450  0.67470  1.0000
  C   C2984     1.0  0.64523  0.18743  0.55075  1.0000
  C   C2985     1.0  0.59634  0.18461  0.60043  1.0000
  C   C2986     1.0  0.60361  0.19585  0.58935  1.0000
  C   C2987     1.0  0.61948  0.19499  0.58766  1.0000
  C   C2988     1.0  0.62805  0.18312  0.59732  1.0000
  C   C2989     1.0  0.62091  0.17157  0.60814  1.0000
  C   C2990     1.0  0.60504  0.17227  0.60963  1.0000
  H   H4768     1.0  0.59690  0.20532  0.58219  1.0000
  H   H4769     1.0  0.62506  0.20346  0.57877  1.0000
  H   H4770     1.0  0.62754  0.16227  0.61553  1.0000
  H   H4771     1.0  0.59952  0.16340  0.61804  1.0000
  C   C2991     1.0  0.51900  0.13167  0.61374  1.0000
  C   C2992     1.0  0.51216  0.13049  0.60230  1.0000
  C   C2993     1.0  0.50382  0.11880  0.60518  1.0000
  C   C2994     1.0  0.50208  0.10831  0.61963  1.0000
  C   C2995     1.0  0.50886  0.10951  0.63112  1.0000
  C   C2996     1.0  0.51740  0.12109  0.62816  1.0000
  H   H4772     1.0  0.50567  0.18120  0.48445  1.0000
  H   H4773     1.0  0.90658  0.13862  0.64670  1.0000
  N   N292      1.0  0.86559  0.17298  0.71167  1.0000
  H   H4774     1.0  0.52260  0.12193  0.63706  1.0000
  C   C2997     1.0  0.66211  0.99877  0.66680  1.0000
  N   N293      1.0  0.56453  0.12216  0.69631  1.0000
  C   C2998     1.0  0.67044  0.99769  0.69009  1.0000
  C   C2999     1.0  0.66700  0.01406  0.68723  1.0000
  C   C3000     1.0  0.66115  0.02279  0.67410  1.0000
  C   C3001     1.0  0.65856  0.01515  0.66399  1.0000
  C   C3002     1.0  0.79848  0.17197  0.50579  1.0000
  C   C3003     1.0  0.50138  0.12767  0.51653  1.0000
  H   H4775     1.0  0.65836  0.03541  0.67188  1.0000
  H   H4776     1.0  0.65387  0.02194  0.65394  1.0000
  C   C3004     1.0  0.62325  0.10498  0.67497  1.0000
  C   C3005     1.0  0.60434  0.12162  0.65988  1.0000
  C   C3006     1.0  0.61387  0.11965  0.67019  1.0000
  H   H4777     1.0  0.59728  0.13298  0.65618  1.0000
  H   H4778     1.0  0.61406  0.12954  0.67442  1.0000
  C   C3007     1.0  0.91963  0.01388  0.54338  1.0000
  C   C3008     1.0  0.93433  0.01069  0.54694  1.0000
  C   C3009     1.0  0.93642  0.01753  0.55797  1.0000
  C   C3010     1.0  0.92382  0.02762  0.56544  1.0000
  C   C3011     1.0  0.90922  0.03097  0.56171  1.0000
  C   C3012     1.0  0.90712  0.02412  0.55072  1.0000
  H   H4779     1.0  0.94403  0.00278  0.54124  1.0000
  H   H4780     1.0  0.94771  0.01486  0.56078  1.0000
  H   H4781     1.0  0.89944  0.03882  0.56739  1.0000
  H   H4782     1.0  0.89583  0.02686  0.54786  1.0000
  H   H4783     1.0  0.49937  0.19513  0.49666  1.0000
  N   N294      1.0  0.82091  0.22089  0.58485  1.0000
  H   H4784     1.0  0.66057  0.12948  0.61118  1.0000
  H   H4785     1.0  0.64386  0.15117  0.54900  1.0000
  H   H4786     1.0  0.61317  0.08430  0.65504  1.0000
  H   H4787     1.0  0.80302  0.19923  0.50754  1.0000
  H   H4788     1.0  0.92329  0.10471  0.65709  1.0000
  H   H4789     1.0  0.75457  0.18371  0.59494  1.0000
  C   C3013     1.0  0.81517  0.14820  0.61612  1.0000
  C   C3014     1.0  0.80378  0.16120  0.61136  1.0000
  C   C3015     1.0  0.80182  0.17533  0.61571  1.0000
  C   C3016     1.0  0.81116  0.17654  0.62494  1.0000
  C   C3017     1.0  0.82268  0.16360  0.62955  1.0000
  C   C3018     1.0  0.82471  0.14949  0.62509  1.0000
  H   H4790     1.0  0.79657  0.16043  0.60420  1.0000
  H   H4791     1.0  0.79296  0.18531  0.61201  1.0000
  H   H4792     1.0  0.83006  0.16446  0.63650  1.0000
  H   H4793     1.0  0.83361  0.13952  0.62874  1.0000
  C   C3019     1.0  0.78192  0.17004  0.55200  1.0000
  C   C3020     1.0  0.77506  0.18443  0.54357  1.0000
  C   C3021     1.0  0.78146  0.19753  0.54057  1.0000
  C   C3022     1.0  0.79482  0.19622  0.54584  1.0000
  C   C3023     1.0  0.80134  0.18195  0.55473  1.0000
  C   C3024     1.0  0.79485  0.16888  0.55787  1.0000
  H   H4794     1.0  0.76472  0.18546  0.53949  1.0000
  H   H4795     1.0  0.77595  0.20868  0.53435  1.0000
  H   H4796     1.0  0.81156  0.18092  0.55900  1.0000
  H   H4797     1.0  0.80004  0.15784  0.56460  1.0000
  C   C3025     1.0  0.73024  0.11510  0.63085  1.0000
  C   C3026     1.0  0.73658  0.10177  0.62459  1.0000
  C   C3027     1.0  0.72828  0.08990  0.62861  1.0000
  C   C3028     1.0  0.71380  0.09113  0.63917  1.0000
  C   C3029     1.0  0.70742  0.10450  0.64540  1.0000
  C   C3030     1.0  0.71557  0.11653  0.64114  1.0000
  H   H4798     1.0  0.74797  0.10049  0.61678  1.0000
  H   H4799     1.0  0.73326  0.07959  0.62373  1.0000
  H   H4800     1.0  0.69620  0.10561  0.65343  1.0000
  H   H4801     1.0  0.71065  0.12684  0.64601  1.0000
  C   C3031     1.0  0.81167  0.07013  0.57710  1.0000
  C   C3032     1.0  0.81812  0.05410  0.57798  1.0000
  C   C3033     1.0  0.82904  0.04883  0.56524  1.0000
  C   C3034     1.0  0.83348  0.05961  0.55158  1.0000
  C   C3035     1.0  0.82701  0.07562  0.55071  1.0000
  C   C3036     1.0  0.81613  0.08088  0.56343  1.0000
  H   H4802     1.0  0.81467  0.04573  0.58854  1.0000
  H   H4803     1.0  0.83395  0.03646  0.56597  1.0000
  H   H4804     1.0  0.83041  0.08400  0.54014  1.0000
  H   H4805     1.0  0.81116  0.09324  0.56261  1.0000
  Fe  Fe611     1.0  0.54824  0.15719  0.65329  1.0000
  H   H4806     1.0  0.85162  0.17074  0.69734  1.0000
  H   H4807     1.0  0.72184  0.17928  0.57189  1.0000
  C   C3037     1.0  0.82669  0.04054  0.49443  1.0000
  H   H4808     1.0  0.97106  0.06435  0.61128  1.0000
  H   H4809     1.0  0.71184  0.10653  0.67421  1.0000
  C   C3038     1.0  0.55903  0.17820  0.67612  1.0000
  H   H4810     1.0  0.81086  0.16571  0.50254  1.0000
  C   C3039     1.0  0.54459  0.17446  0.68392  1.0000
  H   H4811     1.0  0.74281  0.15585  0.59275  1.0000
  H   H4812     1.0  0.73558  0.19133  0.56196  1.0000
  C   C3040     1.0  0.52117  0.06860  0.51827  1.0000
  H   H4813     1.0  0.49122  0.05721  0.54714  1.0000
  H   H4814     1.0  0.83251  0.20622  0.60298  1.0000
  H   H4815     1.0  0.63299  0.17158  0.52803  1.0000
  H   H4816     1.0  0.71798  0.07145  0.68897  1.0000
  Fe  Fe612     1.0  0.97237  0.13455  0.67539  1.0000
  C   C3041     1.0  0.51417  0.07144  0.54493  1.0000
  H   H4817     1.0  0.98633  0.03038  0.54205  1.0000
  H   H4818     1.0  0.76126  0.17351  0.57938  1.0000
  H   H4819     1.0  0.64551  0.10856  0.62028  1.0000
  C   C3042     1.0  0.61344  0.09421  0.65918  1.0000
  H   H4820     1.0  0.91596  0.99884  0.58390  1.0000
  C   C3043     1.0  0.62455  0.98194  0.64704  1.0000
  C   C3044     1.0  0.75228  0.18323  0.58380  1.0000
  H   H4821     1.0  0.60158  0.20019  0.62412  1.0000
  H   H4822     1.0  0.74225  0.17050  0.56611  1.0000
  H   H4823     1.0  0.67369  0.08981  0.63486  1.0000
  H   H4824     1.0  0.53361  0.06853  0.51724  1.0000
  S   S1227     1.0  0.58652  0.20911  0.53218  1.0000
  H   H4825     1.0  0.49871  0.11797  0.59622  1.0000
  C   C3045     1.0  0.97749  0.03182  0.53521  1.0000
  Fe  Fe613     1.0  0.68008  0.22239  0.56672  1.0000
  S   S1228     1.0  0.86538  0.02012  0.48298  1.0000
  H   H4826     1.0  0.56507  0.14572  0.69579  1.0000
  H   H4827     1.0  0.98463  0.05643  0.51266  1.0000
  C   C3046     1.0  0.60166  0.21719  0.53282  1.0000
  C   C3047     1.0  0.74299  0.09543  0.66939  1.0000
  H   H4828     1.0  0.75390  0.08628  0.66756  1.0000
  H   H4829     1.0  0.52584  0.17604  0.70427  1.0000
  H   H4830     1.0  0.94547  0.10770  0.62449  1.0000
  C   C3048     1.0  0.94411  0.98878  0.59165  1.0000
  H   H4831     1.0  0.50754  0.10144  0.64233  1.0000
  H   H4832     1.0  0.77572  0.19730  0.51144  1.0000
  H   H4833     1.0  0.74026  0.09355  0.69981  1.0000
  N   N295      1.0  0.61187  0.21603  0.62951  1.0000
  S   S1229     1.0  0.66967  0.02318  0.70059  1.0000
  H   H4834     1.0  0.82470  0.04303  0.52362  1.0000
  C   C3049     1.0  0.73391  0.18045  0.57083  1.0000
  H   H4835     1.0  0.93302  0.14375  0.63988  1.0000
  H   H4836     1.0  0.64935  0.15682  0.56368  1.0000
  S   S1230     1.0  0.56787  0.19973  0.70482  1.0000
  H   H4837     1.0  0.51538  0.19699  0.48014  1.0000
  H   H4838     1.0  0.97012  0.02319  0.54159  1.0000
  H   H4839     1.0  0.82104  0.07934  0.49280  1.0000
  C   C3050     1.0  0.72481  0.19404  0.59198  1.0000
  S   S1231     1.0  0.65852  0.98936  0.65419  1.0000
  Fe  Fe614     1.0  0.96964  0.10254  0.69496  1.0000
  S   S1232     1.0  0.49784  0.08385  0.58273  1.0000
  H   H4840     1.0  0.88280  0.18701  0.70084  1.0000
  C   C3051     1.0  0.85739  0.16373  0.70706  1.0000
  Fe  Fe615     1.0  0.97275  0.00399  0.60180  1.0000
  S   S1233     1.0  0.49858  0.11157  0.48068  1.0000
  S   S1234     1.0  0.69543  0.05303  0.68739  1.0000
  H   H4841     1.0  0.67497  0.99086  0.70021  1.0000
  S   S1235     1.0  0.83679  0.21222  0.64081  1.0000
  C   C3052     1.0  0.50289  0.12571  0.50149  1.0000
  H   H4842     1.0  0.73873  0.21740  0.55355  1.0000
  C   C3053     1.0  0.49063  0.22024  0.47470  1.0000
  H   H4843     1.0  0.51661  0.04045  0.55154  1.0000
  C   C3054     1.0  0.72687  0.07636  0.67919  1.0000
  H   H4844     1.0  0.92655  0.12148  0.66123  1.0000
  S   S1236     1.0  0.56085  0.21926  0.50076  1.0000
  H   H4845     1.0  0.50793  0.08380  0.54169  1.0000
  H   H4846     1.0  0.50661  0.13623  0.51810  1.0000
  C   C3055     1.0  0.50376  0.19382  0.48437  1.0000
  C   C3056     1.0  0.63791  0.18000  0.53093  1.0000
  H   H4847     1.0  0.65809  0.10133  0.65731  1.0000
  S   S1237     1.0  0.88438  0.99076  0.52056  1.0000
  N   N296      1.0  0.73094  0.08947  0.68256  1.0000
  C   C3057     1.0  0.96847  0.06783  0.62225  1.0000
  H   H4848     1.0  0.77999  0.19961  0.72056  1.0000
  H   H4849     1.0  0.62273  0.17274  0.56997  1.0000
  H   H4850     1.0  0.72819  0.07947  0.70711  1.0000
  N   N297      1.0  0.82767  0.05431  0.49931  1.0000
  C   C3058     1.0  0.96983  0.08558  0.63718  1.0000
  H   H4851     1.0  0.73890  0.09930  0.65831  1.0000
  C   C3059     1.0  0.48831  0.10531  0.51235  1.0000
  H   H4852     1.0  0.64805  0.12142  0.65443  1.0000
  H   H4853     1.0  0.95084  0.98448  0.58092  1.0000
  C   C3060     1.0  0.93670  0.13568  0.63173  1.0000
  Fe  Fe616     1.0  0.98150  0.03375  0.58084  1.0000
  H   H4854     1.0  0.49648  0.05509  0.52735  1.0000
  H   H4855     1.0  0.67038  0.13279  0.62403  1.0000
  C   C3061     1.0  0.80517  0.19720  0.49558  1.0000
  N   N298      1.0  0.73637  0.18094  0.58595  1.0000
  H   H4856     1.0  0.71947  0.11224  0.68730  1.0000
  H   H4857     1.0  0.66900  0.11637  0.65082  1.0000
  H   H4858     1.0  0.60599  0.19866  0.65022  1.0000
  H   H4859     1.0  0.63448  0.11669  0.63686  1.0000
  S   S1238     1.0  0.49055  0.04646  0.57889  1.0000
  C   C3062     1.0  0.60607  0.21134  0.64653  1.0000
  H   H4860     1.0  0.50864  0.06675  0.55719  1.0000
  H   H4861     1.0  0.63022  0.08087  0.67315  1.0000
  H   H4862     1.0  0.62487  0.99278  0.65019  1.0000
  N   N299      1.0  0.83891  0.08226  0.60371  1.0000
  C   C3063     1.0  0.85197  0.08538  0.60803  1.0000
  C   C3064     1.0  0.84291  0.06611  0.60131  1.0000
  C   C3065     1.0  0.83591  0.09339  0.58915  1.0000
  C   C3066     1.0  0.82475  0.08425  0.61630  1.0000
  H   H4863     1.0  0.84916  0.09753  0.60989  1.0000
  H   H4864     1.0  0.86284  0.08406  0.59875  1.0000
  H   H4865     1.0  0.85456  0.07723  0.61901  1.0000
  H   H4866     1.0  0.83313  0.06347  0.59818  1.0000
  H   H4867     1.0  0.85337  0.06426  0.59168  1.0000
  H   H4868     1.0  0.84536  0.05736  0.61202  1.0000
  H   H4869     1.0  0.82607  0.09136  0.58562  1.0000
  H   H4870     1.0  0.84628  0.09220  0.57933  1.0000
  H   H4871     1.0  0.83281  0.10571  0.59054  1.0000
  H   H4872     1.0  0.81467  0.08190  0.61345  1.0000
  H   H4873     1.0  0.82123  0.09640  0.61824  1.0000
  H   H4874     1.0  0.82659  0.07615  0.62752  1.0000
  N   N300      1.0  0.55557  0.17916  0.57102  1.0000
  C   C3067     1.0  0.57248  0.17764  0.56925  1.0000
  C   C3068     1.0  0.55257  0.16386  0.57167  1.0000
  C   C3069     1.0  0.55036  0.19080  0.55760  1.0000
  C   C3070     1.0  0.54689  0.18433  0.58561  1.0000
  H   H4875     1.0  0.57506  0.18897  0.56893  1.0000
  H   H4876     1.0  0.57936  0.17397  0.55825  1.0000
  H   H4877     1.0  0.57684  0.16893  0.57918  1.0000
  H   H4878     1.0  0.55878  0.15957  0.56083  1.0000
  H   H4879     1.0  0.55641  0.15482  0.58169  1.0000
  H   H4880     1.0  0.53986  0.16453  0.57332  1.0000
  H   H4881     1.0  0.53764  0.19235  0.55853  1.0000
  H   H4882     1.0  0.55671  0.18726  0.54638  1.0000
  H   H4883     1.0  0.55262  0.20243  0.55673  1.0000
  H   H4884     1.0  0.53408  0.18557  0.58740  1.0000
  H   H4885     1.0  0.54902  0.19572  0.58574  1.0000
  H   H4886     1.0  0.55054  0.17572  0.59592  1.0000
  C   C3071     1.0  0.62501  0.22743  0.52011  1.0000
  C   C3072     1.0  0.55847  0.19035  0.69690  1.0000
  H   H4887     1.0  0.56487  0.17510  0.66509  1.0000
  H   H4888     1.0  0.82644  0.06956  0.47691  1.0000
  H   H4889     1.0  0.54125  0.13551  0.70326  1.0000
  C   C3073     1.0  0.62311  0.09227  0.66938  1.0000
  Fe  Fe617     1.0  0.96118  0.03429  0.61311  1.0000
  S   S1239     1.0  0.59168  0.11085  0.64204  1.0000
  H   H4890     1.0  0.74605  0.10564  0.67126  1.0000
  H   H4891     1.0  0.64475  0.09660  0.63957  1.0000
  N   N301      1.0  0.65940  0.11314  0.63330  1.0000
  C   C3074     1.0  0.65996  0.12900  0.62360  1.0000
  H   H4892     1.0  0.64942  0.13778  0.62763  1.0000
  S   S1240     1.0  0.54814  0.13397  0.64916  1.0000
  N   N302      1.0  0.49277  0.20364  0.47448  1.0000
  N   N303      1.0  0.51367  0.06198  0.53441  1.0000
  C   C3075     1.0  0.66817  0.99007  0.67981  1.0000
  H   H4893     1.0  0.94942  0.13051  0.63093  1.0000
  C   C3076     1.0  0.60163  0.21286  0.62133  1.0000
  H   H4894     1.0  0.85977  0.19327  0.72152  1.0000
  C   C3077     1.0  0.61327  0.22061  0.51954  1.0000
  H   H4895     1.0  0.87460  0.98630  0.48524  1.0000
  C   C3078     1.0  0.53952  0.16792  0.47892  1.0000
  Fe  Fe618     1.0  0.82397  0.21948  0.66330  1.0000
  C   C3079     1.0  0.80556  0.22380  0.59571  1.0000
  C   C3080     1.0  0.93007  0.11405  0.65254  1.0000
  H   H4896     1.0  0.61706  0.16798  0.55490  1.0000
  H   H4897     1.0  0.52192  0.03816  0.53175  1.0000
  H   H4898     1.0  0.83303  0.04052  0.48211  1.0000
  H   H4899     1.0  0.73726  0.06667  0.67723  1.0000
  C   C3081     1.0  0.64855  0.16017  0.55122  1.0000
  H   H4900     1.0  0.64970  0.18016  0.52316  1.0000
  C   C3082     1.0  0.49636  0.11453  0.49937  1.0000
  H   H4901     1.0  0.81270  0.21041  0.57119  1.0000
  C   C3083     1.0  0.95987  0.05183  0.54823  1.0000
  C   C3084     1.0  0.62798  0.20701  0.62497  1.0000
  H   H4902     1.0  0.90965  0.98083  0.59255  1.0000
  H   H4903     1.0  0.83216  0.02945  0.50162  1.0000
  H   H4904     1.0  0.85001  0.04353  0.50496  1.0000
  H   H4905     1.0  0.81779  0.19175  0.49218  1.0000
  C   C3085     1.0  0.73454  0.16602  0.59716  1.0000
  C   C3086     1.0  0.91077  0.13076  0.63830  1.0000
  S   S1241     1.0  0.49198  0.12100  0.54817  1.0000
  H   H4906     1.0  0.77063  0.18761  0.49963  1.0000
  N   N304      1.0  0.92755  0.12339  0.63710  1.0000
  S   S1242     1.0  0.97093  0.01599  0.57729  1.0000
  H   H4907     1.0  0.88642  0.16974  0.69366  1.0000
  H   H4908     1.0  0.54510  0.12990  0.68513  1.0000
  C   C3087     1.0  0.81938  0.05370  0.51578  1.0000
  N   N305      1.0  0.63857  0.17594  0.54756  1.0000
  H   H4909     1.0  0.72624  0.20550  0.58400  1.0000
  Fe  Fe619     1.0  0.67145  0.04848  0.69242  1.0000
  H   H4910     1.0  0.93525  0.14286  0.62002  1.0000
  C   C3088     1.0  0.54711  0.17998  0.47686  1.0000
  C   C3089     1.0  0.65862  0.11309  0.64965  1.0000
  H   H4911     1.0  0.58353  0.13408  0.68797  1.0000
  S   S1243     1.0  0.55203  0.18268  0.49304  1.0000
  H   H4912     1.0  0.72597  0.19444  0.60362  1.0000
  C   C3090     1.0  0.54390  0.18687  0.70461  1.0000
  H   H4913     1.0  0.92652  0.10327  0.62986  1.0000
  H   H4914     1.0  0.93071  0.11959  0.61416  1.0000
  H   H4915     1.0  0.56843  0.14147  0.67708  1.0000
  Fe  Fe620     1.0  0.58400  0.21059  0.50784  1.0000
  H   H4916     1.0  0.57725  0.18867  0.67664  1.0000
  H   H4917     1.0  0.91056  0.98415  0.61845  1.0000
  H   H4918     1.0  0.51519  0.08096  0.51428  1.0000
  H   H4919     1.0  0.66066  0.15961  0.54401  1.0000
  S   S1244     1.0  0.98401  0.15459  0.67102  1.0000
  H   H4920     1.0  0.92659  0.98156  0.57683  1.0000
  H   H4921     1.0  0.96193  0.04635  0.51244  1.0000
  C   C3091     1.0  0.61402  0.22690  0.54749  1.0000
  H   H4922     1.0  0.58932  0.21931  0.62459  1.0000
  H   H4923     1.0  0.63606  0.20913  0.63089  1.0000
  H   H4924     1.0  0.59305  0.21783  0.55708  1.0000
  C   C3092     1.0  0.81416  0.19817  0.71659  1.0000
  C   C3093     1.0  0.92126  0.98884  0.61265  1.0000
  H   H4925     1.0  0.80789  0.06921  0.49041  1.0000
  H   H4926     1.0  0.84767  0.19393  0.70885  1.0000
  H   H4927     1.0  0.81998  0.06387  0.51989  1.0000
  C   C3094     1.0  0.97829  0.05894  0.52429  1.0000
  N   N306      1.0  0.93013  0.98212  0.59896  1.0000
  H   H4928     1.0  0.94086  0.00176  0.58843  1.0000
  H   H4929     1.0  0.82500  0.19598  0.59369  1.0000
  H   H4930     1.0  0.61349  0.21364  0.65307  1.0000
  Fe  Fe621     1.0  0.60135  0.20332  0.47643  1.0000
  H   H4931     1.0  0.56299  0.10534  0.71812  1.0000
  H   H4932     1.0  0.88272  0.15286  0.71953  1.0000
  C   C3095     1.0  0.87201  0.99198  0.47391  1.0000
  S   S1245     1.0  0.97496  0.10268  0.63758  1.0000
  H   H4933     1.0  0.76768  0.19343  0.71231  1.0000
  H   H4934     1.0  0.84810  0.15951  0.71689  1.0000
  C   C3096     1.0  0.81865  0.21999  0.56978  1.0000
  H   H4935     1.0  0.80684  0.22470  0.60716  1.0000
  H   H4936     1.0  0.69090  0.99667  0.71761  1.0000
  H   H4937     1.0  0.78219  0.17924  0.72161  1.0000
  C   C3097     1.0  0.81426  0.18221  0.72034  1.0000
  C   C3098     1.0  0.73257  0.22725  0.54627  1.0000
  H   H4938     1.0  0.82998  0.21777  0.56127  1.0000
  S   S1246     1.0  0.59676  0.22450  0.48618  1.0000
  Fe  Fe622     1.0  0.86413  0.99303  0.54117  1.0000
  H   H4939     1.0  0.61411  0.22953  0.55826  1.0000
  C   C3099     1.0  0.71639  0.22957  0.54805  1.0000
  H   H4940     1.0  0.48731  0.21865  0.70886  1.0000
  Fe  Fe623     1.0  0.78099  0.17807  0.81087  1.0000
  C   C3100     1.0  0.66600  0.99464  0.74136  1.0000
  S   S1247     1.0  0.78900  0.15617  0.82783  1.0000
  H   H4941     1.0  0.65652  0.99917  0.75072  1.0000
  H   H4942     1.0  0.66552  0.02551  0.91471  1.0000
  S   S1248     1.0  0.77985  0.17868  0.78651  1.0000
  Fe  Fe624     1.0  0.85290  0.13910  0.86839  1.0000
  S   S1249     1.0  0.85241  0.11378  0.87300  1.0000
  S   S1250     1.0  0.85070  0.15619  0.84582  1.0000
  Fe  Fe625     1.0  0.85628  0.13725  0.90069  1.0000
  S   S1251     1.0  0.85615  0.11173  0.90858  1.0000
  S   S1252     1.0  0.85645  0.15332  0.91516  1.0000
  Fe  Fe626     1.0  0.87185  0.10993  0.88509  1.0000
  S   S1253     1.0  0.89290  0.09008  0.88359  1.0000
  Fe  Fe627     1.0  0.83682  0.11758  0.89594  1.0000
  S   S1254     1.0  0.81446  0.10927  0.90655  1.0000
  S   S1255     1.0  0.87381  0.13500  0.87833  1.0000
  S   S1256     1.0  0.83545  0.14334  0.89020  1.0000
  Fe  Fe628     1.0  0.77242  0.02039  0.88803  1.0000
  S   S1257     1.0  0.77642  0.04158  0.86922  1.0000
  Fe  Fe629     1.0  0.76018  0.03900  0.91340  1.0000
  S   S1258     1.0  0.76261  0.06187  0.89681  1.0000
  Fe  Fe630     1.0  0.75297  0.05320  0.88161  1.0000
  S   S1259     1.0  0.73367  0.06764  0.86953  1.0000
  Fe  Fe631     1.0  0.78580  0.04818  0.88611  1.0000
  S   S1260     1.0  0.80927  0.05456  0.87992  1.0000
  S   S1261     1.0  0.74829  0.03150  0.89931  1.0000
  S   S1262     1.0  0.78392  0.02590  0.90373  1.0000
  H   H4943     1.0  0.94334  0.10521  0.88156  1.0000
  H   H4944     1.0  0.95089  0.20048  0.97016  1.0000
  H   H4945     1.0  0.95567  0.11413  0.84624  1.0000
  H   H4946     1.0  0.60253  0.19495  0.76439  1.0000
  Fe  Fe632     1.0  0.94420  0.06636  0.81442  1.0000
  S   S1263     1.0  0.91817  0.07227  0.81794  1.0000
  S   S1264     1.0  0.97758  0.06213  0.85119  1.0000
  H   H4947     1.0  0.63208  0.22753  0.77901  1.0000
  C   C3101     1.0  0.55702  0.07375  0.96254  1.0000
  H   H4948     1.0  0.74758  0.17908  0.72970  1.0000
  C   C3102     1.0  0.96502  0.12697  0.93127  1.0000
  S   S1265     1.0  0.56976  0.21559  0.85823  1.0000
  Fe  Fe633     1.0  0.76812  0.21274  0.80848  1.0000
  Fe  Fe634     1.0  0.59561  0.21066  0.85591  1.0000
  S   S1266     1.0  0.60952  0.18631  0.85505  1.0000
  H   H4949     1.0  0.94282  0.07613  0.86020  1.0000
  H   H4950     1.0  0.93070  0.09822  0.84289  1.0000
  H   H4951     1.0  0.97193  0.01890  0.74581  1.0000
  Fe  Fe635     1.0  0.67140  0.12518  0.80859  1.0000
  S   S1267     1.0  0.65114  0.13529  0.79712  1.0000
  S   S1268     1.0  0.67144  0.11102  0.83279  1.0000
  Fe  Fe636     1.0  0.69453  0.13748  0.78039  1.0000
  S   S1269     1.0  0.67649  0.14890  0.76585  1.0000
  S   S1270     1.0  0.72038  0.13638  0.77440  1.0000
  Fe  Fe637     1.0  0.66141  0.15647  0.78757  1.0000
  S   S1271     1.0  0.64447  0.17968  0.78655  1.0000
  Fe  Fe638     1.0  0.66746  0.12694  0.77633  1.0000
  S   S1272     1.0  0.65556  0.11747  0.76376  1.0000
  S   S1273     1.0  0.68025  0.14722  0.80114  1.0000
  S   S1274     1.0  0.68693  0.11465  0.78878  1.0000
  Fe  Fe639     1.0  0.69867  0.01905  0.84039  1.0000
  S   S1275     1.0  0.68073  0.02800  0.82596  1.0000
  S   S1276     1.0  0.72193  0.02558  0.83171  1.0000
  Fe  Fe640     1.0  0.67915  0.99891  0.86567  1.0000
  S   S1277     1.0  0.65929  0.00598  0.85345  1.0000
  H   H4952     1.0  0.86566  0.15783  0.73432  1.0000
  Fe  Fe641     1.0  0.67809  0.00327  0.83194  1.0000
  Fe  Fe642     1.0  0.66355  0.03006  0.84851  1.0000
  S   S1278     1.0  0.64365  0.05108  0.84889  1.0000
  S   S1279     1.0  0.69767  0.99392  0.84456  1.0000
  S   S1280     1.0  0.68180  0.02332  0.86259  1.0000
  C   C3103     1.0  0.81209  0.20605  0.72841  1.0000
  C   C3104     1.0  0.62341  0.01375  0.90504  1.0000
  H   H4953     1.0  0.94930  0.07840  0.87597  1.0000
  H   H4954     1.0  0.68065  0.01062  0.89446  1.0000
  H   H4955     1.0  0.94921  0.15141  0.91331  1.0000
  H   H4956     1.0  0.96438  0.09734  0.85927  1.0000
  H   H4957     1.0  0.63485  0.04793  0.88665  1.0000
  S   S1281     1.0  0.59906  0.00883  0.94766  1.0000
  S   S1282     1.0  0.56844  0.20258  0.77685  1.0000
  N   N307      1.0  0.73062  0.99950  0.88068  1.0000
  C   C3105     1.0  0.60605  0.16859  0.78643  1.0000
  H   H4958     1.0  0.59466  0.17690  0.78929  1.0000
  H   H4959     1.0  0.84340  0.01461  0.92625  1.0000
  H   H4960     1.0  0.97124  0.13398  0.89968  1.0000
  S   S1283     1.0  0.54426  0.19805  0.74920  1.0000
  C   C3106     1.0  0.97534  0.10286  0.73190  1.0000
  C   C3107     1.0  0.96119  0.02328  0.75419  1.0000
  C   C3108     1.0  0.66891  0.99153  0.90427  1.0000
  H   H4961     1.0  0.58857  0.17500  0.76536  1.0000
  C   C3109     1.0  0.66344  0.01422  0.91536  1.0000
  S   S1284     1.0  0.75392  0.03591  0.93936  1.0000
  C   C3110     1.0  0.62683  0.15895  0.76609  1.0000
  C   C3111     1.0  0.98352  0.99331  0.79949  1.0000
  H   H4962     1.0  0.59933  0.15801  0.87938  1.0000
  C   C3112     1.0  0.65188  0.00830  0.92741  1.0000
  H   H4963     1.0  0.73550  0.04989  0.96633  1.0000
  S   S1285     1.0  0.53337  0.12823  0.96683  1.0000
  S   S1286     1.0  0.77731  0.99695  0.88199  1.0000
  H   H4964     1.0  0.58841  0.17611  0.88453  1.0000
  H   H4965     1.0  0.81810  0.21494  0.87303  1.0000
  H   H4966     1.0  0.58664  0.15796  0.89835  1.0000
  H   H4967     1.0  0.83180  0.08333  0.92443  1.0000
  C   C3113     1.0  0.90647  0.22197  0.95177  1.0000
  C   C3114     1.0  0.69346  0.99042  0.72925  1.0000
  C   C3115     1.0  0.97426  0.98351  0.79926  1.0000
  C   C3116     1.0  0.67186  0.00590  0.90376  1.0000
  H   H4968     1.0  0.61801  0.18787  0.74925  1.0000
  C   C3117     1.0  0.76984  0.03833  0.94483  1.0000
  H   H4969     1.0  0.63143  0.15969  0.75336  1.0000
  C   C3118     1.0  0.66765  0.10619  0.75044  1.0000
  C   C3119     1.0  0.98565  0.07893  0.75590  1.0000
  H   H4970     1.0  0.95645  0.12381  0.92677  1.0000
  C   C3120     1.0  0.74350  0.00144  0.86678  1.0000
  C   C3121     1.0  0.69289  0.09103  0.73977  1.0000
  C   C3122     1.0  0.68375  0.10122  0.74956  1.0000
  C   C3123     1.0  0.80969  0.19810  0.74405  1.0000
  H   H4971     1.0  0.72669  0.22929  0.83278  1.0000
  C   C3124     1.0  0.68599  0.08610  0.73065  1.0000
  H   H4972     1.0  0.68911  0.10501  0.75659  1.0000
  C   C3125     1.0  0.66354  0.09453  0.83715  1.0000
  C   C3126     1.0  0.65038  0.09517  0.83187  1.0000
  C   C3127     1.0  0.64393  0.08193  0.83595  1.0000
  C   C3128     1.0  0.65099  0.06793  0.84482  1.0000
  C   C3129     1.0  0.66432  0.06727  0.84981  1.0000
  C   C3130     1.0  0.67043  0.08062  0.84620  1.0000
  H   H4973     1.0  0.64496  0.10597  0.82498  1.0000
  H   H4974     1.0  0.63363  0.08247  0.83205  1.0000
  H   H4975     1.0  0.66974  0.05657  0.85675  1.0000
  H   H4976     1.0  0.68057  0.08011  0.85036  1.0000
  C   C3131     1.0  0.95542  0.10173  0.85205  1.0000
  C   C3132     1.0  0.57097  0.21948  0.81247  1.0000
  C   C3133     1.0  0.57233  0.20945  0.80272  1.0000
  C   C3134     1.0  0.56631  0.21517  0.78920  1.0000
  H   H4977     1.0  0.72586  0.02367  0.88182  1.0000
  H   H4978     1.0  0.94707  0.21057  0.95137  1.0000
  H   H4979     1.0  0.57557  0.21499  0.82290  1.0000
  H   H4980     1.0  0.57798  0.19725  0.80572  1.0000
  H   H4981     1.0  0.60607  0.05240  0.89876  1.0000
  C   C3135     1.0  0.63432  0.18111  0.80558  1.0000
  C   C3136     1.0  0.62167  0.19364  0.80802  1.0000
  C   C3137     1.0  0.61380  0.19520  0.82322  1.0000
  C   C3138     1.0  0.61859  0.18415  0.83598  1.0000
  C   C3139     1.0  0.63081  0.17124  0.83351  1.0000
  C   C3140     1.0  0.63869  0.16973  0.81832  1.0000
  H   H4982     1.0  0.61805  0.20208  0.79815  1.0000
  H   H4983     1.0  0.60402  0.20488  0.82505  1.0000
  H   H4984     1.0  0.63448  0.16261  0.84335  1.0000
  H   H4985     1.0  0.64830  0.15989  0.81655  1.0000
  C   C3141     1.0  0.55328  0.20658  0.91040  1.0000
  C   C3142     1.0  0.54073  0.20117  0.92141  1.0000
  C   C3143     1.0  0.54287  0.18566  0.93006  1.0000
  C   C3144     1.0  0.55762  0.17564  0.92780  1.0000
  C   C3145     1.0  0.57030  0.18133  0.91744  1.0000
  C   C3146     1.0  0.56811  0.19669  0.90862  1.0000
  H   H4986     1.0  0.52924  0.20884  0.92286  1.0000
  H   H4987     1.0  0.53301  0.18132  0.93802  1.0000
  H   H4988     1.0  0.58183  0.17378  0.91609  1.0000
  H   H4989     1.0  0.57791  0.20085  0.90041  1.0000
  Fe  Fe643     1.0  0.93800  0.17485  0.95192  1.0000
  C   C3147     1.0  0.49241  0.21780  0.73072  1.0000
  C   C3148     1.0  0.64944  0.99356  0.92839  1.0000
  H   H4990     1.0  0.69662  0.98912  0.75795  1.0000
  H   H4991     1.0  0.81207  0.21839  0.72543  1.0000
  S   S1287     1.0  0.95949  0.18255  0.93639  1.0000
  N   N308      1.0  0.61171  0.17013  0.76940  1.0000
  C   C3149     1.0  0.82984  0.10051  0.94471  1.0000
  H   H4992     1.0  0.97602  0.14759  0.93887  1.0000
  C   C3150     1.0  0.73019  0.05657  0.85853  1.0000
  C   C3151     1.0  0.71488  0.05681  0.85825  1.0000
  C   C3152     1.0  0.71218  0.04762  0.84969  1.0000
  C   C3153     1.0  0.72481  0.03826  0.84137  1.0000
  C   C3154     1.0  0.74008  0.03845  0.84127  1.0000
  C   C3155     1.0  0.74276  0.04744  0.84996  1.0000
  H   H4993     1.0  0.70511  0.06387  0.86487  1.0000
  H   H4994     1.0  0.70036  0.04772  0.84958  1.0000
  H   H4995     1.0  0.74987  0.03130  0.83476  1.0000
  H   H4996     1.0  0.75459  0.04741  0.84990  1.0000
  C   C3156     1.0  0.87302  0.14784  0.92317  1.0000
  C   C3157     1.0  0.87534  0.15767  0.93124  1.0000
  C   C3158     1.0  0.88858  0.15357  0.93762  1.0000
  C   C3159     1.0  0.89945  0.13955  0.93607  1.0000
  C   C3160     1.0  0.89707  0.12963  0.92813  1.0000
  C   C3161     1.0  0.88389  0.13381  0.92161  1.0000
  H   H4997     1.0  0.86694  0.16852  0.93248  1.0000
  H   H4998     1.0  0.89033  0.16129  0.94374  1.0000
  H   H4999     1.0  0.90544  0.11876  0.92695  1.0000
  H   H5000     1.0  0.88214  0.12618  0.91539  1.0000
  C   C3162     1.0  0.89844  0.08423  0.86576  1.0000
  C   C3163     1.0  0.89196  0.09331  0.85310  1.0000
  C   C3164     1.0  0.89762  0.08926  0.83851  1.0000
  C   C3165     1.0  0.91006  0.07641  0.83647  1.0000
  C   C3166     1.0  0.91649  0.06731  0.84914  1.0000
  C   C3167     1.0  0.91048  0.07104  0.86382  1.0000
  H   H5001     1.0  0.88293  0.10371  0.85438  1.0000
  H   H5002     1.0  0.89276  0.09641  0.82867  1.0000
  H   H5003     1.0  0.92598  0.05727  0.84765  1.0000
  H   H5004     1.0  0.91536  0.06383  0.87362  1.0000
  C   C3168     1.0  0.81333  0.09328  0.90014  1.0000
  C   C3169     1.0  0.82665  0.08449  0.89203  1.0000
  C   C3170     1.0  0.82536  0.07225  0.88633  1.0000
  C   C3171     1.0  0.81077  0.06874  0.88874  1.0000
  C   C3172     1.0  0.79757  0.07719  0.89731  1.0000
  C   C3173     1.0  0.79885  0.08941  0.90304  1.0000
  H   H5005     1.0  0.83793  0.08714  0.89009  1.0000
  H   H5006     1.0  0.83566  0.06565  0.87982  1.0000
  H   H5007     1.0  0.78630  0.07457  0.89930  1.0000
  H   H5008     1.0  0.78853  0.09608  0.90945  1.0000
  C   C3174     1.0  0.80587  0.15678  0.83294  1.0000
  C   C3175     1.0  0.80859  0.14882  0.84771  1.0000
  C   C3176     1.0  0.82236  0.14865  0.85170  1.0000
  C   C3177     1.0  0.83342  0.15648  0.84095  1.0000
  C   C3178     1.0  0.83068  0.16452  0.82622  1.0000
  C   C3179     1.0  0.81696  0.16456  0.82217  1.0000
  H   H5009     1.0  0.80002  0.14282  0.85608  1.0000
  H   H5010     1.0  0.82439  0.14241  0.86309  1.0000
  H   H5011     1.0  0.83930  0.17043  0.81783  1.0000
  H   H5012     1.0  0.81522  0.17019  0.81056  1.0000
  C   C3180     1.0  0.73079  0.17919  0.78258  1.0000
  C   C3181     1.0  0.74188  0.16502  0.78356  1.0000
  C   C3182     1.0  0.73871  0.15187  0.78093  1.0000
  C   C3183     1.0  0.72429  0.15277  0.77778  1.0000
  C   C3184     1.0  0.71311  0.16683  0.77718  1.0000
  C   C3185     1.0  0.71643  0.18004  0.77938  1.0000
  H   H5013     1.0  0.75296  0.16424  0.78612  1.0000
  H   H5014     1.0  0.74736  0.14098  0.78146  1.0000
  H   H5015     1.0  0.70197  0.16761  0.77472  1.0000
  H   H5016     1.0  0.70782  0.19097  0.77863  1.0000
  C   C3186     1.0  0.80961  0.18218  0.74783  1.0000
  H   H5017     1.0  0.80798  0.17592  0.75987  1.0000
  H   H5018     1.0  0.60439  0.15657  0.79236  1.0000
  H   H5019     1.0  0.60394  0.16800  0.75014  1.0000
  H   H5020     1.0  0.84615  0.99615  0.90976  1.0000
  H   H5021     1.0  0.63587  0.16126  0.77063  1.0000
  S   S1288     1.0  0.95801  0.04593  0.82866  1.0000
  S   S1289     1.0  0.95996  0.06282  0.79146  1.0000
  H   H5022     1.0  0.80987  0.99514  0.94079  1.0000
  H   H5023     1.0  0.62238  0.18918  0.76671  1.0000
  H   H5024     1.0  0.62011  0.22826  0.79814  1.0000
  H   H5025     1.0  0.92874  0.08176  0.87697  1.0000
  S   S1290     1.0  0.67609  0.99445  0.81218  1.0000
  Fe  Fe644     1.0  0.91718  0.15334  0.95452  1.0000
  H   H5026     1.0  0.84258  0.09937  0.94328  1.0000
  C   C3187     1.0  0.79192  0.98305  0.89056  1.0000
  H   H5027     1.0  0.71722  0.99264  0.86883  1.0000
  H   H5028     1.0  0.60508  0.08921  0.97071  1.0000
  H   H5029     1.0  0.67801  0.02028  0.72853  1.0000
  H   H5030     1.0  0.74168  0.20372  0.74911  1.0000
  H   H5031     1.0  0.56977  0.21445  0.94709  1.0000
  H   H5032     1.0  0.60987  0.03941  0.91671  1.0000
  C   C3188     1.0  0.78083  0.04614  0.93391  1.0000
  N   N309      1.0  0.62138  0.03015  0.89620  1.0000
  C   C3189     1.0  0.98035  0.09430  0.75796  1.0000
  H   H5033     1.0  0.76188  0.16515  0.73956  1.0000
  C   C3190     1.0  0.94645  0.04435  0.76708  1.0000
  C   C3191     1.0  0.61848  0.03109  0.88086  1.0000
  H   H5034     1.0  0.88431  0.13754  0.97055  1.0000
  C   C3192     1.0  0.65804  0.98513  0.91684  1.0000
  H   H5035     1.0  0.74979  0.01019  0.86703  1.0000
  N   N310      1.0  0.83374  0.19288  0.87023  1.0000
  S   S1291     1.0  0.91588  0.13423  0.94426  1.0000
  S   S1292     1.0  0.73483  0.19634  0.78415  1.0000
  C   C3193     1.0  0.98570  0.07555  0.74186  1.0000
  H   H5036     1.0  0.74345  0.00160  0.89609  1.0000
  C   C3194     1.0  0.83165  0.01223  0.93230  1.0000
  H   H5037     1.0  0.66459  0.08781  0.72414  1.0000
  C   C3195     1.0  0.68077  0.01340  0.73990  1.0000
  C   C3196     1.0  0.83020  0.07581  0.96322  1.0000
  H   H5038     1.0  0.95895  0.12947  0.94295  1.0000
  C   C3197     1.0  0.96048  0.01405  0.80325  1.0000
  S   S1293     1.0  0.80685  0.20821  0.75871  1.0000
  C   C3198     1.0  0.72212  0.98842  0.87949  1.0000
  H   H5039     1.0  0.85516  0.18605  0.87833  1.0000
  C   C3199     1.0  0.63568  0.03583  0.89392  1.0000
  Fe  Fe645     1.0  0.61890  0.01127  0.95594  1.0000
  N   N311      1.0  0.96084  0.03904  0.75584  1.0000
  H   H5040     1.0  0.93579  0.04477  0.76324  1.0000
  H   H5041     1.0  0.76177  0.18457  0.76167  1.0000
  Fe  Fe646     1.0  0.97087  0.06328  0.82915  1.0000
  H   H5042     1.0  0.82919  0.99105  0.90813  1.0000
  S   S1294     1.0  0.55031  0.22557  0.89878  1.0000
  N   N312      1.0  0.76191  0.18924  0.73737  1.0000
  S   S1295     1.0  0.97981  0.09849  0.77568  1.0000
  H   H5043     1.0  0.97450  0.04989  0.76349  1.0000
  N   N313      1.0  0.97093  0.14054  0.92059  1.0000
  C   C3200     1.0  0.98009  0.08742  0.73002  1.0000
  H   H5044     1.0  0.85114  0.20409  0.85331  1.0000
  C   C3201     1.0  0.55511  0.08526  0.97081  1.0000
  H   H5045     1.0  0.81199  0.19428  0.86463  1.0000
  H   H5046     1.0  0.94598  0.03642  0.77882  1.0000
  N   N314      1.0  0.82590  0.08506  0.94841  1.0000
  H   H5047     1.0  0.59862  0.22279  0.78959  1.0000
  C   C3202     1.0  0.83463  0.07667  0.93581  1.0000
  S   S1296     1.0  0.49834  0.21748  0.75866  1.0000
  C   C3203     1.0  0.77011  0.18545  0.75017  1.0000
  H   H5048     1.0  0.55796  0.20438  0.94249  1.0000
  H   H5049     1.0  0.64837  0.10520  0.74185  1.0000
  H   H5050     1.0  0.61290  0.05639  0.96567  1.0000
  H   H5051     1.0  0.91622  0.10569  0.85836  1.0000
  H   H5052     1.0  0.83579  0.98386  0.92598  1.0000
  H   H5053     1.0  0.98450  0.14626  0.89728  1.0000
  H   H5054     1.0  0.97505  0.02984  0.77286  1.0000
  H   H5055     1.0  0.60791  0.02671  0.88207  1.0000
  C   C3204     1.0  0.60797  0.03992  0.90505  1.0000
  H   H5056     1.0  0.70530  0.08697  0.73929  1.0000
  Fe  Fe647     1.0  0.55414  0.21087  0.72521  1.0000
  H   H5057     1.0  0.93469  0.21693  0.96853  1.0000
  N   N315      1.0  0.71864  0.10262  0.82917  1.0000
  C   C3205     1.0  0.70974  0.10256  0.84538  1.0000
  C   C3206     1.0  0.71440  0.11830  0.81925  1.0000
  C   C3207     1.0  0.71490  0.09091  0.82326  1.0000
  C   C3208     1.0  0.73555  0.09870  0.82881  1.0000
  H   H5058     1.0  0.71236  0.09084  0.85312  1.0000
  H   H5059     1.0  0.69693  0.10572  0.84613  1.0000
  H   H5060     1.0  0.71254  0.11101  0.85032  1.0000
  H   H5061     1.0  0.72085  0.11882  0.80690  1.0000
  H   H5062     1.0  0.70170  0.12155  0.81932  1.0000
  H   H5063     1.0  0.71702  0.12749  0.82332  1.0000
  H   H5064     1.0  0.72105  0.09101  0.81090  1.0000
  H   H5065     1.0  0.70216  0.09319  0.82387  1.0000
  H   H5066     1.0  0.71837  0.07888  0.83017  1.0000
  H   H5067     1.0  0.73905  0.08695  0.83631  1.0000
  H   H5068     1.0  0.73879  0.10730  0.83319  1.0000
  H   H5069     1.0  0.74264  0.09855  0.81677  1.0000
  H   H5070     1.0  0.83172  0.06505  0.93818  1.0000
  C   C3209     1.0  0.82242  0.02155  0.90841  1.0000
  S   S1297     1.0  0.75665  0.19230  0.81718  1.0000
  C   C3210     1.0  0.98182  0.14464  0.92730  1.0000
  H   H5071     1.0  0.80094  0.01537  0.93484  1.0000
  H   H5072     1.0  0.62857  0.02405  0.87384  1.0000
  H   H5073     1.0  0.97471  0.11652  0.93298  1.0000
  H   H5074     1.0  0.80217  0.05384  0.92978  1.0000
  C   C3211     1.0  0.79372  0.04775  0.93828  1.0000
  Fe  Fe648     1.0  0.97253  0.07891  0.79509  1.0000
  C   C3212     1.0  0.72137  0.22512  0.87187  1.0000
  S   S1298     1.0  0.67817  0.98196  0.88883  1.0000
  C   C3213     1.0  0.81733  0.22587  0.78971  1.0000
  H   H5075     1.0  0.97141  0.11822  0.74736  1.0000
  H   H5076     1.0  0.57339  0.17148  0.95797  1.0000
  H   H5077     1.0  0.82442  0.02287  0.93658  1.0000
  H   H5078     1.0  0.92850  0.11788  0.84469  1.0000
  H   H5079     1.0  0.74575  0.98208  0.89430  1.0000
  N   N316      1.0  0.81995  0.10252  0.84238  1.0000
  C   C3214     1.0  0.80846  0.11577  0.83564  1.0000
  C   C3215     1.0  0.81251  0.08911  0.85033  1.0000
  C   C3216     1.0  0.82553  0.10719  0.85371  1.0000
  C   C3217     1.0  0.83336  0.09800  0.82981  1.0000
  H   H5080     1.0  0.81384  0.12591  0.82908  1.0000
  H   H5081     1.0  0.79844  0.11992  0.84483  1.0000
  H   H5082     1.0  0.80360  0.11259  0.82739  1.0000
  H   H5083     1.0  0.80278  0.09184  0.86036  1.0000
  H   H5084     1.0  0.80764  0.08556  0.84234  1.0000
  H   H5085     1.0  0.82105  0.07870  0.85498  1.0000
  H   H5086     1.0  0.83122  0.11728  0.84809  1.0000
  H   H5087     1.0  0.83425  0.09745  0.85897  1.0000
  H   H5088     1.0  0.81576  0.11063  0.86345  1.0000
  H   H5089     1.0  0.82960  0.09437  0.82105  1.0000
  H   H5090     1.0  0.84228  0.08803  0.83453  1.0000
  H   H5091     1.0  0.83926  0.10787  0.82360  1.0000
  C   C3218     1.0  0.80888  0.00503  0.93051  1.0000
  S   S1299     1.0  0.95554  0.08402  0.81697  1.0000
  H   H5092     1.0  0.61678  0.04334  0.87392  1.0000
  H   H5093     1.0  0.55191  0.09745  0.96536  1.0000
  S   S1300     1.0  0.56637  0.22394  0.73383  1.0000
  C   C3219     1.0  0.79557  0.04166  0.95361  1.0000
  H   H5094     1.0  0.83636  0.21179  0.87832  1.0000
  C   C3220     1.0  0.97921  0.13655  0.90538  1.0000
  C   C3221     1.0  0.97464  0.03837  0.76157  1.0000
  H   H5095     1.0  0.93876  0.00859  0.80402  1.0000
  C   C3222     1.0  0.78460  0.03384  0.96453  1.0000
  C   C3223     1.0  0.95125  0.00431  0.80277  1.0000
  H   H5096     1.0  0.62738  0.06691  0.96400  1.0000
  C   C3224     1.0  0.94702  0.21226  0.96297  1.0000
  H   H5097     1.0  0.83373  0.02484  0.90201  1.0000
  H   H5098     1.0  0.50485  0.21344  0.72694  1.0000
  H   H5099     1.0  0.80550  0.07586  0.95259  1.0000
  H   H5100     1.0  0.77941  0.05102  0.92210  1.0000
  H   H5101     1.0  0.71344  0.21682  0.87581  1.0000
  C   C3225     1.0  0.61375  0.18626  0.76210  1.0000
  Fe  Fe649     1.0  0.55472  0.21281  0.75778  1.0000
  C   C3226     1.0  0.68507  0.98800  0.75715  1.0000
  H   H5102     1.0  0.76373  0.02546  0.96833  1.0000
  C   C3227     1.0  0.82718  0.20586  0.87851  1.0000
  H   H5103     1.0  0.61449  0.17108  0.79163  1.0000
  H   H5104     1.0  0.59830  0.15470  0.76822  1.0000
  C   C3228     1.0  0.81196  0.17424  0.73597  1.0000
  N   N317      1.0  0.93974  0.10002  0.86152  1.0000
  C   C3229     1.0  0.92833  0.10571  0.85140  1.0000
  C   C3230     1.0  0.94015  0.08336  0.86901  1.0000
  C   C3231     1.0  0.93501  0.10924  0.87368  1.0000
  H   H5105     1.0  0.93449  0.12188  0.86847  1.0000
  H   H5106     1.0  0.64617  0.02829  0.88790  1.0000
  H   H5107     1.0  0.84028  0.17594  0.89031  1.0000
  H   H5108     1.0  0.74466  0.17580  0.75043  1.0000
  C   C3232     1.0  0.66999  0.09144  0.73123  1.0000
  H   H5109     1.0  0.96022  0.17041  0.96890  1.0000
  C   C3233     1.0  0.96110  0.05015  0.74057  1.0000
  H   H5110     1.0  0.61313  0.00883  0.90641  1.0000
  H   H5111     1.0  0.69217  0.01531  0.74021  1.0000
  H   H5112     1.0  0.95926  0.09489  0.84280  1.0000
  H   H5113     1.0  0.95512  0.02582  0.80488  1.0000
  H   H5114     1.0  0.81764  0.01874  0.89985  1.0000
  H   H5115     1.0  0.71213  0.98687  0.88966  1.0000
  N   N318      1.0  0.66787  0.06827  0.79173  1.0000
  C   C3234     1.0  0.65715  0.06072  0.80519  1.0000
  C   C3235     1.0  0.66316  0.06942  0.77721  1.0000
  C   C3236     1.0  0.68401  0.05887  0.79112  1.0000
  C   C3237     1.0  0.66718  0.08409  0.79344  1.0000
  H   H5116     1.0  0.66056  0.05950  0.81627  1.0000
  H   H5117     1.0  0.65723  0.04877  0.80434  1.0000
  H   H5118     1.0  0.64490  0.06766  0.80626  1.0000
  H   H5119     1.0  0.67153  0.07424  0.76677  1.0000
  H   H5120     1.0  0.66275  0.05777  0.77595  1.0000
  H   H5121     1.0  0.65144  0.07729  0.77682  1.0000
  H   H5122     1.0  0.69240  0.06420  0.78102  1.0000
  H   H5123     1.0  0.68495  0.04676  0.79003  1.0000
  H   H5124     1.0  0.68798  0.05790  0.80186  1.0000
  H   H5125     1.0  0.67498  0.09017  0.78336  1.0000
  H   H5126     1.0  0.67078  0.08367  0.80423  1.0000
  H   H5127     1.0  0.65517  0.09156  0.79403  1.0000
  C   C3238     1.0  0.75367  0.17677  0.73932  1.0000
  C   C3239     1.0  0.97666  0.00860  0.80135  1.0000
  Fe  Fe650     1.0  0.54529  0.14839  0.96015  1.0000
  C   C3240     1.0  0.66081  0.10134  0.74123  1.0000
  H   H5128     1.0  0.63785  0.03591  0.90526  1.0000
  H   H5129     1.0  0.97673  0.00017  0.85295  1.0000
  H   H5130     1.0  0.62474  0.01282  0.91697  1.0000
  H   H5131     1.0  0.98633  0.15499  0.91965  1.0000
  H   H5132     1.0  0.63396  0.00611  0.89923  1.0000
  C   C3241     1.0  0.97438  0.17842  0.94641  1.0000
  H   H5133     1.0  0.98573  0.03483  0.75320  1.0000
  C   C3242     1.0  0.95816  0.98905  0.80066  1.0000
  H   H5134     1.0  0.78676  0.99291  0.91065  1.0000
  S   S1301     1.0  0.59434  0.22156  0.87547  1.0000
  H   H5135     1.0  0.85088  0.17118  0.87189  1.0000
  H   H5136     1.0  0.96172  0.16456  0.91067  1.0000
  H   H5137     1.0  0.80533  0.09414  0.93888  1.0000
  H   H5138     1.0  0.96103  0.01464  0.76555  1.0000
  H   H5139     1.0  0.81522  0.18084  0.88257  1.0000
  H   H5140     1.0  0.59698  0.03589  0.90713  1.0000
  H   H5141     1.0  0.62582  0.14664  0.77157  1.0000
  S   S1302     1.0  0.76576  0.21651  0.78397  1.0000
  H   H5142     1.0  0.71423  0.01939  0.87136  1.0000
  H   H5143     1.0  0.55743  0.16707  0.90043  1.0000
  C   C3243     1.0  0.60013  0.16678  0.76300  1.0000
  H   H5144     1.0  0.82561  0.17583  0.86428  1.0000
  N   N319      1.0  0.57478  0.16297  0.87972  1.0000
  C   C3244     1.0  0.57753  0.16964  0.86277  1.0000
  C   C3245     1.0  0.57379  0.14647  0.88273  1.0000
  C   C3246     1.0  0.55999  0.17197  0.88763  1.0000
  C   C3247     1.0  0.58784  0.16377  0.88580  1.0000
  H   H5145     1.0  0.57818  0.18211  0.86017  1.0000
  H   H5146     1.0  0.56805  0.16907  0.85769  1.0000
  H   H5147     1.0  0.58885  0.16344  0.85646  1.0000
  H   H5148     1.0  0.57164  0.14115  0.89546  1.0000
  H   H5149     1.0  0.56410  0.14539  0.87825  1.0000
  H   H5150     1.0  0.58485  0.13935  0.87702  1.0000
  H   H5151     1.0  0.54990  0.17189  0.88316  1.0000
  H   H5152     1.0  0.56046  0.18443  0.88590  1.0000
  H   H5153     1.0  0.78895  0.21324  0.82860  1.0000
  C   C3248     1.0  0.80894  0.08724  0.94990  1.0000
  S   S1303     1.0  0.63959  0.02034  0.93995  1.0000
  H   H5154     1.0  0.72781  0.99155  0.90554  1.0000
  S   S1304     1.0  0.56042  0.15565  0.93651  1.0000
  C   C3249     1.0  0.79436  0.98404  0.90462  1.0000
  S   S1305     1.0  0.91803  0.17776  0.94100  1.0000
  S   S1306     1.0  0.56530  0.04368  0.95839  1.0000
  H   H5155     1.0  0.84290  0.07401  0.96257  1.0000
  C   C3250     1.0  0.83433  0.99424  0.91620  1.0000
  H   H5156     1.0  0.81428  0.03215  0.91210  1.0000
  C   C3251     1.0  0.82106  0.18567  0.87045  1.0000
  C   C3252     1.0  0.95767  0.15400  0.91840  1.0000
  C   C3253     1.0  0.72652  0.22299  0.84512  1.0000
  Fe  Fe651     1.0  0.75642  0.19471  0.79219  1.0000
  H   H5157     1.0  0.91383  0.21142  0.94830  1.0000
  N   N320      1.0  0.82433  0.00826  0.92185  1.0000
  H   H5158     1.0  0.55507  0.07712  0.95083  1.0000
  C   C3254     1.0  0.84552  0.18101  0.87802  1.0000
  C   C3255     1.0  0.84122  0.19898  0.85392  1.0000
  H   H5159     1.0  0.83280  0.20836  0.84786  1.0000
  C   C3256     1.0  0.75045  0.20429  0.73779  1.0000
  H   H5160     1.0  0.73332  0.21825  0.87297  1.0000
  C   C3257     1.0  0.57819  0.19215  0.97132  1.0000
  H   H5161     1.0  0.83303  0.00260  0.94273  1.0000
  Fe  Fe652     1.0  0.97501  0.04406  0.80593  1.0000
  H   H5162     1.0  0.94571  0.05630  0.76846  1.0000
  S   S1307     1.0  0.79252  0.19842  0.80408  1.0000
  H   H5163     1.0  0.49262  0.14408  0.95606  1.0000
  H   H5164     1.0  0.92320  0.10809  0.88104  1.0000
  Fe  Fe653     1.0  0.52369  0.21855  0.74842  1.0000
  H   H5165     1.0  0.55280  0.17909  0.95985  1.0000
  H   H5166     1.0  0.82357  0.10703  0.95410  1.0000
  H   H5167     1.0  0.81204  0.16188  0.73893  1.0000
  H   H5168     1.0  0.95095  0.02326  0.74991  1.0000
  C   C3258     1.0  0.71973  0.01479  0.88159  1.0000
  Fe  Fe654     1.0  0.78926  0.20038  0.78023  1.0000
  H   H5169     1.0  0.84585  0.18955  0.84720  1.0000
  N   N321      1.0  0.56489  0.19389  0.96433  1.0000
  Fe  Fe655     1.0  0.56859  0.22827  0.87640  1.0000
  H   H5170     1.0  0.77878  0.17411  0.75038  1.0000
  H   H5171     1.0  0.73865  0.21614  0.84549  1.0000
  H   H5172     1.0  0.67616  0.99241  0.76695  1.0000
  H   H5173     1.0  0.82651  0.10787  0.93370  1.0000
  C   C3259     1.0  0.56288  0.17826  0.96478  1.0000
  C   C3260     1.0  0.73712  0.99340  0.89481  1.0000
  H   H5174     1.0  0.97132  0.11213  0.72275  1.0000
  S   S1308     1.0  0.81201  0.04334  0.95872  1.0000
  Fe  Fe656     1.0  0.58369  0.02247  0.96543  1.0000
  H   H5175     1.0  0.54012  0.20349  0.96865  1.0000
  H   H5176     1.0  0.84748  0.07473  0.93440  1.0000
  H   H5177     1.0  0.80822  0.21790  0.84010  1.0000
  H   H5178     1.0  0.64060  0.98887  0.93775  1.0000
  C   C3261     1.0  0.77181  0.03207  0.96009  1.0000
  H   H5179     1.0  0.95110  0.15719  0.92967  1.0000
  C   C3262     1.0  0.77341  0.19045  0.72230  1.0000
  H   H5180     1.0  0.80305  0.00190  0.92304  1.0000
  H   H5181     1.0  0.57848  0.19637  0.94076  1.0000
  H   H5182     1.0  0.77644  0.19463  0.74910  1.0000
  H   H5183     1.0  0.71016  0.01390  0.89223  1.0000
  H   H5184     1.0  0.82948  0.22609  0.78955  1.0000
  C   C3263     1.0  0.97552  0.10631  0.74583  1.0000
  N   N322      1.0  0.68133  0.99661  0.74192  1.0000
  H   H5185     1.0  0.73914  0.00547  0.85583  1.0000
  H   H5186     1.0  0.82748  0.06404  0.96627  1.0000
  H   H5187     1.0  0.96045  0.06224  0.74152  1.0000
  H   H5188     1.0  0.97823  0.20473  0.96102  1.0000
  H   H5189     1.0  0.58010  0.20371  0.97116  1.0000
  H   H5190     1.0  0.98443  0.00143  0.83243  1.0000
  H   H5191     1.0  0.80198  0.09343  0.95935  1.0000
  H   H5192     1.0  0.82164  0.20164  0.89092  1.0000
  S   S1309     1.0  0.93843  0.14978  0.96368  1.0000
  H   H5193     1.0  0.70520  0.99172  0.72923  1.0000
  C   C3264     1.0  0.98308  0.17093  0.97064  1.0000
  H   H5194     1.0  0.98250  0.02577  0.85048  1.0000
  C   C3265     1.0  0.56793  0.20267  0.94797  1.0000
  H   H5195     1.0  0.95108  0.05072  0.73565  1.0000
  H   H5196     1.0  0.97203  0.04691  0.73186  1.0000
  H   H5197     1.0  0.67166  0.01847  0.74919  1.0000
  C   C3266     1.0  0.97339  0.21620  0.95392  1.0000
  H   H5198     1.0  0.88025  0.16940  0.72763  1.0000
  C   C3267     1.0  0.56206  0.05791  0.96916  1.0000
  H   H5199     1.0  0.66284  0.00098  0.72999  1.0000
  H   H5200     1.0  0.89727  0.11135  0.96536  1.0000
  H   H5201     1.0  0.50216  0.09902  0.96598  1.0000
  H   H5202     1.0  0.71633  0.04603  0.97087  1.0000
  H   H5203     1.0  0.75236  0.99030  0.86608  1.0000
  H   H5204     1.0  0.61116  0.22240  0.77062  1.0000
  H   H5205     1.0  0.66608  0.98208  0.74281  1.0000
  C   C3268     1.0  0.97149  0.17287  0.96255  1.0000
  H   H5206     1.0  0.81805  0.21728  0.78280  1.0000
  H   H5207     1.0  0.75626  0.21394  0.73646  1.0000
  H   H5208     1.0  0.84518  0.18176  0.72805  1.0000
  C   C3269     1.0  0.87390  0.16283  0.72385  1.0000
  H   H5209     1.0  0.58922  0.18559  0.96498  1.0000
  Fe  Fe657     1.0  0.90324  0.18490  0.96301  1.0000
  C   C3270     1.0  0.89082  0.22241  0.95932  1.0000
  H   H5210     1.0  0.81168  0.22130  0.80200  1.0000
  N   N323      1.0  0.95726  0.22279  0.96157  1.0000
  H   H5211     1.0  0.71884  0.21454  0.84820  1.0000
  H   H5212     1.0  0.74395  0.20755  0.72834  1.0000
  C   C3271     1.0  0.78719  0.22439  0.83146  1.0000
  Fe  Fe658     1.0  0.59797  0.98784  0.96761  1.0000
  S   S1310     1.0  0.88324  0.20579  0.96320  1.0000
  H   H5213     1.0  0.98141  0.22403  0.95222  1.0000
  H   H5214     1.0  0.97390  0.21423  0.94230  1.0000
  H   H5215     1.0  0.52080  0.10032  0.96781  1.0000
  C   C3272     1.0  0.79803  0.22698  0.83816  1.0000
  H   H5216     1.0  0.73309  0.03016  0.97206  1.0000
  S   S1311     1.0  0.60364  0.02660  0.97208  1.0000
  H   H5217     1.0  0.91371  0.98010  0.81890  1.0000
  H   H5218     1.0  0.80931  0.39934  0.08848  1.0000
  H   H5219     1.0  0.63512  0.28106  0.99655  1.0000
  H   H5220     1.0  0.68844  0.24842  0.98645  1.0000
  H   H5221     1.0  0.90762  0.31078  0.17612  1.0000
  H   H5222     1.0  0.66206  0.34164  0.10448  1.0000
  C   C3273     1.0  0.75931  0.23397  0.11137  1.0000
  C   C3274     1.0  0.96599  0.42917  0.03625  1.0000
  H   H5223     1.0  0.68813  0.43331  0.08048  1.0000
  C   C3275     1.0  0.54783  0.35730  0.20977  1.0000
  H   H5224     1.0  0.94305  0.43419  0.03158  1.0000
  C   C3276     1.0  0.62701  0.25460  0.99736  1.0000
  H   H5225     1.0  0.64955  0.33519  0.12286  1.0000
  H   H5226     1.0  0.58761  0.26052  0.12720  1.0000
  H   H5227     1.0  0.74936  0.23624  0.12133  1.0000
  H   H5228     1.0  0.91554  0.28909  0.20714  1.0000
  H   H5229     1.0  0.81010  0.41703  0.11151  1.0000
  H   H5230     1.0  0.87036  0.31725  0.03399  1.0000
  Fe  Fe659     1.0  0.79177  0.30776  0.06868  1.0000
  S   S1312     1.0  0.80889  0.28472  0.06865  1.0000
  S   S1313     1.0  0.77078  0.31642  0.05794  1.0000
  Fe  Fe660     1.0  0.80797  0.31865  0.08716  1.0000
  S   S1314     1.0  0.82652  0.29656  0.08885  1.0000
  S   S1315     1.0  0.80555  0.33804  0.09897  1.0000
  Fe  Fe661     1.0  0.82693  0.29893  0.06365  1.0000
  S   S1316     1.0  0.84964  0.29342  0.04634  1.0000
  Fe  Fe662     1.0  0.80693  0.28437  0.09374  1.0000
  S   S1317     1.0  0.80377  0.26463  0.11469  1.0000
  S   S1318     1.0  0.80991  0.32215  0.06155  1.0000
  S   S1319     1.0  0.78828  0.30632  0.09413  1.0000
  H   H5231     1.0  0.79240  0.41370  0.12523  1.0000
  C   C3277     1.0  0.65109  0.43012  0.09441  1.0000
  H   H5232     1.0  0.61212  0.42166  0.06867  1.0000
  C   C3278     1.0  0.63711  0.35231  0.21939  1.0000
  H   H5233     1.0  0.58439  0.45286  0.09825  1.0000
  C   C3279     1.0  0.64025  0.45584  0.08024  1.0000
  Fe  Fe663     1.0  0.68515  0.26443  0.05210  1.0000
  S   S1320     1.0  0.70673  0.26192  0.03288  1.0000
  S   S1321     1.0  0.67123  0.24631  0.06651  1.0000
  Fe  Fe664     1.0  0.68542  0.29786  0.05171  1.0000
  S   S1322     1.0  0.70682  0.29838  0.03237  1.0000
  S   S1323     1.0  0.67164  0.31747  0.06391  1.0000
  Fe  Fe665     1.0  0.69575  0.28625  0.02148  1.0000
  S   S1324     1.0  0.69575  0.29593  0.99590  1.0000
  Fe  Fe666     1.0  0.71609  0.27422  0.04531  1.0000
  S   S1325     1.0  0.74039  0.26539  0.05025  1.0000
  S   S1326     1.0  0.67342  0.28780  0.03978  1.0000
  S   S1327     1.0  0.69546  0.27462  0.06552  1.0000
  H   H5234     1.0  0.89983  0.29715  0.17145  1.0000
  Fe  Fe667     1.0  0.95139  0.39908  0.99370  1.0000
  H   H5235     1.0  0.96474  0.23213  0.97666  1.0000
  C   C3280     1.0  0.63594  0.25516  0.01959  1.0000
  H   H5236     1.0  0.81570  0.40694  0.18447  1.0000
  H   H5237     1.0  0.63003  0.25507  0.98460  1.0000
  C   C3281     1.0  0.57799  0.28291  0.19197  1.0000
  H   H5238     1.0  0.77465  0.43454  0.19534  1.0000
  C   C3282     1.0  0.82659  0.24643  0.14493  1.0000
  H   H5239     1.0  0.61814  0.44736  0.06505  1.0000
  Fe  Fe668     1.0  0.60139  0.32709  0.19624  1.0000
  H   H5240     1.0  0.56375  0.25084  0.14225  1.0000
  S   S1328     1.0  0.60730  0.34108  0.17185  1.0000
  H   H5241     1.0  0.86374  0.33226  0.00910  1.0000
  H   H5242     1.0  0.63408  0.37072  0.19151  1.0000
  H   H5243     1.0  0.66694  0.34095  0.12229  1.0000
  C   C3283     1.0  0.88085  0.30709  0.19676  1.0000
  C   C3284     1.0  0.90307  0.31940  0.00505  1.0000
  N   N324      1.0  0.64037  0.25589  0.00263  1.0000
  S   S1329     1.0  0.55655  0.26597  0.16910  1.0000
  S   S1330     1.0  0.57797  0.32091  0.20572  1.0000
  C   C3285     1.0  0.89969  0.35769  0.97362  1.0000
  H   H5244     1.0  0.68146  0.44157  0.11958  1.0000
  H   H5245     1.0  0.77579  0.24217  0.08206  1.0000
  Fe  Fe669     1.0  0.96872  0.43723  0.09356  1.0000
  C   C3286     1.0  0.60025  0.42617  0.07540  1.0000
  C   C3287     1.0  0.83273  0.37863  0.21139  1.0000
  H   H5246     1.0  0.84467  0.40106  0.17570  1.0000
  S   S1331     1.0  0.50921  0.38296  0.19406  1.0000
  H   H5247     1.0  0.84272  0.40449  0.20884  1.0000
  C   C3288     1.0  0.84531  0.39071  0.18563  1.0000
  H   H5248     1.0  0.90408  0.30843  0.00140  1.0000
  C   C3289     1.0  0.57581  0.27327  0.20688  1.0000
  S   S1332     1.0  0.94751  0.43265  0.11242  1.0000
  S   S1333     1.0  0.52369  0.24438  0.19806  1.0000
  Fe  Fe670     1.0  0.88370  0.39254  0.11293  1.0000
  S   S1334     1.0  0.87772  0.38765  0.13914  1.0000
  S   S1335     1.0  0.89506  0.41138  0.09553  1.0000
  Fe  Fe671     1.0  0.87210  0.36493  0.11158  1.0000
  S   S1336     1.0  0.86529  0.35730  0.13754  1.0000
  S   S1337     1.0  0.87071  0.35263  0.09399  1.0000
  Fe  Fe672     1.0  0.85566  0.38285  0.13714  1.0000
  S   S1338     1.0  0.83272  0.38850  0.15403  1.0000
  Fe  Fe673     1.0  0.88774  0.36253  0.13769  1.0000
  S   S1339     1.0  0.90326  0.34668  0.15357  1.0000
  S   S1340     1.0  0.86048  0.39013  0.11101  1.0000
  S   S1341     1.0  0.89567  0.36776  0.11167  1.0000
  C   C3290     1.0  0.60622  0.45116  0.07209  1.0000
  H   H5249     1.0  0.81880  0.27653  0.00705  1.0000
  H   H5250     1.0  0.79515  0.23806  0.13709  1.0000
  Fe  Fe674     1.0  0.70570  0.38650  0.11621  1.0000
  S   S1342     1.0  0.68244  0.38742  0.13299  1.0000
  S   S1343     1.0  0.72668  0.39396  0.11750  1.0000
  Fe  Fe675     1.0  0.69647  0.37263  0.09451  1.0000
  S   S1344     1.0  0.67216  0.37271  0.10898  1.0000
  S   S1345     1.0  0.70852  0.36179  0.07383  1.0000
  Fe  Fe676     1.0  0.67270  0.39637  0.11142  1.0000
  S   S1346     1.0  0.65226  0.41692  0.11224  1.0000
  Fe  Fe677     1.0  0.68378  0.36379  0.12929  1.0000
  S   S1347     1.0  0.67869  0.34298  0.14836  1.0000
  S   S1348     1.0  0.69593  0.39726  0.09485  1.0000
  S   S1349     1.0  0.70805  0.36190  0.11464  1.0000
  H   H5251     1.0  0.52169  0.33798  0.20957  1.0000
  H   H5252     1.0  0.87345  0.30557  0.20879  1.0000
  H   H5253     1.0  0.87424  0.30579  0.18885  1.0000
  Fe  Fe678     1.0  0.73064  0.45816  0.15224  1.0000
  H   H5254     1.0  0.67658  0.29749  0.13397  1.0000
  S   S1350     1.0  0.71103  0.45489  0.14397  1.0000
  Fe  Fe679     1.0  0.76479  0.45714  0.14782  1.0000
  S   S1351     1.0  0.78838  0.45275  0.13172  1.0000
  C   C3291     1.0  0.81526  0.39292  0.09821  1.0000
  S   S1352     1.0  0.75027  0.43918  0.16015  1.0000
  H   H5255     1.0  0.66134  0.33120  0.19328  1.0000
  H   H5256     1.0  0.88242  0.31933  0.19319  1.0000
  C   C3292     1.0  0.95493  0.42753  0.02913  1.0000
  C   C3293     1.0  0.68751  0.46425  0.09459  1.0000
  C   C3294     1.0  0.80224  0.30558  0.99791  1.0000
  C   C3295     1.0  0.79681  0.30585  0.02518  1.0000
  C   C3296     1.0  0.72234  0.41017  0.12601  1.0000
  C   C3297     1.0  0.70691  0.41679  0.13246  1.0000
  C   C3298     1.0  0.70357  0.43032  0.13832  1.0000
  C   C3299     1.0  0.71562  0.43724  0.13780  1.0000
  C   C3300     1.0  0.73109  0.43043  0.13169  1.0000
  C   C3301     1.0  0.73444  0.41693  0.12577  1.0000
  H   H5257     1.0  0.69754  0.41158  0.13283  1.0000
  H   H5258     1.0  0.69163  0.43541  0.14333  1.0000
  H   H5259     1.0  0.74045  0.43575  0.13122  1.0000
  H   H5260     1.0  0.74639  0.41184  0.12083  1.0000
  C   C3302     1.0  0.65766  0.43648  0.06618  1.0000
  C   C3303     1.0  0.65914  0.42578  0.08033  1.0000
  H   H5261     1.0  0.56508  0.24192  0.12659  1.0000
  H   H5262     1.0  0.78678  0.27962  0.02896  1.0000
  H   H5263     1.0  0.66379  0.43308  0.05526  1.0000
  H   H5264     1.0  0.66631  0.41413  0.08030  1.0000
  H   H5265     1.0  0.78535  0.31426  0.02484  1.0000
  H   H5266     1.0  0.82532  0.29029  0.01295  1.0000
  S   S1353     1.0  0.61455  0.30334  0.20618  1.0000
  C   C3304     1.0  0.80106  0.43552  0.13876  1.0000
  C   C3305     1.0  0.81664  0.43214  0.13063  1.0000
  C   C3306     1.0  0.82660  0.41783  0.13546  1.0000
  C   C3307     1.0  0.82095  0.40692  0.14842  1.0000
  C   C3308     1.0  0.80546  0.41041  0.15668  1.0000
  C   C3309     1.0  0.79556  0.42474  0.15193  1.0000
  H   H5267     1.0  0.82093  0.44051  0.12047  1.0000
  H   H5268     1.0  0.83859  0.41522  0.12908  1.0000
  H   H5269     1.0  0.80096  0.40190  0.16657  1.0000
  H   H5270     1.0  0.78358  0.42730  0.15828  1.0000
  C   C3310     1.0  0.89467  0.34741  0.17308  1.0000
  C   C3311     1.0  0.90391  0.34176  0.18418  1.0000
  C   C3312     1.0  0.89706  0.34153  0.19997  1.0000
  C   C3313     1.0  0.88092  0.34664  0.20474  1.0000
  C   C3314     1.0  0.87169  0.35246  0.19363  1.0000
  C   C3315     1.0  0.87857  0.35298  0.17779  1.0000
  H   H5271     1.0  0.91640  0.33764  0.18052  1.0000
  H   H5272     1.0  0.62341  0.24332  0.00340  1.0000
  H   H5273     1.0  0.85920  0.35610  0.19728  1.0000
  H   H5274     1.0  0.87137  0.35727  0.16926  1.0000
  C   C3316     1.0  0.93345  0.42620  0.10748  1.0000
  C   C3317     1.0  0.93171  0.42986  0.09210  1.0000
  C   C3318     1.0  0.91976  0.42543  0.08860  1.0000
  C   C3319     1.0  0.90982  0.41689  0.10036  1.0000
  C   C3320     1.0  0.91179  0.41295  0.11567  1.0000
  C   C3321     1.0  0.92342  0.41781  0.11925  1.0000
  H   H5275     1.0  0.93934  0.43638  0.08296  1.0000
  H   H5276     1.0  0.91825  0.42863  0.07675  1.0000
  H   H5277     1.0  0.90421  0.40636  0.12480  1.0000
  H   H5278     1.0  0.92472  0.41495  0.13116  1.0000
  H   H5279     1.0  0.92457  0.46611  0.11971  1.0000
  H   H5280     1.0  0.69473  0.30666  0.10911  1.0000
  C   C3322     1.0  0.92346  0.47906  0.11650  1.0000
  S   S1354     1.0  0.91522  0.36866  0.98845  1.0000
  H   H5281     1.0  0.82606  0.39729  0.09611  1.0000
  H   H5282     1.0  0.90477  0.27086  0.20047  1.0000
  C   C3323     1.0  0.59237  0.24933  0.12316  1.0000
  H   H5283     1.0  0.90701  0.30962  0.20346  1.0000
  C   C3324     1.0  0.81553  0.28435  0.01538  1.0000
  S   S1355     1.0  0.94841  0.37455  0.00426  1.0000
  H   H5284     1.0  0.75198  0.32816  0.08743  1.0000
  N   N325      1.0  0.80491  0.39492  0.11348  1.0000
  H   H5285     1.0  0.53993  0.47668  0.08394  1.0000
  C   C3325     1.0  0.53760  0.36627  0.20004  1.0000
  C   C3326     1.0  0.65275  0.33330  0.20421  1.0000
  H   H5286     1.0  0.66704  0.44542  0.10842  1.0000
  C   C3327     1.0  0.70648  0.43971  0.09533  1.0000
  N   N326      1.0  0.88697  0.32523  0.01338  1.0000
  H   H5287     1.0  0.54216  0.37004  0.18768  1.0000
  H   H5288     1.0  0.66403  0.24353  0.00291  1.0000
  H   H5289     1.0  0.52645  0.30462  0.19131  1.0000
  C   C3328     1.0  0.67955  0.44016  0.10865  1.0000
  C   C3329     1.0  0.62717  0.34134  0.16509  1.0000
  C   C3330     1.0  0.63173  0.35394  0.15352  1.0000
  C   C3331     1.0  0.64756  0.35460  0.14838  1.0000
  C   C3332     1.0  0.65887  0.34245  0.15454  1.0000
  C   C3333     1.0  0.65435  0.32967  0.16583  1.0000
  C   C3334     1.0  0.63850  0.32921  0.17125  1.0000
  H   H5290     1.0  0.62298  0.36337  0.14876  1.0000
  H   H5291     1.0  0.65094  0.36458  0.13976  1.0000
  H   H5292     1.0  0.66310  0.32016  0.17048  1.0000
  H   H5293     1.0  0.63508  0.31938  0.18004  1.0000
  H   H5294     1.0  0.84581  0.38046  0.18102  1.0000
  H   H5295     1.0  0.85658  0.38871  0.18907  1.0000
  C   C3335     1.0  0.56165  0.25918  0.19862  1.0000
  C   C3336     1.0  0.56395  0.26870  0.18367  1.0000
  H   H5296     1.0  0.88284  0.30217  0.02440  1.0000
  H   H5297     1.0  0.79443  0.37577  0.11583  1.0000
  Fe  Fe680     1.0  0.59087  0.29813  0.21766  1.0000
  H   H5298     1.0  0.55534  0.25001  0.20129  1.0000
  C   C3337     1.0  0.78800  0.28740  0.01714  1.0000
  C   C3338     1.0  0.83181  0.40633  0.20481  1.0000
  H   H5299     1.0  0.56024  0.35431  0.20490  1.0000
  C   C3339     1.0  0.69036  0.28529  0.98576  1.0000
  C   C3340     1.0  0.69127  0.26922  0.99110  1.0000
  H   H5300     1.0  0.88912  0.36347  0.98055  1.0000
  H   H5301     1.0  0.52280  0.29635  0.21190  1.0000
  C   C3341     1.0  0.98586  0.41119  0.02218  1.0000
  H   H5302     1.0  0.69521  0.26318  0.00175  1.0000
  H   H5303     1.0  0.74127  0.25686  0.08243  1.0000
  H   H5304     1.0  0.78420  0.39454  0.10695  1.0000
  C   C3342     1.0  0.68206  0.33027  0.06547  1.0000
  C   C3343     1.0  0.67383  0.34338  0.07177  1.0000
  C   C3344     1.0  0.68187  0.35317  0.07428  1.0000
  C   C3345     1.0  0.69820  0.35002  0.07028  1.0000
  C   C3346     1.0  0.70642  0.33713  0.06365  1.0000
  C   C3347     1.0  0.69839  0.32718  0.06137  1.0000
  H   H5305     1.0  0.66119  0.34591  0.07477  1.0000
  H   H5306     1.0  0.67545  0.36328  0.07908  1.0000
  H   H5307     1.0  0.71904  0.33471  0.06051  1.0000
  H   H5308     1.0  0.70481  0.31708  0.05655  1.0000
  H   H5309     1.0  0.80524  0.29838  0.98903  1.0000
  H   H5310     1.0  0.56562  0.25410  0.22174  1.0000
  H   H5311     1.0  0.81483  0.27689  0.02736  1.0000
  C   C3348     1.0  0.76231  0.30207  0.05623  1.0000
  C   C3349     1.0  0.76958  0.28621  0.05932  1.0000
  C   C3350     1.0  0.76294  0.27508  0.05711  1.0000
  C   C3351     1.0  0.74872  0.27968  0.05236  1.0000
  C   C3352     1.0  0.74138  0.29551  0.04950  1.0000
  C   C3353     1.0  0.74828  0.30669  0.05119  1.0000
  H   H5312     1.0  0.78040  0.28251  0.06320  1.0000
  H   H5313     1.0  0.76884  0.26292  0.05905  1.0000
  H   H5314     1.0  0.73044  0.29921  0.04585  1.0000
  H   H5315     1.0  0.74269  0.31895  0.04861  1.0000
  C   C3354     1.0  0.84594  0.31114  0.99551  1.0000
  C   C3355     1.0  0.85773  0.29831  0.99968  1.0000
  C   C3356     1.0  0.85891  0.29298  0.01533  1.0000
  C   C3357     1.0  0.84823  0.30038  0.02680  1.0000
  C   C3358     1.0  0.83663  0.31335  0.02255  1.0000
  C   C3359     1.0  0.83551  0.31875  0.00692  1.0000
  H   H5316     1.0  0.86572  0.29229  0.99093  1.0000
  H   H5317     1.0  0.86790  0.28290  0.01860  1.0000
  H   H5318     1.0  0.82858  0.31932  0.03126  1.0000
  H   H5319     1.0  0.82648  0.32879  0.00368  1.0000
  C   C3360     1.0  0.82388  0.34131  0.09808  1.0000
  C   C3361     1.0  0.82563  0.34820  0.10920  1.0000
  C   C3362     1.0  0.84006  0.35152  0.10819  1.0000
  C   C3363     1.0  0.85273  0.34799  0.09600  1.0000
  C   C3364     1.0  0.85103  0.34084  0.08506  1.0000
  C   C3365     1.0  0.83666  0.33743  0.08613  1.0000
  H   H5320     1.0  0.81587  0.35077  0.11868  1.0000
  H   H5321     1.0  0.84148  0.35672  0.11681  1.0000
  H   H5322     1.0  0.86084  0.33799  0.07569  1.0000
  H   H5323     1.0  0.83541  0.33201  0.07757  1.0000
  C   C3366     1.0  0.68747  0.31871  0.10893  1.0000
  H   H5324     1.0  0.65799  0.31014  0.13985  1.0000
  S   S1356     1.0  0.74074  0.43928  0.20594  1.0000
  H   H5325     1.0  0.69274  0.32480  0.11446  1.0000
  C   C3367     1.0  0.95922  0.41758  0.01865  1.0000
  H   H5326     1.0  0.83146  0.23755  0.11792  1.0000
  H   H5327     1.0  0.58445  0.29196  0.18930  1.0000
  C   C3368     1.0  0.64488  0.27091  0.99432  1.0000
  C   C3369     1.0  0.57208  0.28061  0.18036  1.0000
  H   H5328     1.0  0.70864  0.42686  0.09637  1.0000
  S   S1357     1.0  0.76140  0.46692  0.16879  1.0000
  H   H5329     1.0  0.88751  0.27759  0.19259  1.0000
  C   C3370     1.0  0.63864  0.35804  0.19170  1.0000
  H   H5330     1.0  0.51426  0.33126  0.19708  1.0000
  H   H5331     1.0  0.55680  0.31370  0.18876  1.0000
  C   C3371     1.0  0.90429  0.29786  0.20684  1.0000
  H   H5332     1.0  0.81542  0.24830  0.14137  1.0000
  S   S1358     1.0  0.53218  0.24079  0.16161  1.0000
  H   H5333     1.0  0.54216  0.29243  0.20013  1.0000
  C   C3372     1.0  0.75619  0.42989  0.21545  1.0000
  S   S1359     1.0  0.98407  0.44929  0.09925  1.0000
  H   H5334     1.0  0.90430  0.33745  0.20840  1.0000
  N   N327      1.0  0.67101  0.31856  0.11691  1.0000
  S   S1360     1.0  0.96792  0.45263  0.06983  1.0000
  C   C3373     1.0  0.56756  0.26147  0.21020  1.0000
  H   H5335     1.0  0.68849  0.32487  0.09651  1.0000
  H   H5336     1.0  0.79124  0.31437  0.99638  1.0000
  C   C3374     1.0  0.90564  0.29863  0.17995  1.0000
  H   H5337     1.0  0.79611  0.29881  0.03731  1.0000
  C   C3375     1.0  0.56905  0.24007  0.13752  1.0000
  H   H5338     1.0  0.80574  0.31280  0.02283  1.0000
  C   C3376     1.0  0.53129  0.30166  0.20191  1.0000
  H   H5339     1.0  0.77648  0.29567  0.01668  1.0000
  H   H5340     1.0  0.87687  0.31795  0.99876  1.0000
  C   C3377     1.0  0.66108  0.35703  0.20122  1.0000
  C   C3378     1.0  0.80351  0.24422  0.09757  1.0000
  C   C3379     1.0  0.80113  0.24719  0.11233  1.0000
  S   S1361     1.0  0.74545  0.47530  0.13828  1.0000
  H   H5341     1.0  0.65498  0.27223  0.99801  1.0000
  H   H5342     1.0  0.83093  0.25741  0.13974  1.0000
  H   H5343     1.0  0.80664  0.25295  0.08725  1.0000
  H   H5344     1.0  0.73547  0.25670  0.10282  1.0000
  C   C3380     1.0  0.87610  0.32849  0.00301  1.0000
  H   H5345     1.0  0.81170  0.31207  0.99507  1.0000
  N   N328      1.0  0.80065  0.29579  0.01389  1.0000
  C   C3381     1.0  0.64810  0.45147  0.06612  1.0000
  H   H5346     1.0  0.90679  0.32810  0.99433  1.0000
  H   H5347     1.0  0.89038  0.31048  0.03559  1.0000
  Fe  Fe681     1.0  0.51305  0.23665  0.18295  1.0000
  H   H5348     1.0  0.55240  0.30198  0.21712  1.0000
  H   H5349     1.0  0.85804  0.24050  0.14055  1.0000
  H   H5350     1.0  0.62330  0.42638  0.08821  1.0000
  C   C3382     1.0  0.76767  0.23444  0.08383  1.0000
  C   C3383     1.0  0.95131  0.47592  0.11219  1.0000
  C   C3384     1.0  0.84198  0.23579  0.12257  1.0000
  S   S1362     1.0  0.64607  0.46445  0.04829  1.0000
  H   H5351     1.0  0.96257  0.43694  0.04422  1.0000
  H   H5352     1.0  0.59243  0.43130  0.06701  1.0000
  C   C3385     1.0  0.67108  0.23444  0.04201  1.0000
  C   C3386     1.0  0.88624  0.33972  0.01805  1.0000
  C   C3387     1.0  0.54552  0.32228  0.19108  1.0000
  H   H5353     1.0  0.65731  0.24292  0.98656  1.0000
  H   H5354     1.0  0.83198  0.36843  0.20744  1.0000
  H   H5355     1.0  0.67520  0.47045  0.09422  1.0000
  H   H5356     1.0  0.57629  0.44890  0.08452  1.0000
  N   N329      1.0  0.75401  0.23741  0.09670  1.0000
  N   N330      1.0  0.83810  0.23283  0.13978  1.0000
  H   H5357     1.0  0.79024  0.28000  0.00860  1.0000
  H   H5358     1.0  0.79573  0.42245  0.21002  1.0000
  C   C3388     1.0  0.77180  0.42943  0.20767  1.0000
  H   H5359     1.0  0.64585  0.25591  0.02399  1.0000
  N   N331      1.0  0.60056  0.43788  0.08361  1.0000
  H   H5360     1.0  0.58591  0.24503  0.15450  1.0000
  H   H5361     1.0  0.91730  0.29047  0.17899  1.0000
  H   H5362     1.0  0.75352  0.26201  0.09156  1.0000
  C   C3389     1.0  0.64173  0.44517  0.09436  1.0000
  H   H5363     1.0  0.80670  0.39684  0.20327  1.0000
  H   H5364     1.0  0.66804  0.35125  0.21031  1.0000
  H   H5365     1.0  0.65843  0.32679  0.21414  1.0000
  C   C3390     1.0  0.65370  0.24283  0.99924  1.0000
  C   C3391     1.0  0.54121  0.31088  0.21869  1.0000
  H   H5366     1.0  0.63244  0.36489  0.21965  1.0000
  H   H5367     1.0  0.82379  0.24480  0.15783  1.0000
  H   H5368     1.0  0.61669  0.26424  0.99974  1.0000
  C   C3392     1.0  0.61114  0.43064  0.09450  1.0000
  H   H5369     1.0  0.68138  0.42740  0.10944  1.0000
  H   H5370     1.0  0.52887  0.41482  0.21542  1.0000
  H   H5371     1.0  0.59832  0.45702  0.06389  1.0000
  H   H5372     1.0  0.63316  0.46746  0.08031  1.0000
  H   H5373     1.0  0.71472  0.44442  0.08469  1.0000
  H   H5374     1.0  0.65200  0.31031  0.11476  1.0000
  C   C3393     1.0  0.66196  0.33479  0.11661  1.0000
  C   C3394     1.0  0.67029  0.30992  0.13326  1.0000
  C   C3395     1.0  0.52160  0.37083  0.20631  1.0000
  N   N332      1.0  0.89608  0.29581  0.19602  1.0000
  H   H5375     1.0  0.76364  0.33875  0.10272  1.0000
  H   H5376     1.0  0.79309  0.41843  0.10471  1.0000
  H   H5377     1.0  0.61158  0.43912  0.10096  1.0000
  H   H5378     1.0  0.69442  0.45104  0.06982  1.0000
  N   N333      1.0  0.64739  0.35018  0.20413  1.0000
  H   H5379     1.0  0.69522  0.47018  0.08426  1.0000
  H   H5380     1.0  0.49813  0.47089  0.17420  1.0000
  S   S1363     1.0  0.59992  0.33786  0.21595  1.0000
  H   H5381     1.0  0.91162  0.31695  0.01247  1.0000
  H   H5382     1.0  0.56416  0.23036  0.14604  1.0000
  S   S1364     1.0  0.94487  0.41558  0.01020  1.0000
  C   C3396     1.0  0.98155  0.42112  0.03269  1.0000
  C   C3397     1.0  0.81716  0.39589  0.19348  1.0000
  H   H5383     1.0  0.77342  0.47159  0.21031  1.0000
  C   C3398     1.0  0.97472  0.40930  0.01530  1.0000
  H   H5384     1.0  0.76761  0.24127  0.11044  1.0000
  C   C3399     1.0  0.58464  0.44359  0.09238  1.0000
  S   S1365     1.0  0.97518  0.39213  0.97871  1.0000
  H   H5385     1.0  0.87873  0.33786  0.99256  1.0000
  C   C3400     1.0  0.88248  0.31327  0.02744  1.0000
  H   H5386     1.0  0.82298  0.38018  0.22175  1.0000
  H   H5387     1.0  0.54079  0.32590  0.18036  1.0000
  H   H5388     1.0  0.60676  0.46016  0.07787  1.0000
  S   S1366     1.0  0.72423  0.46802  0.17351  1.0000
  H   H5389     1.0  0.96218  0.47878  0.10391  1.0000
  Fe  Fe682     1.0  0.97139  0.36769  0.98810  1.0000
  H   H5390     1.0  0.98206  0.36494  0.20566  1.0000
  N   N334      1.0  0.83176  0.39289  0.19882  1.0000
  H   H5391     1.0  0.63240  0.24399  0.02620  1.0000
  S   S1367     1.0  0.84335  0.31734  0.97635  1.0000
  H   H5392     1.0  0.67571  0.31518  0.13945  1.0000
  S   S1368     1.0  0.58329  0.27560  0.22160  1.0000
  H   H5393     1.0  0.51098  0.32276  0.21763  1.0000
  C   C3401     1.0  0.93974  0.47749  0.09100  1.0000
  H   H5394     1.0  0.66433  0.31739  0.09662  1.0000
  H   H5395     1.0  0.67438  0.45175  0.07966  1.0000
  H   H5396     1.0  0.78308  0.38965  0.12757  1.0000
  C   C3402     1.0  0.79104  0.38844  0.11607  1.0000
  S   S1369     1.0  0.93849  0.40219  0.97492  1.0000
  H   H5397     1.0  0.67114  0.29879  0.10836  1.0000
  C   C3403     1.0  0.66432  0.31090  0.10887  1.0000
  C   C3404     1.0  0.51968  0.32738  0.20738  1.0000
  H   H5398     1.0  0.83091  0.41732  0.19566  1.0000
  C   C3405     1.0  0.79989  0.41174  0.11373  1.0000
  H   H5399     1.0  0.59599  0.41598  0.08372  1.0000
  H   H5400     1.0  0.81904  0.38040  0.09748  1.0000
  H   H5401     1.0  0.62850  0.35283  0.19321  1.0000
  Fe  Fe683     1.0  0.74519  0.45057  0.18039  1.0000
  H   H5402     1.0  0.76288  0.35930  0.09851  1.0000
  C   C3406     1.0  0.59082  0.23430  0.14963  1.0000
  N   N335      1.0  0.69005  0.44748  0.09478  1.0000
  H   H5403     1.0  0.65748  0.36974  0.20119  1.0000
  H   H5404     1.0  0.68135  0.23906  0.03580  1.0000
  H   H5405     1.0  0.62599  0.26490  0.02260  1.0000
  H   H5406     1.0  0.88990  0.34892  0.00779  1.0000
  H   H5407     1.0  0.89712  0.29645  0.21897  1.0000
  H   H5408     1.0  0.64283  0.32793  0.20537  1.0000
  C   C3407     1.0  0.79729  0.23572  0.12565  1.0000
  C   C3408     1.0  0.76418  0.47374  0.20376  1.0000
  H   H5409     1.0  0.87420  0.34461  0.02413  1.0000
  H   H5410     1.0  0.58006  0.43400  0.10145  1.0000
  H   H5411     1.0  0.89415  0.33762  0.02605  1.0000
  C   C3409     1.0  0.89352  0.27970  0.20057  1.0000
  H   H5412     1.0  0.57389  0.28799  0.16879  1.0000
  H   H5413     1.0  0.60736  0.42046  0.10329  1.0000
  H   H5414     1.0  0.58910  0.25112  0.11185  1.0000
  Fe  Fe684     1.0  0.54377  0.24628  0.17748  1.0000
  H   H5415     1.0  0.63560  0.44859  0.10527  1.0000
  C   C3410     1.0  0.81348  0.38659  0.12596  1.0000
  H   H5416     1.0  0.80626  0.38826  0.13762  1.0000
  H   H5417     1.0  0.81705  0.37381  0.12652  1.0000
  H   H5418     1.0  0.82431  0.39081  0.12410  1.0000
  N   N336      1.0  0.92481  0.39245  0.05808  1.0000
  C   C3411     1.0  0.91224  0.38370  0.06531  1.0000
  C   C3412     1.0  0.91784  0.40906  0.05234  1.0000
  C   C3413     1.0  0.93548  0.38588  0.04488  1.0000
  C   C3414     1.0  0.93367  0.39121  0.06977  1.0000
  H   H5419     1.0  0.91700  0.37115  0.07003  1.0000
  H   H5420     1.0  0.90539  0.38428  0.05679  1.0000
  H   H5421     1.0  0.90389  0.38854  0.07520  1.0000
  H   H5422     1.0  0.90958  0.41437  0.06196  1.0000
  H   H5423     1.0  0.92697  0.41602  0.04696  1.0000
  H   H5424     1.0  0.91131  0.41048  0.04327  1.0000
  H   H5425     1.0  0.94538  0.39190  0.03955  1.0000
  H   H5426     1.0  0.92937  0.38731  0.03545  1.0000
  H   H5427     1.0  0.94053  0.37321  0.04860  1.0000
  H   H5428     1.0  0.93948  0.37888  0.07403  1.0000
  H   H5429     1.0  0.92587  0.39557  0.08012  1.0000
  H   H5430     1.0  0.94286  0.39819  0.06489  1.0000
  H   H5431     1.0  0.94120  0.46455  0.09371  1.0000
  Fe  Fe685     1.0  0.98450  0.46378  0.07506  1.0000
  H   H5432     1.0  0.64841  0.27178  0.98148  1.0000
  H   H5433     1.0  0.95295  0.46295  0.11550  1.0000
  N   N337      1.0  0.75358  0.35214  0.08313  1.0000
  C   C3415     1.0  0.74409  0.36791  0.07820  1.0000
  C   C3416     1.0  0.76868  0.34990  0.07177  1.0000
  C   C3417     1.0  0.74513  0.34023  0.08385  1.0000
  C   C3418     1.0  0.75645  0.35052  0.09867  1.0000
  H   H5434     1.0  0.73265  0.37002  0.08656  1.0000
  H   H5435     1.0  0.74147  0.36939  0.06664  1.0000
  H   H5436     1.0  0.75012  0.37722  0.07742  1.0000
  H   H5437     1.0  0.77610  0.33813  0.07518  1.0000
  H   H5438     1.0  0.76697  0.35082  0.05995  1.0000
  H   H5439     1.0  0.77544  0.35864  0.07089  1.0000
  H   H5440     1.0  0.74280  0.34112  0.07228  1.0000
  H   H5441     1.0  0.73361  0.34162  0.09220  1.0000
  H   H5442     1.0  0.74531  0.35222  0.10755  1.0000
  C   C3419     1.0  0.98170  0.35233  0.20881  1.0000
  H   H5443     1.0  0.82179  0.40823  0.21485  1.0000
  H   H5444     1.0  0.70971  0.44144  0.10548  1.0000
  Fe  Fe686     1.0  0.93767  0.37680  0.98432  1.0000
  H   H5445     1.0  0.76387  0.46224  0.20205  1.0000
  H   H5446     1.0  0.54813  0.33281  0.19282  1.0000
  C   C3420     1.0  0.68738  0.26092  0.98247  1.0000
  C   C3421     1.0  0.74571  0.25397  0.09326  1.0000
  N   N338      1.0  0.53442  0.31554  0.20477  1.0000
  H   H5447     1.0  0.69001  0.46589  0.10520  1.0000
  C   C3422     1.0  0.68662  0.44582  0.08056  1.0000
  H   H5448     1.0  0.88622  0.27729  0.21260  1.0000
  H   H5449     1.0  0.81709  0.38634  0.18814  1.0000
  H   H5450     1.0  0.59072  0.47727  0.99055  1.0000
  H   H5451     1.0  0.84397  0.37556  0.21518  1.0000
  H   H5452     1.0  0.60534  0.24699  0.12086  1.0000
  C   C3423     1.0  0.78373  0.42245  0.21597  1.0000
  C   C3424     1.0  0.66369  0.23676  0.05703  1.0000
  N   N339      1.0  0.58625  0.23636  0.13481  1.0000
  H   H5453     1.0  0.98250  0.34873  0.19790  1.0000
  H   H5454     1.0  0.54370  0.32108  0.22124  1.0000
  H   H5455     1.0  0.66902  0.35572  0.18971  1.0000
  H   H5456     1.0  0.97815  0.40160  0.00728  1.0000
  H   H5457     1.0  0.84674  0.24653  0.11729  1.0000
  H   H5458     1.0  0.60373  0.23161  0.14808  1.0000
  H   H5459     1.0  0.76405  0.23658  0.07264  1.0000
  H   H5460     1.0  0.64620  0.35702  0.18001  1.0000
  H   H5461     1.0  0.97004  0.35120  0.21649  1.0000
  H   H5462     1.0  0.73569  0.47195  0.20209  1.0000
  C   C3425     1.0  0.91430  0.35830  0.97529  1.0000
  H   H5463     1.0  0.64483  0.23226  0.07675  1.0000
  S   S1370     1.0  0.48723  0.24691  0.18460  1.0000
  H   H5464     1.0  0.65078  0.23130  0.00543  1.0000
  C   C3426     1.0  0.85240  0.23031  0.14548  1.0000
  C   C3427     1.0  0.65055  0.23049  0.06512  1.0000
  C   C3428     1.0  0.51578  0.36584  0.22226  1.0000
  H   H5465     1.0  0.62699  0.34673  0.22218  1.0000
  Fe  Fe687     1.0  0.68580  0.34544  0.29370  1.0000
  S   S1371     1.0  0.68601  0.33271  0.31837  1.0000
  S   S1372     1.0  0.70550  0.35642  0.27789  1.0000
  Fe  Fe688     1.0  0.65325  0.34123  0.29589  1.0000
  S   S1373     1.0  0.65064  0.32854  0.32101  1.0000
  C   C3429     1.0  0.49241  0.44651  0.26031  1.0000
  Fe  Fe689     1.0  0.66146  0.34656  0.32367  1.0000
  S   S1374     1.0  0.65495  0.35787  0.34410  1.0000
  Fe  Fe690     1.0  0.67535  0.31586  0.31342  1.0000
  S   S1375     1.0  0.68491  0.29003  0.32083  1.0000
  S   S1376     1.0  0.66186  0.36055  0.29930  1.0000
  S   S1377     1.0  0.67730  0.32723  0.28803  1.0000
  H   H5466     1.0  0.76111  0.25520  0.43808  1.0000
  Fe  Fe691     1.0  0.59262  0.44327  0.37685  1.0000
  S   S1378     1.0  0.56861  0.45214  0.39004  1.0000
  S   S1379     1.0  0.61116  0.45647  0.37322  1.0000
  Fe  Fe692     1.0  0.58227  0.41953  0.36669  1.0000
  S   S1380     1.0  0.55722  0.42643  0.37908  1.0000
  S   S1381     1.0  0.58806  0.40304  0.35059  1.0000
  Fe  Fe693     1.0  0.56044  0.45102  0.36962  1.0000
  H   H5467     1.0  0.61592  0.29279  0.32079  1.0000
  Fe  Fe694     1.0  0.56764  0.42680  0.39844  1.0000
  S   S1382     1.0  0.55827  0.41885  0.42412  1.0000
  S   S1383     1.0  0.58459  0.44415  0.35567  1.0000
  S   S1384     1.0  0.59254  0.41785  0.38688  1.0000
  H   H5468     1.0  0.53985  0.41225  0.34202  1.0000
  S   S1385     1.0  0.52726  0.36051  0.44643  1.0000
  H   H5469     1.0  0.71803  0.36693  0.32217  1.0000
  H   H5470     1.0  0.78412  0.46794  0.33884  1.0000
  H   H5471     1.0  0.59873  0.36015  0.46495  1.0000
  H   H5472     1.0  0.67727  0.30368  0.36746  1.0000
  Fe  Fe695     1.0  0.85397  0.32264  0.40781  1.0000
  S   S1386     1.0  0.82821  0.32477  0.41140  1.0000
  S   S1387     1.0  0.86382  0.32383  0.42742  1.0000
  Fe  Fe696     1.0  0.86122  0.31392  0.37633  1.0000
  S   S1388     1.0  0.83611  0.31533  0.37723  1.0000
  S   S1389     1.0  0.88073  0.30588  0.35690  1.0000
  Fe  Fe697     1.0  0.83161  0.33701  0.38621  1.0000
  S   S1390     1.0  0.81318  0.35771  0.37868  1.0000
  Fe  Fe698     1.0  0.83478  0.30300  0.40219  1.0000
  S   S1391     1.0  0.82271  0.28303  0.41397  1.0000
  S   S1392     1.0  0.85692  0.33686  0.38318  1.0000
  S   S1393     1.0  0.86034  0.29962  0.40072  1.0000
  Fe  Fe699     1.0  0.92626  0.38326  0.45492  1.0000
  C   C3430     1.0  0.59981  0.24168  0.25356  1.0000
  Fe  Fe700     1.0  0.89921  0.38245  0.44161  1.0000
  H   H5473     1.0  0.57374  0.41072  0.32390  1.0000
  S   S1394     1.0  0.88896  0.38385  0.42141  1.0000
  H   H5474     1.0  0.74643  0.29514  0.44646  1.0000
  C   C3431     1.0  0.97935  0.41080  0.45900  1.0000
  H   H5475     1.0  0.65979  0.29535  0.28872  1.0000
  S   S1395     1.0  0.90882  0.40207  0.44292  1.0000
  S   S1396     1.0  0.91800  0.36376  0.45124  1.0000
  H   H5476     1.0  0.73305  0.47640  0.23441  1.0000
  Fe  Fe701     1.0  0.88106  0.31030  0.27410  1.0000
  S   S1397     1.0  0.90573  0.29617  0.27247  1.0000
  S   S1398     1.0  0.86060  0.31233  0.29447  1.0000
  Fe  Fe702     1.0  0.88679  0.32726  0.24016  1.0000
  Fe  Fe703     1.0  0.90320  0.29331  0.24963  1.0000
  H   H5477     1.0  0.50344  0.36897  0.22715  1.0000
  Fe  Fe704     1.0  0.91268  0.31857  0.25821  1.0000
  H   H5478     1.0  0.64906  0.27242  0.31955  1.0000
  S   S1399     1.0  0.87796  0.30556  0.25258  1.0000
  S   S1400     1.0  0.88818  0.33287  0.26186  1.0000
  H   H5479     1.0  0.88392  0.44344  0.42512  1.0000
  H   H5480     1.0  0.57211  0.43241  0.33563  1.0000
  C   C3432     1.0  0.68327  0.39450  0.29980  1.0000
  C   C3433     1.0  0.63276  0.31963  0.24954  1.0000
  H   H5481     1.0  0.55463  0.44736  0.33786  1.0000
  S   S1401     1.0  0.91303  0.27118  0.24036  1.0000
  H   H5482     1.0  0.85811  0.47542  0.45163  1.0000
  H   H5483     1.0  0.59949  0.25259  0.24426  1.0000
  H   H5484     1.0  0.70507  0.35440  0.31015  1.0000
  H   H5485     1.0  0.66957  0.24089  0.34833  1.0000
  H   H5486     1.0  0.74052  0.42349  0.23744  1.0000
  C   C3434     1.0  0.56913  0.39244  0.46558  1.0000
  H   H5487     1.0  0.63127  0.29684  0.32666  1.0000
  C   C3435     1.0  0.64665  0.31839  0.25390  1.0000
  H   H5488     1.0  0.75343  0.46912  0.23473  1.0000
  H   H5489     1.0  0.64348  0.34692  0.22899  1.0000
  C   C3436     1.0  0.65107  0.29948  0.29878  1.0000
  H   H5490     1.0  0.56479  0.40279  0.45681  1.0000
  H   H5491     1.0  0.69266  0.38394  0.32745  1.0000
  H   H5492     1.0  0.97395  0.28508  0.25455  1.0000
  H   H5493     1.0  0.95823  0.42875  0.45829  1.0000
  S   S1402     1.0  0.77646  0.44691  0.36874  1.0000
  C   C3437     1.0  0.72607  0.47920  0.43047  1.0000
  Fe  Fe705     1.0  0.76009  0.39645  0.29714  1.0000
  S   S1403     1.0  0.78054  0.38133  0.28409  1.0000
  S   S1404     1.0  0.73730  0.38910  0.30930  1.0000
  Fe  Fe706     1.0  0.77868  0.42007  0.29538  1.0000
  S   S1405     1.0  0.80061  0.40680  0.28224  1.0000
  S   S1406     1.0  0.77975  0.44277  0.30003  1.0000
  Fe  Fe707     1.0  0.78529  0.40404  0.26835  1.0000
  S   S1407     1.0  0.79499  0.40684  0.24233  1.0000
  Fe  Fe708     1.0  0.79400  0.38543  0.29903  1.0000
  S   S1408     1.0  0.81301  0.36621  0.30805  1.0000
  S   S1409     1.0  0.76362  0.41904  0.28019  1.0000
  S   S1410     1.0  0.77332  0.39885  0.31335  1.0000
  C   C3438     1.0  0.77640  0.44642  0.34971  1.0000
  C   C3439     1.0  0.77244  0.43369  0.34721  1.0000
  C   C3440     1.0  0.77325  0.43253  0.33202  1.0000
  C   C3441     1.0  0.77802  0.44410  0.31927  1.0000
  C   C3442     1.0  0.78172  0.45697  0.32183  1.0000
  C   C3443     1.0  0.78095  0.45812  0.33702  1.0000
  H   H5494     1.0  0.76890  0.42461  0.35702  1.0000
  H   H5495     1.0  0.77017  0.42269  0.33019  1.0000
  H   H5496     1.0  0.55782  0.41036  0.31625  1.0000
  H   H5497     1.0  0.53337  0.43157  0.31869  1.0000
  H   H5498     1.0  0.65640  0.38530  0.31581  1.0000
  S   S1411     1.0  0.50387  0.45888  0.26066  1.0000
  C   C3444     1.0  0.71335  0.47647  0.38780  1.0000
  H   H5499     1.0  0.78902  0.27984  0.43326  1.0000
  Fe  Fe709     1.0  0.61153  0.31367  0.22673  1.0000
  H   H5500     1.0  0.63077  0.47216  0.37983  1.0000
  H   H5501     1.0  0.83584  0.33348  0.27108  1.0000
  C   C3445     1.0  0.50528  0.46137  0.34396  1.0000
  C   C3446     1.0  0.76448  0.41614  0.23962  1.0000
  H   H5502     1.0  0.95660  0.33831  0.26524  1.0000
  H   H5503     1.0  0.98201  0.32435  0.22825  1.0000
  H   H5504     1.0  0.76154  0.41079  0.25187  1.0000
  C   C3447     1.0  0.64338  0.27475  0.30961  1.0000
  H   H5505     1.0  0.88777  0.41998  0.41388  1.0000
  C   C3448     1.0  0.95515  0.40719  0.45549  1.0000
  C   C3449     1.0  0.97783  0.38578  0.45581  1.0000
  C   C3450     1.0  0.62612  0.29841  0.31653  1.0000
  H   H5506     1.0  0.90362  0.43108  0.45716  1.0000
  H   H5507     1.0  0.60110  0.25703  0.42930  1.0000
  H   H5508     1.0  0.56992  0.24821  0.26902  1.0000
  H   H5509     1.0  0.68104  0.37206  0.32531  1.0000
  H   H5510     1.0  0.87804  0.33843  0.47159  1.0000
  H   H5511     1.0  0.62169  0.31123  0.31254  1.0000
  H   H5512     1.0  0.84197  0.41339  0.34019  1.0000
  C   C3451     1.0  0.94954  0.31962  0.26077  1.0000
  H   H5513     1.0  0.48788  0.43717  0.28507  1.0000
  H   H5514     1.0  0.54531  0.44553  0.30831  1.0000
  C   C3452     1.0  0.96036  0.32668  0.26290  1.0000
  H   H5515     1.0  0.53875  0.42781  0.35093  1.0000
  C   C3453     1.0  0.95445  0.30460  0.25779  1.0000
  C   C3454     1.0  0.88425  0.26370  0.24703  1.0000
  S   S1412     1.0  0.56688  0.25589  0.46489  1.0000
  Fe  Fe710     1.0  0.49335  0.47168  0.28017  1.0000
  H   H5516     1.0  0.94618  0.29905  0.25615  1.0000
  H   H5517     1.0  0.49500  0.45337  0.23542  1.0000
  C   C3455     1.0  0.52100  0.40361  0.25494  1.0000
  H   H5518     1.0  0.87970  0.27319  0.25306  1.0000
  C   C3456     1.0  0.89596  0.45569  0.44767  1.0000
  C   C3457     1.0  0.88316  0.46839  0.44662  1.0000
  H   H5519     1.0  0.58707  0.36632  0.44235  1.0000
  H   H5520     1.0  0.57089  0.25536  0.24852  1.0000
  H   H5521     1.0  0.76390  0.27885  0.46377  1.0000
  H   H5522     1.0  0.55918  0.38668  0.47197  1.0000
  H   H5523     1.0  0.81912  0.42385  0.35963  1.0000
  H   H5524     1.0  0.76780  0.26801  0.42008  1.0000
  C   C3458     1.0  0.96227  0.39175  0.45429  1.0000
  H   H5525     1.0  0.84351  0.36393  0.28577  1.0000
  H   H5526     1.0  0.85519  0.33515  0.26056  1.0000
  C   C3459     1.0  0.81297  0.35973  0.35920  1.0000
  C   C3460     1.0  0.82651  0.35402  0.34889  1.0000
  C   C3461     1.0  0.82648  0.35630  0.33313  1.0000
  C   C3462     1.0  0.81285  0.36406  0.32770  1.0000
  C   C3463     1.0  0.79928  0.36965  0.33806  1.0000
  C   C3464     1.0  0.79939  0.36765  0.35377  1.0000
  H   H5527     1.0  0.83712  0.34822  0.35302  1.0000
  H   H5528     1.0  0.83709  0.35228  0.32510  1.0000
  H   H5529     1.0  0.78862  0.37529  0.33409  1.0000
  H   H5530     1.0  0.78889  0.37206  0.36176  1.0000
  C   C3465     1.0  0.87472  0.30716  0.33992  1.0000
  C   C3466     1.0  0.88398  0.29794  0.32930  1.0000
  C   C3467     1.0  0.87985  0.29958  0.31519  1.0000
  C   C3468     1.0  0.86624  0.31021  0.31186  1.0000
  C   C3469     1.0  0.85688  0.31921  0.32257  1.0000
  C   C3470     1.0  0.86113  0.31776  0.33655  1.0000
  H   H5531     1.0  0.89429  0.28943  0.33206  1.0000
  H   H5532     1.0  0.88697  0.29238  0.30707  1.0000
  H   H5533     1.0  0.84652  0.32755  0.31987  1.0000
  H   H5534     1.0  0.85409  0.32505  0.34458  1.0000
  Fe  Fe711     1.0  0.89320  0.40009  0.46684  1.0000
  C   C3471     1.0  0.87155  0.34030  0.42481  1.0000
  C   C3472     1.0  0.88108  0.33994  0.43458  1.0000
  C   C3473     1.0  0.88653  0.35322  0.43352  1.0000
  C   C3474     1.0  0.88262  0.36693  0.42255  1.0000
  C   C3475     1.0  0.87335  0.36723  0.41255  1.0000
  C   C3476     1.0  0.86778  0.35396  0.41370  1.0000
  H   H5535     1.0  0.88438  0.32932  0.44294  1.0000
  H   H5536     1.0  0.89388  0.35281  0.44112  1.0000
  H   H5537     1.0  0.87033  0.37778  0.40400  1.0000
  H   H5538     1.0  0.86039  0.35438  0.40615  1.0000
  H   H5539     1.0  0.85260  0.33585  0.45740  1.0000
  H   H5540     1.0  0.59045  0.25248  0.41799  1.0000
  H   H5541     1.0  0.69420  0.28957  0.38589  1.0000
  H   H5542     1.0  0.81474  0.28127  0.44729  1.0000
  H   H5543     1.0  0.53109  0.40672  0.25698  1.0000
  C   C3477     1.0  0.81053  0.28068  0.40338  1.0000
  H   H5544     1.0  0.86195  0.25756  0.25198  1.0000
  H   H5545     1.0  0.62630  0.23929  0.43413  1.0000
  C   C3478     1.0  0.54068  0.43880  0.32007  1.0000
  Fe  Fe712     1.0  0.48820  0.47151  0.31421  1.0000
  S   S1413     1.0  0.76368  0.24175  0.36766  1.0000
  C   C3479     1.0  0.70630  0.27542  0.35284  1.0000
  H   H5546     1.0  0.69232  0.24187  0.37291  1.0000
  H   H5547     1.0  0.73498  0.46439  0.40452  1.0000
  H   H5548     1.0  0.52770  0.44740  0.37106  1.0000
  C   C3480     1.0  0.54798  0.40391  0.42936  1.0000
  C   C3481     1.0  0.54879  0.39504  0.41881  1.0000
  C   C3482     1.0  0.54200  0.38192  0.42393  1.0000
  C   C3483     1.0  0.53471  0.37753  0.43964  1.0000
  C   C3484     1.0  0.53377  0.38656  0.45007  1.0000
  C   C3485     1.0  0.54013  0.39985  0.44489  1.0000
  H   H5549     1.0  0.55499  0.39801  0.40684  1.0000
  H   H5550     1.0  0.54282  0.37493  0.41583  1.0000
  H   H5551     1.0  0.52816  0.38335  0.46216  1.0000
  H   H5552     1.0  0.53918  0.40686  0.45302  1.0000
  C   C3486     1.0  0.61949  0.45267  0.38931  1.0000
  C   C3487     1.0  0.62885  0.46238  0.38950  1.0000
  C   C3488     1.0  0.63584  0.45943  0.40212  1.0000
  C   C3489     1.0  0.63366  0.44663  0.41449  1.0000
  C   C3490     1.0  0.62424  0.43694  0.41437  1.0000
  C   C3491     1.0  0.61703  0.44004  0.40183  1.0000
  C   C3492     1.0  0.89367  0.44075  0.45596  1.0000
  S   S1414     1.0  0.81820  0.47401  0.40201  1.0000
  H   H5553     1.0  0.57381  0.38457  0.43773  1.0000
  H   H5554     1.0  0.60980  0.43253  0.40173  1.0000
  H   H5555     1.0  0.49109  0.33338  0.44882  1.0000
  H   H5556     1.0  0.61422  0.24999  0.39628  1.0000
  S   S1415     1.0  0.50724  0.47777  0.29347  1.0000
  H   H5557     1.0  0.67047  0.42166  0.30916  1.0000
  S   S1416     1.0  0.63297  0.30869  0.23644  1.0000
  C   C3493     1.0  0.63638  0.37040  0.34585  1.0000
  C   C3494     1.0  0.62655  0.37121  0.33626  1.0000
  C   C3495     1.0  0.61173  0.38130  0.33779  1.0000
  C   C3496     1.0  0.60679  0.39073  0.34876  1.0000
  C   C3497     1.0  0.61676  0.39013  0.35812  1.0000
  C   C3498     1.0  0.63151  0.37991  0.35673  1.0000
  H   H5558     1.0  0.63027  0.36393  0.32780  1.0000
  H   H5559     1.0  0.60407  0.38173  0.33051  1.0000
  H   H5560     1.0  0.61307  0.39739  0.36656  1.0000
  H   H5561     1.0  0.63913  0.37935  0.36411  1.0000
  C   C3499     1.0  0.67200  0.27889  0.33406  1.0000
  C   C3500     1.0  0.65721  0.28599  0.34157  1.0000
  C   C3501     1.0  0.64665  0.27679  0.35110  1.0000
  H   H5562     1.0  0.68241  0.30034  0.34813  1.0000
  H   H5563     1.0  0.65381  0.29852  0.33997  1.0000
  H   H5564     1.0  0.63507  0.28232  0.35659  1.0000
  H   H5565     1.0  0.67592  0.28553  0.36432  1.0000
  C   C3502     1.0  0.63305  0.33662  0.27076  1.0000
  C   C3503     1.0  0.64684  0.32697  0.26439  1.0000
  H   H5566     1.0  0.65761  0.32601  0.26762  1.0000
  H   H5567     1.0  0.65732  0.31080  0.24914  1.0000
  C   C3504     1.0  0.71560  0.36425  0.28663  1.0000
  C   C3505     1.0  0.72605  0.37364  0.27726  1.0000
  C   C3506     1.0  0.73337  0.38085  0.28408  1.0000
  C   C3507     1.0  0.73021  0.37869  0.30029  1.0000
  C   C3508     1.0  0.72021  0.36889  0.30963  1.0000
  C   C3509     1.0  0.71291  0.36172  0.30283  1.0000
  H   H5568     1.0  0.72823  0.37561  0.26471  1.0000
  H   H5569     1.0  0.74107  0.38843  0.27679  1.0000
  N   N340      1.0  0.67420  0.39660  0.31551  1.0000
  H   H5570     1.0  0.87510  0.45528  0.40921  1.0000
  C   C3510     1.0  0.62126  0.24508  0.40538  1.0000
  C   C3511     1.0  0.59826  0.24726  0.42635  1.0000
  H   H5571     1.0  0.53668  0.41977  0.22896  1.0000
  H   H5572     1.0  0.69580  0.39451  0.29825  1.0000
  S   S1417     1.0  0.71993  0.24186  0.38207  1.0000
  H   H5573     1.0  0.63005  0.42487  0.46355  1.0000
  C   C3512     1.0  0.52297  0.47814  0.34039  1.0000
  C   C3513     1.0  0.79327  0.29147  0.38530  1.0000
  C   C3514     1.0  0.89589  0.23864  0.23190  1.0000
  H   H5574     1.0  0.98428  0.32418  0.26393  1.0000
  H   H5575     1.0  0.64318  0.46689  0.40210  1.0000
  S   S1418     1.0  0.87200  0.34517  0.22458  1.0000
  C   C3515     1.0  0.72930  0.45120  0.38397  1.0000
  N   N341      1.0  0.69935  0.28771  0.36196  1.0000
  H   H5576     1.0  0.78758  0.30142  0.37771  1.0000
  H   H5577     1.0  0.66876  0.41344  0.32968  1.0000
  C   C3516     1.0  0.65090  0.26049  0.35319  1.0000
  H   H5578     1.0  0.69330  0.27105  0.38322  1.0000
  H   H5579     1.0  0.79457  0.25269  0.39978  1.0000
  N   N342      1.0  0.52400  0.40141  0.23889  1.0000
  S   S1419     1.0  0.54511  0.47186  0.35727  1.0000
  C   C3517     1.0  0.97604  0.31875  0.26211  1.0000
  C   C3518     1.0  0.52657  0.41610  0.22765  1.0000
  H   H5580     1.0  0.83637  0.35668  0.47107  1.0000
  H   H5581     1.0  0.80574  0.30487  0.39154  1.0000
  Fe  Fe713     1.0  0.65075  0.46399  0.42953  1.0000
  H   H5582     1.0  0.62323  0.46040  0.45600  1.0000
  H   H5583     1.0  0.77906  0.26299  0.45771  1.0000
  N   N343      1.0  0.80969  0.31420  0.33755  1.0000
  C   C3519     1.0  0.82105  0.31175  0.34720  1.0000
  C   C3520     1.0  0.79559  0.32589  0.34263  1.0000
  C   C3521     1.0  0.80539  0.29923  0.33937  1.0000
  C   C3522     1.0  0.81677  0.31996  0.32102  1.0000
  H   H5584     1.0  0.82443  0.32284  0.34626  1.0000
  H   H5585     1.0  0.83196  0.30313  0.34361  1.0000
  H   H5586     1.0  0.81616  0.30725  0.35973  1.0000
  H   H5587     1.0  0.78679  0.32818  0.33552  1.0000
  H   H5588     1.0  0.78991  0.32198  0.35504  1.0000
  H   H5589     1.0  0.79850  0.33727  0.34151  1.0000
  H   H5590     1.0  0.79674  0.30062  0.33236  1.0000
  H   H5591     1.0  0.80008  0.29447  0.35173  1.0000
  H   H5592     1.0  0.81580  0.29017  0.33563  1.0000
  H   H5593     1.0  0.80864  0.32165  0.31336  1.0000
  H   H5594     1.0  0.72163  0.45006  0.37701  1.0000
  H   H5595     1.0  0.49424  0.36650  0.46320  1.0000
  H   H5596     1.0  0.83924  0.25159  0.45650  1.0000
  H   H5597     1.0  0.86572  0.31984  0.46680  1.0000
  C   C3523     1.0  0.97016  0.29669  0.25693  1.0000
  C   C3524     1.0  0.61387  0.45428  0.46343  1.0000
  H   H5598     1.0  0.65217  0.26935  0.30033  1.0000
  H   H5599     1.0  0.60831  0.33065  0.25218  1.0000
  C   C3525     1.0  0.81861  0.27876  0.45840  1.0000
  S   S1420     1.0  0.95267  0.37998  0.44955  1.0000
  C   C3526     1.0  0.61922  0.33806  0.26615  1.0000
  H   H5600     1.0  0.81975  0.33145  0.31921  1.0000
  H   H5601     1.0  0.71183  0.27569  0.38015  1.0000
  C   C3527     1.0  0.68060  0.38363  0.32742  1.0000
  C   C3528     1.0  0.51108  0.47473  0.33588  1.0000
  H   H5602     1.0  0.94319  0.41190  0.45426  1.0000
  C   C3529     1.0  0.49169  0.34033  0.45679  1.0000
  H   H5603     1.0  0.83851  0.34521  0.29106  1.0000
  C   C3530     1.0  0.74461  0.47115  0.22772  1.0000
  H   H5604     1.0  0.62566  0.30690  0.28638  1.0000
  C   C3531     1.0  0.84274  0.34148  0.26211  1.0000
  H   H5605     1.0  0.53316  0.30573  0.22924  1.0000
  H   H5606     1.0  0.56705  0.44674  0.31891  1.0000
  C   C3532     1.0  0.53798  0.38875  0.23611  1.0000
  N   N344      1.0  0.81928  0.40814  0.34583  1.0000
  C   C3533     1.0  0.82326  0.39402  0.35788  1.0000
  C   C3534     1.0  0.83368  0.41140  0.33445  1.0000
  H   H5607     1.0  0.86474  0.45573  0.42885  1.0000
  C   C3535     1.0  0.80864  0.40560  0.33768  1.0000
  H   H5608     1.0  0.83101  0.39558  0.36451  1.0000
  H   H5609     1.0  0.82938  0.38367  0.35270  1.0000
  H   H5610     1.0  0.81259  0.39107  0.36649  1.0000
  H   H5611     1.0  0.86264  0.36077  0.25289  1.0000
  H   H5612     1.0  0.83980  0.40148  0.32860  1.0000
  H   H5613     1.0  0.83102  0.42203  0.32521  1.0000
  S   S1421     1.0  0.77755  0.27460  0.37713  1.0000
  C   C3536     1.0  0.73961  0.46862  0.39187  1.0000
  C   C3537     1.0  0.86805  0.46596  0.45323  1.0000
  H   H5614     1.0  0.80534  0.41606  0.32852  1.0000
  H   H5615     1.0  0.79763  0.40309  0.34591  1.0000
  H   H5616     1.0  0.81413  0.39554  0.33190  1.0000
  N   N345      1.0  0.58254  0.38158  0.45806  1.0000
  S   S1422     1.0  0.49176  0.45603  0.33729  1.0000
  H   H5617     1.0  0.49797  0.36612  0.43576  1.0000
  H   H5618     1.0  0.51198  0.39594  0.22469  1.0000
  H   H5619     1.0  0.85318  0.27125  0.46900  1.0000
  C   C3538     1.0  0.52921  0.46813  0.35288  1.0000
  H   H5620     1.0  0.56739  0.36962  0.45379  1.0000
  H   H5621     1.0  0.50408  0.34123  0.45451  1.0000
  H   H5622     1.0  0.83564  0.30071  0.44953  1.0000
  C   C3539     1.0  0.58861  0.36861  0.47016  1.0000
  C   C3540     1.0  0.63284  0.43088  0.47114  1.0000
  H   H5623     1.0  0.50817  0.38601  0.24489  1.0000
  S   S1423     1.0  0.88242  0.38182  0.46466  1.0000
  S   S1424     1.0  0.80850  0.23770  0.46380  1.0000
  S   S1425     1.0  0.91201  0.31478  0.23523  1.0000
  H   H5624     1.0  0.53652  0.37751  0.24452  1.0000
  C   C3541     1.0  0.86575  0.45111  0.46163  1.0000
  H   H5625     1.0  0.63365  0.26848  0.31377  1.0000
  S   S1426     1.0  0.75000  0.24744  0.40302  1.0000
  H   H5626     1.0  0.70860  0.47165  0.40032  1.0000
  H   H5627     1.0  0.51871  0.39284  0.26373  1.0000
  H   H5628     1.0  0.78123  0.25656  0.43206  1.0000
  C   C3542     1.0  0.68301  0.29460  0.36044  1.0000
  N   N346      1.0  0.72938  0.46775  0.38236  1.0000
  H   H5629     1.0  0.68290  0.38319  0.29766  1.0000
  Fe  Fe714     1.0  0.74389  0.23592  0.38750  1.0000
  H   H5630     1.0  0.52146  0.35337  0.24440  1.0000
  C   C3543     1.0  0.81152  0.42157  0.35330  1.0000
  N   N347      1.0  0.63776  0.29170  0.30389  1.0000
  N   N348      1.0  0.92207  0.31757  0.31059  1.0000
  C   C3544     1.0  0.90781  0.32848  0.30630  1.0000
  C   C3545     1.0  0.91971  0.31295  0.32776  1.0000
  C   C3546     1.0  0.93539  0.32537  0.30414  1.0000
  C   C3547     1.0  0.92539  0.30354  0.30414  1.0000
  H   H5631     1.0  0.90914  0.33202  0.29341  1.0000
  H   H5632     1.0  0.90505  0.33929  0.31081  1.0000
  H   H5633     1.0  0.89747  0.32308  0.31113  1.0000
  H   H5634     1.0  0.93029  0.30485  0.33142  1.0000
  H   H5635     1.0  0.91687  0.32327  0.33306  1.0000
  H   H5636     1.0  0.90986  0.30689  0.33306  1.0000
  H   H5637     1.0  0.94649  0.31731  0.30660  1.0000
  H   H5638     1.0  0.93350  0.33576  0.30907  1.0000
  H   H5639     1.0  0.93714  0.32947  0.29127  1.0000
  H   H5640     1.0  0.91551  0.29746  0.30860  1.0000
  H   H5641     1.0  0.93605  0.29500  0.30717  1.0000
  H   H5642     1.0  0.92736  0.30661  0.29120  1.0000
  H   H5643     1.0  0.80833  0.43247  0.34458  1.0000
  H   H5644     1.0  0.68804  0.25701  0.33124  1.0000
  H   H5645     1.0  0.82160  0.37558  0.27244  1.0000
  H   H5646     1.0  0.74390  0.45945  0.22677  1.0000
  H   H5647     1.0  0.74129  0.44438  0.37986  1.0000
  H   H5648     1.0  0.72085  0.29524  0.35698  1.0000
  C   C3548     1.0  0.82376  0.36438  0.26876  1.0000
  S   S1427     1.0  0.80567  0.47412  0.36452  1.0000
  C   C3549     1.0  0.80708  0.26605  0.40588  1.0000
  C   C3550     1.0  0.51036  0.39719  0.23683  1.0000
  C   C3551     1.0  0.87857  0.43857  0.46323  1.0000
  H   H5649     1.0  0.86487  0.35469  0.46249  1.0000
  C   C3552     1.0  0.98630  0.39521  0.45834  1.0000
  H   H5650     1.0  0.72507  0.44555  0.39634  1.0000
  S   S1428     1.0  0.58899  0.30630  0.23919  1.0000
  S   S1429     1.0  0.92989  0.32972  0.26236  1.0000
  H   H5651     1.0  0.65043  0.39848  0.32862  1.0000
  C   C3553     1.0  0.61906  0.32960  0.25554  1.0000
  C   C3554     1.0  0.84029  0.27345  0.47059  1.0000
  H   H5652     1.0  0.64712  0.31237  0.29525  1.0000
  H   H5653     1.0  0.85403  0.44932  0.46682  1.0000
  C   C3555     1.0  0.75258  0.42324  0.23140  1.0000
  H   H5654     1.0  0.74810  0.29059  0.42808  1.0000
  H   H5655     1.0  0.67872  0.40396  0.29048  1.0000
  H   H5656     1.0  0.53278  0.44744  0.32687  1.0000
  C   C3556     1.0  0.85427  0.32823  0.46891  1.0000
  H   H5657     1.0  0.87845  0.43239  0.39849  1.0000
  H   H5658     1.0  0.74749  0.46853  0.36146  1.0000
  H   H5659     1.0  0.84846  0.37781  0.25783  1.0000
  C   C3557     1.0  0.52314  0.45499  0.36121  1.0000
  H   H5660     1.0  0.70519  0.47602  0.38100  1.0000
  H   H5661     1.0  0.55596  0.41254  0.34943  1.0000
  N   N349      1.0  0.84044  0.35634  0.26680  1.0000
  C   C3558     1.0  0.56407  0.41825  0.31821  1.0000
  S   S1430     1.0  0.67124  0.47366  0.41390  1.0000
  H   H5662     1.0  0.82774  0.31167  0.31686  1.0000
  H   H5663     1.0  0.85783  0.34705  0.28066  1.0000
  H   H5664     1.0  0.75153  0.46137  0.38885  1.0000
  C   C3559     1.0  0.66600  0.25342  0.34638  1.0000
  H   H5665     1.0  0.80058  0.41948  0.36194  1.0000
  H   H5666     1.0  0.50658  0.44135  0.36313  1.0000
  H   H5667     1.0  0.81262  0.28873  0.46421  1.0000
  H   H5668     1.0  0.74079  0.27795  0.44601  1.0000
  C   C3560     1.0  0.77680  0.28643  0.43293  1.0000
  H   H5669     1.0  0.63214  0.23728  0.40025  1.0000
  C   C3561     1.0  0.73532  0.47471  0.36583  1.0000
  N   N350      1.0  0.83577  0.27611  0.45562  1.0000
  H   H5670     1.0  0.73711  0.23682  0.33395  1.0000
  C   C3562     1.0  0.87270  0.44790  0.42117  1.0000
  H   H5671     1.0  0.83979  0.26387  0.43743  1.0000
  C   C3563     1.0  0.84308  0.26224  0.44870  1.0000
  H   H5672     1.0  0.51061  0.41321  0.25732  1.0000
  S   S1431     1.0  0.63245  0.34633  0.28509  1.0000
  H   H5673     1.0  0.59862  0.24497  0.26471  1.0000
  H   H5674     1.0  0.63901  0.28992  0.28059  1.0000
  S   S1432     1.0  0.77704  0.47243  0.39594  1.0000
  Fe  Fe715     1.0  0.78196  0.46841  0.37170  1.0000
  C   C3564     1.0  0.88001  0.24220  0.23895  1.0000
  H   H5675     1.0  0.59062  0.40001  0.43970  1.0000
  C   C3565     1.0  0.56217  0.43936  0.33015  1.0000
  N   N351      1.0  0.86570  0.43497  0.42160  1.0000
  C   C3566     1.0  0.86343  0.42509  0.43753  1.0000
  C   C3567     1.0  0.85044  0.44152  0.41710  1.0000
  C   C3568     1.0  0.87626  0.42536  0.41062  1.0000
  H   H5676     1.0  0.72800  0.47409  0.35825  1.0000
  H   H5677     1.0  0.87470  0.42013  0.44135  1.0000
  H   H5678     1.0  0.85850  0.41500  0.43821  1.0000
  H   H5679     1.0  0.85545  0.43184  0.44619  1.0000
  H   H5680     1.0  0.84482  0.43213  0.41722  1.0000
  H   H5681     1.0  0.84214  0.44883  0.42516  1.0000
  H   H5682     1.0  0.85166  0.44916  0.40518  1.0000
  C   C3569     1.0  0.69964  0.28076  0.37854  1.0000
  H   H5683     1.0  0.87129  0.41554  0.41057  1.0000
  C   C3570     1.0  0.54668  0.42002  0.34322  1.0000
  Fe  Fe716     1.0  0.57755  0.32956  0.22640  1.0000
  C   C3571     1.0  0.98099  0.30375  0.25905  1.0000
  N   N352      1.0  0.58732  0.23386  0.25451  1.0000
  H   H5684     1.0  0.61065  0.44866  0.45580  1.0000
  C   C3572     1.0  0.49030  0.44572  0.24602  1.0000
  H   H5685     1.0  0.77442  0.29637  0.43867  1.0000
  C   C3573     1.0  0.79700  0.26406  0.39786  1.0000
  C   C3574     1.0  0.84531  0.35303  0.28169  1.0000
  S   S1433     1.0  0.65590  0.46542  0.45143  1.0000
  C   C3575     1.0  0.96371  0.41671  0.45773  1.0000
  C   C3576     1.0  0.55711  0.28556  0.47039  1.0000
  H   H5686     1.0  0.91822  0.24470  0.22709  1.0000
  C   C3577     1.0  0.67531  0.41159  0.31786  1.0000
  H   H5687     1.0  0.67330  0.38410  0.33934  1.0000
  H   H5688     1.0  0.56225  0.23894  0.25874  1.0000
  H   H5689     1.0  0.83785  0.29223  0.43339  1.0000
  H   H5690     1.0  0.81965  0.36717  0.25776  1.0000
  C   C3578     1.0  0.65766  0.39666  0.31700  1.0000
  C   C3579     1.0  0.57191  0.24456  0.25788  1.0000
  C   C3580     1.0  0.74950  0.28541  0.44028  1.0000
  H   H5691     1.0  0.70844  0.30551  0.34351  1.0000
  H   H5692     1.0  0.70352  0.30955  0.36261  1.0000
  H   H5693     1.0  0.65249  0.40600  0.30796  1.0000
  H   H5694     1.0  0.70683  0.28032  0.34019  1.0000
  S   S1434     1.0  0.55472  0.34278  0.23837  1.0000
  H   H5695     1.0  0.71840  0.26950  0.35431  1.0000
  S   S1435     1.0  0.64259  0.44283  0.43018  1.0000
  C   C3581     1.0  0.87422  0.25477  0.24647  1.0000
  H   H5696     1.0  0.62253  0.42705  0.42393  1.0000
  C   C3582     1.0  0.79014  0.27674  0.38746  1.0000
  C   C3583     1.0  0.67652  0.26259  0.33681  1.0000
  H   H5697     1.0  0.59906  0.39503  0.45645  1.0000
  H   H5698     1.0  0.84677  0.36901  0.24324  1.0000
  N   N353      1.0  0.55339  0.42911  0.32791  1.0000
  H   H5699     1.0  0.81622  0.35710  0.27789  1.0000
  H   H5700     1.0  0.90769  0.45747  0.44241  1.0000
  S   S1436     1.0  0.63700  0.24926  0.36366  1.0000
  C   C3584     1.0  0.84998  0.36646  0.25468  1.0000
  H   H5701     1.0  0.62472  0.25495  0.40745  1.0000
  H   H5702     1.0  0.58536  0.47600  0.36184  1.0000
  H   H5703     1.0  0.85395  0.28845  0.44240  1.0000
  H   H5704     1.0  0.68770  0.41193  0.31669  1.0000
  H   H5705     1.0  0.65728  0.29721  0.30828  1.0000
  H   H5706     1.0  0.98142  0.34702  0.23909  1.0000
  H   H5707     1.0  0.81233  0.25618  0.41394  1.0000
  H   H5708     1.0  0.78539  0.46597  0.31200  1.0000
  C   C3585     1.0  0.57748  0.37521  0.44757  1.0000
  H   H5709     1.0  0.64277  0.43634  0.46400  1.0000
  H   H5710     1.0  0.60853  0.34556  0.27101  1.0000
  H   H5711     1.0  0.55751  0.28954  0.45803  1.0000
  H   H5712     1.0  0.56951  0.42469  0.30663  1.0000
  C   C3586     1.0  0.63045  0.29425  0.29063  1.0000
  C   C3587     1.0  0.90015  0.26010  0.24007  1.0000
  C   C3588     1.0  0.76905  0.26345  0.43238  1.0000
  H   H5713     1.0  0.73044  0.46903  0.43878  1.0000
  H   H5714     1.0  0.83934  0.34347  0.25084  1.0000
  H   H5715     1.0  0.59045  0.23984  0.22954  1.0000
  H   H5716     1.0  0.59138  0.24112  0.43730  1.0000
  C   C3589     1.0  0.54205  0.35283  0.22580  1.0000
  C   C3590     1.0  0.78008  0.41573  0.23196  1.0000
  Fe  Fe717     1.0  0.77113  0.25102  0.38404  1.0000
  C   C3591     1.0  0.76693  0.26957  0.45702  1.0000
  H   H5717     1.0  0.69938  0.26622  0.35658  1.0000
  C   C3592     1.0  0.80354  0.29343  0.39313  1.0000
  N   N354      1.0  0.76556  0.27622  0.44066  1.0000
  C   C3593     1.0  0.90593  0.24756  0.23249  1.0000
  C   C3594     1.0  0.70845  0.30005  0.35602  1.0000
  H   H5718     1.0  0.75901  0.26136  0.46313  1.0000
  H   H5719     1.0  0.51615  0.42583  0.22937  1.0000
  C   C3595     1.0  0.51112  0.45165  0.35680  1.0000
  N   N355      1.0  0.61254  0.23652  0.41988  1.0000
  H   H5720     1.0  0.54034  0.38656  0.22420  1.0000
  H   H5721     1.0  0.54859  0.39158  0.23731  1.0000
  C   C3596     1.0  0.84103  0.28997  0.44480  1.0000
  H   H5722     1.0  0.85605  0.25987  0.44634  1.0000
  H   H5723     1.0  0.60521  0.38231  0.44295  1.0000
  H   H5724     1.0  0.60360  0.46340  0.46732  1.0000
  H   H5725     1.0  0.62062  0.28819  0.29394  1.0000
  H   H5726     1.0  0.49955  0.40626  0.23919  1.0000
  H   H5727     1.0  0.81442  0.26823  0.46596  1.0000
  H   H5728     1.0  0.61158  0.23396  0.25079  1.0000
  C   C3597     1.0  0.59493  0.39009  0.44891  1.0000
  C   C3598     1.0  0.52599  0.35695  0.23201  1.0000
  H   H5729     1.0  0.77639  0.29135  0.42044  1.0000
  Fe  Fe718     1.0  0.67460  0.47749  0.43580  1.0000
  H   H5730     1.0  0.98334  0.37380  0.45501  1.0000
  S   S1437     1.0  0.86714  0.23110  0.23871  1.0000
  S   S1438     1.0  0.69760  0.47144  0.44266  1.0000
  C   C3599     1.0  0.69916  0.23002  0.37470  1.0000
  C   C3600     1.0  0.79614  0.23143  0.45632  1.0000
  H   H5731     1.0  0.48868  0.33348  0.46891  1.0000
  S   S1439     1.0  0.68386  0.32517  0.61941  1.0000
  Fe  Fe719     1.0  0.67118  0.30849  0.66347  1.0000
  S   S1440     1.0  0.67217  0.33378  0.65408  1.0000
  Fe  Fe720     1.0  0.66113  0.33225  0.63569  1.0000
  S   S1441     1.0  0.63967  0.34934  0.62910  1.0000
  Fe  Fe721     1.0  0.69485  0.32439  0.63871  1.0000
  S   S1442     1.0  0.71688  0.33349  0.63146  1.0000
  S   S1443     1.0  0.65829  0.30767  0.64627  1.0000
  Fe  Fe722     1.0  0.58839  0.39320  0.56080  1.0000
  S   S1444     1.0  0.58433  0.40475  0.53684  1.0000
  S   S1445     1.0  0.56802  0.39228  0.58127  1.0000
  Fe  Fe723     1.0  0.62343  0.38582  0.54971  1.0000
  S   S1446     1.0  0.62259  0.39703  0.52469  1.0000
  S   S1447     1.0  0.64648  0.37466  0.55652  1.0000
  Fe  Fe724     1.0  0.60402  0.41587  0.53453  1.0000
  S   S1448     1.0  0.60130  0.44148  0.52364  1.0000
  Fe  Fe725     1.0  0.60306  0.38488  0.52924  1.0000
  S   S1449     1.0  0.60108  0.37226  0.51225  1.0000
  S   S1450     1.0  0.60665  0.40594  0.55916  1.0000
  S   S1451     1.0  0.60534  0.37207  0.55353  1.0000
  H   H5732     1.0  0.85475  0.33375  0.50393  1.0000
  H   H5733     1.0  0.69608  0.24436  0.53991  1.0000
  S   S1452     1.0  0.64908  0.46972  0.53944  1.0000
  S   S1453     1.0  0.49013  0.44924  0.61214  1.0000
  H   H5734     1.0  0.76523  0.26905  0.63400  1.0000
  C   C3601     1.0  0.73302  0.25073  0.52574  1.0000
  H   H5735     1.0  0.98373  0.27745  0.67307  1.0000
  H   H5736     1.0  0.60515  0.28193  0.49291  1.0000
  C   C3602     1.0  0.57863  0.47444  0.55641  1.0000
  H   H5737     1.0  0.49601  0.37945  0.69749  1.0000
  H   H5738     1.0  0.82279  0.30250  0.51944  1.0000
  S   S1454     1.0  0.48798  0.45811  0.71472  1.0000
  H   H5739     1.0  0.53772  0.39168  0.57972  1.0000
  S   S1455     1.0  0.51934  0.34168  0.51718  1.0000
  C   C3603     1.0  0.65207  0.31099  0.70067  1.0000
  H   H5740     1.0  0.49734  0.40832  0.71855  1.0000
  H   H5741     1.0  0.58116  0.27258  0.54069  1.0000
  N   N356      1.0  0.85372  0.33754  0.48000  1.0000
  S   S1456     1.0  0.53135  0.38226  0.50773  1.0000
  C   C3604     1.0  0.67574  0.27496  0.61315  1.0000
  Fe  Fe726     1.0  0.86239  0.29546  0.59158  1.0000
  S   S1457     1.0  0.84391  0.31726  0.59323  1.0000
  S   S1458     1.0  0.88271  0.28906  0.60332  1.0000
  Fe  Fe727     1.0  0.84629  0.28509  0.57207  1.0000
  S   S1459     1.0  0.82662  0.30632  0.57225  1.0000
  H   H5742     1.0  0.66565  0.32838  0.68864  1.0000
  Fe  Fe728     1.0  0.84555  0.31922  0.56791  1.0000
  S   S1460     1.0  0.84537  0.34316  0.55230  1.0000
  Fe  Fe729     1.0  0.82704  0.30208  0.59739  1.0000
  S   S1461     1.0  0.80543  0.30427  0.61648  1.0000
  S   S1462     1.0  0.86539  0.29822  0.56586  1.0000
  S   S1463     1.0  0.84542  0.27994  0.59769  1.0000
  H   H5743     1.0  0.97479  0.26283  0.69953  1.0000
  C   C3605     1.0  0.98617  0.31024  0.68835  1.0000
  Fe  Fe730     1.0  0.90187  0.36472  0.47460  1.0000
  H   H5744     1.0  0.87780  0.27611  0.64192  1.0000
  H   H5745     1.0  0.83996  0.27533  0.63517  1.0000
  H   H5746     1.0  0.49065  0.37289  0.54303  1.0000
  H   H5747     1.0  0.84707  0.31960  0.49990  1.0000
  Fe  Fe731     1.0  0.90555  0.32902  0.65437  1.0000
  S   S1464     1.0  0.91127  0.30388  0.66668  1.0000
  S   S1465     1.0  0.90094  0.33701  0.63008  1.0000
  Fe  Fe732     1.0  0.89968  0.34085  0.68441  1.0000
  S   S1466     1.0  0.90438  0.31659  0.69891  1.0000
  S   S1467     1.0  0.88968  0.36184  0.69534  1.0000
  Fe  Fe733     1.0  0.92476  0.31226  0.67882  1.0000
  S   S1468     1.0  0.94799  0.29838  0.68477  1.0000
  Fe  Fe734     1.0  0.89058  0.31091  0.68531  1.0000
  S   S1469     1.0  0.86962  0.30014  0.69500  1.0000
  S   S1470     1.0  0.92067  0.33710  0.66488  1.0000
  S   S1471     1.0  0.88430  0.33556  0.67244  1.0000
  H   H5748     1.0  0.65639  0.29467  0.58905  1.0000
  C   C3606     1.0  0.68046  0.26527  0.60244  1.0000
  C   C3607     1.0  0.75597  0.29440  0.65791  1.0000
  S   S1472     1.0  0.81544  0.24332  0.66903  1.0000
  H   H5749     1.0  0.85956  0.46319  0.52519  1.0000
  Fe  Fe735     1.0  0.76712  0.35047  0.67569  1.0000
  S   S1473     1.0  0.78876  0.34352  0.68524  1.0000
  S   S1474     1.0  0.74775  0.33724  0.68360  1.0000
  Fe  Fe736     1.0  0.77595  0.37965  0.65373  1.0000
  S   S1475     1.0  0.79862  0.37557  0.66078  1.0000
  S   S1476     1.0  0.76505  0.39691  0.63477  1.0000
  Fe  Fe737     1.0  0.80141  0.35046  0.66056  1.0000
  S   S1477     1.0  0.82466  0.33728  0.64934  1.0000
  Fe  Fe738     1.0  0.78479  0.36893  0.68520  1.0000
  H   H5750     1.0  0.81137  0.23106  0.56434  1.0000
  S   S1478     1.0  0.78028  0.35517  0.65091  1.0000
  S   S1479     1.0  0.76173  0.37528  0.67826  1.0000
  H   H5751     1.0  0.63384  0.23021  0.50970  1.0000
  H   H5752     1.0  0.61008  0.42595  0.49659  1.0000
  H   H5753     1.0  0.84108  0.28942  0.66922  1.0000
  H   H5754     1.0  0.76069  0.29637  0.61930  1.0000
  H   H5755     1.0  0.62335  0.31371  0.66872  1.0000
  C   C3608     1.0  0.60871  0.32972  0.69127  1.0000
  H   H5756     1.0  0.56488  0.47820  0.58559  1.0000
  H   H5757     1.0  0.61339  0.45944  0.49118  1.0000
  S   S1480     1.0  0.78744  0.46038  0.60434  1.0000
  H   H5758     1.0  0.85201  0.36771  0.66069  1.0000
  H   H5759     1.0  0.60993  0.26491  0.53370  1.0000
  S   S1481     1.0  0.76352  0.47377  0.57060  1.0000
  Fe  Fe739     1.0  0.64979  0.23277  0.55541  1.0000
  C   C3609     1.0  0.59507  0.28599  0.50207  1.0000
  H   H5760     1.0  0.85886  0.35096  0.69333  1.0000
  C   C3610     1.0  0.65381  0.26262  0.60679  1.0000
  H   H5761     1.0  0.69245  0.47510  0.57262  1.0000
  C   C3611     1.0  0.60965  0.27313  0.52218  1.0000
  S   S1482     1.0  0.50805  0.36850  0.48793  1.0000
  H   H5762     1.0  0.60980  0.35672  0.65702  1.0000
  H   H5763     1.0  0.82110  0.25441  0.52653  1.0000
  H   H5764     1.0  0.97463  0.29090  0.69813  1.0000
  H   H5765     1.0  0.79779  0.23483  0.59094  1.0000
  C   C3612     1.0  0.50086  0.39898  0.71179  1.0000
  H   H5766     1.0  0.82867  0.34236  0.48717  1.0000
  H   H5767     1.0  0.58178  0.29238  0.53031  1.0000
  H   H5768     1.0  0.62015  0.26835  0.51377  1.0000
  H   H5769     1.0  0.76875  0.40059  0.69406  1.0000
  C   C3613     1.0  0.77125  0.41460  0.62685  1.0000
  C   C3614     1.0  0.76320  0.42631  0.61654  1.0000
  C   C3615     1.0  0.76803  0.44045  0.60975  1.0000
  C   C3616     1.0  0.78108  0.44285  0.61307  1.0000
  C   C3617     1.0  0.78910  0.43120  0.62347  1.0000
  C   C3618     1.0  0.78414  0.41709  0.63042  1.0000
  H   H5770     1.0  0.75321  0.42445  0.61375  1.0000
  H   H5771     1.0  0.76174  0.44941  0.60180  1.0000
  H   H5772     1.0  0.79920  0.43303  0.62607  1.0000
  H   H5773     1.0  0.79040  0.40810  0.63837  1.0000
  C   C3619     1.0  0.85698  0.30908  0.68218  1.0000
  C   C3620     1.0  0.86307  0.31432  0.66632  1.0000
  C   C3621     1.0  0.85303  0.32276  0.65629  1.0000
  C   C3622     1.0  0.83686  0.32618  0.66210  1.0000
  C   C3623     1.0  0.83073  0.32052  0.67787  1.0000
  C   C3624     1.0  0.84078  0.31183  0.68787  1.0000
  H   H5774     1.0  0.87557  0.31200  0.66174  1.0000
  H   H5775     1.0  0.85785  0.32696  0.64407  1.0000
  H   H5776     1.0  0.81827  0.32266  0.68235  1.0000
  H   H5777     1.0  0.83603  0.30766  0.70010  1.0000
  S   S1483     1.0  0.63967  0.24018  0.53401  1.0000
  S   S1484     1.0  0.91126  0.38287  0.47914  1.0000
  C   C3625     1.0  0.97433  0.30231  0.69047  1.0000
  C   C3626     1.0  0.96195  0.30915  0.68282  1.0000
  C   C3627     1.0  0.96124  0.32418  0.67340  1.0000
  C   C3628     1.0  0.97290  0.33224  0.67150  1.0000
  S   S1485     1.0  0.78229  0.25544  0.52752  1.0000
  H   H5778     1.0  0.61977  0.23571  0.63072  1.0000
  H   H5779     1.0  0.95191  0.32950  0.66730  1.0000
  H   H5780     1.0  0.97225  0.34385  0.66412  1.0000
  S   S1486     1.0  0.63994  0.25538  0.60253  1.0000
  H   H5781     1.0  0.67342  0.46834  0.51180  1.0000
  C   C3629     1.0  0.84039  0.47132  0.49603  1.0000
  Fe  Fe740     1.0  0.65087  0.23951  0.58565  1.0000
  C   C3630     1.0  0.64659  0.33654  0.70665  1.0000
  H   H5782     1.0  0.91485  0.33999  0.70900  1.0000
  H   H5783     1.0  0.84499  0.32138  0.47328  1.0000
  H   H5784     1.0  0.82378  0.35527  0.70623  1.0000
  H   H5785     1.0  0.71074  0.26309  0.52029  1.0000
  C   C3631     1.0  0.83244  0.25939  0.54171  1.0000
  H   H5786     1.0  0.61594  0.31804  0.69545  1.0000
  S   S1487     1.0  0.84628  0.26550  0.56159  1.0000
  S   S1488     1.0  0.69484  0.29914  0.64954  1.0000
  H   H5787     1.0  0.84333  0.25789  0.66061  1.0000
  C   C3632     1.0  0.80667  0.28695  0.63088  1.0000
  C   C3633     1.0  0.80185  0.28780  0.64656  1.0000
  C   C3634     1.0  0.80407  0.27418  0.65819  1.0000
  C   C3635     1.0  0.81111  0.25968  0.65420  1.0000
  C   C3636     1.0  0.81526  0.25871  0.63854  1.0000
  C   C3637     1.0  0.81299  0.27237  0.62687  1.0000
  H   H5788     1.0  0.79698  0.29904  0.64972  1.0000
  H   H5789     1.0  0.80078  0.27495  0.67031  1.0000
  H   H5790     1.0  0.82057  0.24752  0.63540  1.0000
  H   H5791     1.0  0.81626  0.27160  0.61477  1.0000
  C   C3638     1.0  0.88678  0.30248  0.61149  1.0000
  C   C3639     1.0  0.89849  0.29725  0.62007  1.0000
  C   C3640     1.0  0.90241  0.30765  0.62637  1.0000
  C   C3641     1.0  0.89500  0.32348  0.62372  1.0000
  C   C3642     1.0  0.88328  0.32873  0.61514  1.0000
  C   C3643     1.0  0.87893  0.31821  0.60934  1.0000
  H   H5792     1.0  0.90464  0.28512  0.62178  1.0000
  H   H5793     1.0  0.91158  0.30352  0.63281  1.0000
  H   H5794     1.0  0.87744  0.34096  0.61315  1.0000
  H   H5795     1.0  0.86965  0.32238  0.60311  1.0000
  C   C3644     1.0  0.83662  0.27093  0.54608  1.0000
  C   C3645     1.0  0.83311  0.28651  0.53804  1.0000
  H   H5796     1.0  0.83642  0.29546  0.54124  1.0000
  C   C3646     1.0  0.85972  0.34302  0.53489  1.0000
  C   C3647     1.0  0.86799  0.32887  0.53072  1.0000
  C   C3648     1.0  0.88009  0.32866  0.51739  1.0000
  C   C3649     1.0  0.88366  0.34265  0.50782  1.0000
  C   C3650     1.0  0.87519  0.35690  0.51170  1.0000
  C   C3651     1.0  0.86328  0.35707  0.52531  1.0000
  H   H5797     1.0  0.86487  0.31808  0.53754  1.0000
  H   H5798     1.0  0.88648  0.31763  0.51428  1.0000
  C   C3652     1.0  0.83946  0.28882  0.65782  1.0000
  H   H5799     1.0  0.85688  0.36808  0.52845  1.0000
  S   S1489     1.0  0.51613  0.33149  0.48638  1.0000
  H   H5800     1.0  0.49791  0.46106  0.65902  1.0000
  C   C3653     1.0  0.62354  0.45069  0.48641  1.0000
  S   S1490     1.0  0.78117  0.23168  0.50646  1.0000
  H   H5801     1.0  0.49989  0.38176  0.52376  1.0000
  C   C3654     1.0  0.65576  0.32555  0.69777  1.0000
  Fe  Fe741     1.0  0.68196  0.30061  0.63142  1.0000
  C   C3655     1.0  0.86744  0.47097  0.49374  1.0000
  H   H5802     1.0  0.86961  0.28282  0.65985  1.0000
  C   C3656     1.0  0.62541  0.23065  0.53405  1.0000
  H   H5803     1.0  0.54731  0.40814  0.53696  1.0000
  C   C3657     1.0  0.56039  0.26443  0.49285  1.0000
  H   H5804     1.0  0.86415  0.25392  0.65367  1.0000
  C   C3658     1.0  0.66001  0.27841  0.62076  1.0000
  Fe  Fe742     1.0  0.79823  0.24351  0.48742  1.0000
  C   C3659     1.0  0.58169  0.37509  0.51106  1.0000
  C   C3660     1.0  0.57173  0.38989  0.51049  1.0000
  C   C3661     1.0  0.55627  0.39206  0.50933  1.0000
  C   C3662     1.0  0.55078  0.37943  0.50875  1.0000
  C   C3663     1.0  0.56077  0.36467  0.50914  1.0000
  C   C3664     1.0  0.57625  0.36252  0.51024  1.0000
  H   H5805     1.0  0.57603  0.39972  0.51063  1.0000
  H   H5806     1.0  0.54861  0.40354  0.50876  1.0000
  H   H5807     1.0  0.55652  0.35485  0.50884  1.0000
  H   H5808     1.0  0.58397  0.35107  0.51065  1.0000
  C   C3665     1.0  0.55744  0.41140  0.58209  1.0000
  C   C3666     1.0  0.56176  0.42389  0.57026  1.0000
  C   C3667     1.0  0.55263  0.43902  0.57004  1.0000
  C   C3668     1.0  0.53939  0.44185  0.58189  1.0000
  C   C3669     1.0  0.53516  0.42945  0.59393  1.0000
  C   C3670     1.0  0.54414  0.41417  0.59396  1.0000
  H   H5809     1.0  0.57201  0.42191  0.56111  1.0000
  H   H5810     1.0  0.55579  0.44855  0.56061  1.0000
  H   H5811     1.0  0.52497  0.43162  0.60317  1.0000
  H   H5812     1.0  0.54079  0.40455  0.60317  1.0000
  C   C3671     1.0  0.61505  0.44919  0.52735  1.0000
  C   C3672     1.0  0.61408  0.46533  0.52307  1.0000
  C   C3673     1.0  0.62445  0.47173  0.52681  1.0000
  C   C3674     1.0  0.63596  0.46198  0.53465  1.0000
  C   C3675     1.0  0.63732  0.44578  0.53833  1.0000
  C   C3676     1.0  0.62683  0.43938  0.53475  1.0000
  H   H5813     1.0  0.60518  0.47293  0.51702  1.0000
  S   S1491     1.0  0.89840  0.34181  0.49089  1.0000
  H   H5814     1.0  0.64635  0.43816  0.54419  1.0000
  H   H5815     1.0  0.62784  0.42686  0.53784  1.0000
  C   C3677     1.0  0.64905  0.27225  0.61758  1.0000
  C   C3678     1.0  0.73898  0.28854  0.64536  1.0000
  H   H5816     1.0  0.67630  0.46150  0.47305  1.0000
  H   H5817     1.0  0.59303  0.35061  0.67063  1.0000
  C   C3679     1.0  0.64158  0.35731  0.60905  1.0000
  C   C3680     1.0  0.65629  0.35794  0.59924  1.0000
  C   C3681     1.0  0.65770  0.36354  0.58312  1.0000
  C   C3682     1.0  0.64440  0.36866  0.57678  1.0000
  C   C3683     1.0  0.62964  0.36841  0.58663  1.0000
  C   C3684     1.0  0.62824  0.36276  0.60275  1.0000
  H   H5818     1.0  0.66657  0.35424  0.60406  1.0000
  H   H5819     1.0  0.66911  0.36395  0.57555  1.0000
  H   H5820     1.0  0.61931  0.37240  0.58182  1.0000
  H   H5821     1.0  0.61682  0.36242  0.61031  1.0000
  C   C3685     1.0  0.72518  0.33413  0.64624  1.0000
  C   C3686     1.0  0.71796  0.33021  0.66199  1.0000
  C   C3687     1.0  0.72501  0.33107  0.67346  1.0000
  C   C3688     1.0  0.73925  0.33580  0.66918  1.0000
  C   C3689     1.0  0.74649  0.33941  0.65343  1.0000
  C   C3690     1.0  0.73946  0.33868  0.64200  1.0000
  H   H5822     1.0  0.70694  0.32663  0.66534  1.0000
  H   H5823     1.0  0.71937  0.32816  0.68566  1.0000
  H   H5824     1.0  0.75759  0.34258  0.64998  1.0000
  H   H5825     1.0  0.74512  0.34160  0.62982  1.0000
  H   H5826     1.0  0.65627  0.28582  0.62907  1.0000
  C   C3691     1.0  0.82546  0.29047  0.52565  1.0000
  H   H5827     1.0  0.86646  0.35323  0.48197  1.0000
  H   H5828     1.0  0.51353  0.39383  0.71126  1.0000
  H   H5829     1.0  0.59602  0.44263  0.58029  1.0000
  H   H5830     1.0  0.49058  0.36603  0.52651  1.0000
  H   H5831     1.0  0.73794  0.28477  0.63521  1.0000
  C   C3692     1.0  0.58151  0.28069  0.52905  1.0000
  C   C3693     1.0  0.86742  0.28344  0.64831  1.0000
  H   H5832     1.0  0.59365  0.25087  0.52713  1.0000
  H   H5833     1.0  0.82177  0.24526  0.57735  1.0000
  S   S1492     1.0  0.68969  0.28312  0.61610  1.0000
  N   N357      1.0  0.59506  0.27483  0.51727  1.0000
  H   H5834     1.0  0.75643  0.46992  0.65009  1.0000
  S   S1493     1.0  0.51030  0.46694  0.62384  1.0000
  H   H5835     1.0  0.78959  0.33770  0.60235  1.0000
  H   H5836     1.0  0.76801  0.29527  0.65739  1.0000
  N   N358      1.0  0.66411  0.31621  0.57918  1.0000
  C   C3694     1.0  0.68066  0.30819  0.57484  1.0000
  C   C3695     1.0  0.65394  0.30572  0.58028  1.0000
  C   C3696     1.0  0.66066  0.33064  0.56723  1.0000
  C   C3697     1.0  0.66119  0.32029  0.59441  1.0000
  H   H5837     1.0  0.68867  0.31575  0.57397  1.0000
  H   H5838     1.0  0.68333  0.30481  0.56345  1.0000
  H   H5839     1.0  0.68366  0.29732  0.58370  1.0000
  H   H5840     1.0  0.64137  0.31130  0.58379  1.0000
  H   H5841     1.0  0.65576  0.30245  0.56897  1.0000
  H   H5842     1.0  0.64834  0.33716  0.57029  1.0000
  H   H5843     1.0  0.66256  0.32806  0.55559  1.0000
  H   H5844     1.0  0.66822  0.33879  0.56599  1.0000
  H   H5845     1.0  0.64887  0.32656  0.59805  1.0000
  H   H5846     1.0  0.66883  0.32804  0.59395  1.0000
  H   H5847     1.0  0.66362  0.30971  0.60373  1.0000
  H   H5848     1.0  0.49956  0.40474  0.69966  1.0000
  H   H5849     1.0  0.87790  0.36776  0.50430  1.0000
  H   H5850     1.0  0.83534  0.24731  0.54767  1.0000
  H   H5851     1.0  0.84041  0.23202  0.57430  1.0000
  H   H5852     1.0  0.81844  0.38051  0.67763  1.0000
  H   H5853     1.0  0.63591  0.34414  0.66105  1.0000
  C   C3698     1.0  0.55613  0.27535  0.50229  1.0000
  C   C3699     1.0  0.61181  0.23291  0.62515  1.0000
  H   H5854     1.0  0.70322  0.38516  0.66923  1.0000
  N   N359      1.0  0.85295  0.27833  0.64996  1.0000
  H   H5855     1.0  0.73096  0.30024  0.64559  1.0000
  C   C3700     1.0  0.59403  0.25946  0.51580  1.0000
  C   C3701     1.0  0.96936  0.32856  0.71995  1.0000
  C   C3702     1.0  0.76074  0.41383  0.71210  1.0000
  H   H5856     1.0  0.55080  0.40776  0.55533  1.0000
  H   H5857     1.0  0.69261  0.26257  0.59651  1.0000
  C   C3703     1.0  0.56098  0.26951  0.47687  1.0000
  H   H5858     1.0  0.82848  0.28480  0.66010  1.0000
  H   H5859     1.0  0.84730  0.36683  0.70232  1.0000
  H   H5860     1.0  0.67330  0.25171  0.59090  1.0000
  Fe  Fe743     1.0  0.76922  0.25589  0.50991  1.0000
  C   C3704     1.0  0.85589  0.32700  0.49510  1.0000
  H   H5861     1.0  0.72959  0.40806  0.63843  1.0000
  H   H5862     1.0  0.86676  0.29576  0.64166  1.0000
  C   C3705     1.0  0.49700  0.37458  0.70984  1.0000
  H   H5863     1.0  0.63129  0.34532  0.68104  1.0000
  C   C3706     1.0  0.61579  0.32539  0.66511  1.0000
  H   H5864     1.0  0.58422  0.28746  0.49805  1.0000
  C   C3707     1.0  0.83842  0.34862  0.48228  1.0000
  H   H5865     1.0  0.85016  0.29098  0.62696  1.0000
  C   C3708     1.0  0.48966  0.37669  0.53065  1.0000
  H   H5866     1.0  0.97426  0.35460  0.69904  1.0000
  C   C3709     1.0  0.82101  0.27893  0.52152  1.0000
  C   C3710     1.0  0.76059  0.30023  0.62983  1.0000
  H   H5867     1.0  0.58374  0.44351  0.56771  1.0000
  C   C3711     1.0  0.63013  0.31835  0.72147  1.0000
  C   C3712     1.0  0.85404  0.26214  0.65928  1.0000
  S   S1494     1.0  0.52853  0.46105  0.58126  1.0000
  Fe  Fe744     1.0  0.52738  0.36242  0.50045  1.0000
  H   H5868     1.0  0.64936  0.34786  0.70426  1.0000
  H   H5869     1.0  0.57465  0.45961  0.59536  1.0000
  Fe  Fe745     1.0  0.79964  0.26502  0.50680  1.0000
  H   H5870     1.0  0.63281  0.45710  0.47952  1.0000
  Fe  Fe746     1.0  0.77114  0.47787  0.59010  1.0000
  H   H5871     1.0  0.76193  0.26477  0.65490  1.0000
  H   H5872     1.0  0.83064  0.23482  0.59355  1.0000
  H   H5873     1.0  0.61102  0.28452  0.52320  1.0000
  Fe  Fe747     1.0  0.50777  0.46421  0.60116  1.0000
  H   H5874     1.0  0.75278  0.31207  0.62934  1.0000
  H   H5875     1.0  0.83506  0.36011  0.66328  1.0000
  H   H5876     1.0  0.58839  0.47447  0.54594  1.0000
  H   H5877     1.0  0.60419  0.25458  0.50718  1.0000
  H   H5878     1.0  0.71632  0.40594  0.62827  1.0000
  S   S1495     1.0  0.48754  0.43523  0.65610  1.0000
  H   H5879     1.0  0.70584  0.38157  0.63650  1.0000
  H   H5880     1.0  0.77789  0.27354  0.64319  1.0000
  H   H5881     1.0  0.85546  0.26128  0.67118  1.0000
  C   C3713     1.0  0.76551  0.27343  0.64409  1.0000
  H   H5882     1.0  0.73451  0.28030  0.65613  1.0000
  C   C3714     1.0  0.49295  0.45503  0.67053  1.0000
  N   N360      1.0  0.58428  0.46589  0.57075  1.0000
  H   H5883     1.0  0.86076  0.44392  0.49405  1.0000
  H   H5884     1.0  0.85200  0.34759  0.66971  1.0000
  H   H5885     1.0  0.84308  0.46877  0.48426  1.0000
  H   H5886     1.0  0.69727  0.40061  0.65352  1.0000
  C   C3715     1.0  0.98544  0.32525  0.67884  1.0000
  C   C3716     1.0  0.55272  0.29139  0.49577  1.0000
  H   H5887     1.0  0.82990  0.46673  0.50307  1.0000
  C   C3717     1.0  0.76960  0.40107  0.70545  1.0000
  H   H5888     1.0  0.64909  0.47589  0.48276  1.0000
  C   C3718     1.0  0.77968  0.38908  0.71348  1.0000
  S   S1496     1.0  0.54465  0.34873  0.48362  1.0000
  H   H5889     1.0  0.97567  0.24626  0.69222  1.0000
  H   H5890     1.0  0.98612  0.24397  0.70696  1.0000
  H   H5891     1.0  0.80927  0.33407  0.59135  1.0000
  H   H5892     1.0  0.60219  0.44899  0.55962  1.0000
  H   H5893     1.0  0.62073  0.32991  0.65257  1.0000
  H   H5894     1.0  0.59992  0.24012  0.62864  1.0000
  Fe  Fe748     1.0  0.50139  0.34653  0.50312  1.0000
  S   S1497     1.0  0.66221  0.29774  0.68861  1.0000
  H   H5895     1.0  0.59600  0.44334  0.49119  1.0000
  H   H5896     1.0  0.84784  0.44202  0.51286  1.0000
  C   C3719     1.0  0.84464  0.35965  0.66880  1.0000
  H   H5897     1.0  0.63926  0.32669  0.67562  1.0000
  N   N361      1.0  0.53636  0.39242  0.55648  1.0000
  C   C3720     1.0  0.52467  0.39191  0.54839  1.0000
  C   C3721     1.0  0.52913  0.39169  0.57320  1.0000
  C   C3722     1.0  0.54185  0.40714  0.54959  1.0000
  C   C3723     1.0  0.54977  0.37899  0.55474  1.0000
  H   H5898     1.0  0.52966  0.39274  0.53570  1.0000
  H   H5899     1.0  0.51431  0.40176  0.54968  1.0000
  H   H5900     1.0  0.52054  0.38079  0.55303  1.0000
  H   H5901     1.0  0.52459  0.38087  0.57875  1.0000
  H   H5902     1.0  0.59566  0.29777  0.50277  1.0000
  H   H5903     1.0  0.51929  0.40192  0.57501  1.0000
  C   C3724     1.0  0.82849  0.37961  0.68263  1.0000
  H   H5904     1.0  0.98049  0.36310  0.71118  1.0000
  H   H5905     1.0  0.50950  0.36881  0.70979  1.0000
  H   H5906     1.0  0.55548  0.37911  0.54228  1.0000
  H   H5907     1.0  0.55888  0.37914  0.56059  1.0000
  S   S1498     1.0  0.81138  0.28395  0.50605  1.0000
  H   H5908     1.0  0.75217  0.28624  0.66905  1.0000
  H   H5909     1.0  0.74824  0.30611  0.65855  1.0000
  S   S1499     1.0  0.78525  0.26780  0.48959  1.0000
  C   C3725     1.0  0.82445  0.26340  0.52964  1.0000
  H   H5910     1.0  0.53215  0.41757  0.55094  1.0000
  N   N362      1.0  0.85386  0.46450  0.50356  1.0000
  H   H5911     1.0  0.86079  0.27110  0.62810  1.0000
  H   H5912     1.0  0.71060  0.40267  0.66361  1.0000
  H   H5913     1.0  0.55546  0.27133  0.51468  1.0000
  H   H5914     1.0  0.77264  0.30143  0.62888  1.0000
  C   C3726     1.0  0.60641  0.43484  0.48641  1.0000
  S   S1500     1.0  0.54951  0.30474  0.50755  1.0000
  Fe  Fe749     1.0  0.53484  0.32830  0.49918  1.0000
  C   C3727     1.0  0.85085  0.27896  0.63437  1.0000
  N   N363      1.0  0.75526  0.28914  0.64430  1.0000
  H   H5915     1.0  0.60398  0.32363  0.66604  1.0000
  H   H5916     1.0  0.97574  0.45822  0.49058  1.0000
  C   C3728     1.0  0.60518  0.35159  0.66950  1.0000
  H   H5917     1.0  0.54614  0.36765  0.55994  1.0000
  H   H5918     1.0  0.83766  0.30092  0.65057  1.0000
  N   N364      1.0  0.72067  0.38708  0.64787  1.0000
  C   C3729     1.0  0.73370  0.37882  0.65574  1.0000
  C   C3730     1.0  0.72580  0.39943  0.63456  1.0000
  C   C3731     1.0  0.70733  0.39421  0.65905  1.0000
  C   C3732     1.0  0.71589  0.37585  0.64221  1.0000
  H   H5919     1.0  0.73031  0.36950  0.66599  1.0000
  H   H5920     1.0  0.73769  0.38704  0.65994  1.0000
  H   H5921     1.0  0.74399  0.37323  0.64771  1.0000
  H   H5922     1.0  0.83626  0.26323  0.47911  1.0000
  H   H5923     1.0  0.97422  0.45272  0.47373  1.0000
  H   H5924     1.0  0.73601  0.39444  0.62602  1.0000
  H   H5925     1.0  0.60597  0.47360  0.56260  1.0000
  C   C3733     1.0  0.74086  0.23781  0.53516  1.0000
  H   H5926     1.0  0.75330  0.23601  0.53398  1.0000
  S   S1501     1.0  0.79148  0.37330  0.70523  1.0000
  H   H5927     1.0  0.71236  0.36613  0.65191  1.0000
  H   H5928     1.0  0.72559  0.37050  0.63350  1.0000
  N   N365      1.0  0.61517  0.33622  0.67474  1.0000
  H   H5929     1.0  0.56321  0.25208  0.49796  1.0000
  C   C3734     1.0  0.70852  0.24254  0.53869  1.0000
  C   C3735     1.0  0.63109  0.33818  0.67307  1.0000
  H   H5930     1.0  0.57030  0.28198  0.52579  1.0000
  H   H5931     1.0  0.78528  0.37346  0.59634  1.0000
  H   H5932     1.0  0.60841  0.33742  0.69895  1.0000
  H   H5933     1.0  0.50024  0.26123  0.70538  1.0000
  H   H5934     1.0  0.61586  0.23690  0.61233  1.0000
  C   C3736     1.0  0.76552  0.47243  0.63932  1.0000
  H   H5935     1.0  0.57235  0.39686  0.47415  1.0000
  C   C3737     1.0  0.86628  0.34636  0.47373  1.0000
  C   C3738     1.0  0.67457  0.47876  0.50207  1.0000
  H   H5936     1.0  0.48733  0.32055  0.50246  1.0000
  C   C3739     1.0  0.71683  0.25311  0.52756  1.0000
  C   C3740     1.0  0.82915  0.35233  0.69461  1.0000
  C   C3741     1.0  0.66953  0.25911  0.59925  1.0000
  N   N366      1.0  0.90020  0.32334  0.56004  1.0000
  C   C3742     1.0  0.88358  0.32744  0.56783  1.0000
  C   C3743     1.0  0.90311  0.30901  0.55419  1.0000
  C   C3744     1.0  0.91000  0.32055  0.57135  1.0000
  C   C3745     1.0  0.90402  0.33633  0.54683  1.0000
  H   H5937     1.0  0.88098  0.33795  0.57281  1.0000
  H   H5938     1.0  0.88022  0.31767  0.57750  1.0000
  H   H5939     1.0  0.87584  0.32999  0.55960  1.0000
  H   H5940     1.0  0.89582  0.31068  0.54569  1.0000
  H   H5941     1.0  0.91555  0.30557  0.54820  1.0000
  H   H5942     1.0  0.90031  0.29897  0.56389  1.0000
  H   H5943     1.0  0.92266  0.31762  0.56588  1.0000
  H   H5944     1.0  0.90748  0.31064  0.58134  1.0000
  H   H5945     1.0  0.90784  0.33098  0.57634  1.0000
  H   H5946     1.0  0.91648  0.33365  0.54058  1.0000
  H   H5947     1.0  0.90191  0.34735  0.55081  1.0000
  H   H5948     1.0  0.89675  0.33871  0.53812  1.0000
  H   H5949     1.0  0.83770  0.35595  0.49047  1.0000
  H   H5950     1.0  0.49010  0.36535  0.71480  1.0000
  Fe  Fe750     1.0  0.49074  0.45419  0.63454  1.0000
  H   H5951     1.0  0.57946  0.36205  0.47729  1.0000
  H   H5952     1.0  0.81265  0.36812  0.58118  1.0000
  C   C3746     1.0  0.89838  0.36198  0.71014  1.0000
  Fe  Fe751     1.0  0.57431  0.23137  0.47826  1.0000
  C   C3747     1.0  0.89264  0.37438  0.71784  1.0000
  H   H5953     1.0  0.75301  0.42315  0.70585  1.0000
  H   H5954     1.0  0.60268  0.42878  0.47955  1.0000
  H   H5955     1.0  0.62789  0.44225  0.49647  1.0000
  H   H5956     1.0  0.60462  0.36005  0.67646  1.0000
  H   H5957     1.0  0.69219  0.46347  0.47951  1.0000
  H   H5958     1.0  0.78693  0.47641  0.65203  1.0000
  N   N367      1.0  0.83846  0.36366  0.68427  1.0000
  C   C3748     1.0  0.85156  0.36302  0.69108  1.0000
  H   H5959     1.0  0.67841  0.45239  0.49266  1.0000
  H   H5960     1.0  0.82340  0.38293  0.69413  1.0000
  C   C3749     1.0  0.91029  0.34958  0.71493  1.0000
  H   H5961     1.0  0.65127  0.46595  0.50220  1.0000
  H   H5962     1.0  0.81942  0.35220  0.68960  1.0000
  H   H5963     1.0  0.88362  0.38414  0.71403  1.0000
  C   C3750     1.0  0.65324  0.47646  0.49285  1.0000
  C   C3751     1.0  0.67959  0.46303  0.48324  1.0000
  H   H5964     1.0  0.77701  0.23291  0.47627  1.0000
  N   N368      1.0  0.66986  0.47736  0.48844  1.0000
  H   H5965     1.0  0.58336  0.26022  0.51187  1.0000
  H   H5966     1.0  0.86770  0.31906  0.49398  1.0000
  H   H5967     1.0  0.77953  0.36071  0.61478  1.0000
  H   H5968     1.0  0.79521  0.35049  0.58382  1.0000
  H   H5969     1.0  0.87777  0.46629  0.49914  1.0000
  H   H5970     1.0  0.83515  0.38845  0.67492  1.0000
  H   H5971     1.0  0.96343  0.33116  0.71012  1.0000
  C   C3752     1.0  0.63948  0.30727  0.71278  1.0000
  C   C3753     1.0  0.85778  0.44732  0.50545  1.0000
  H   H5972     1.0  0.63689  0.27497  0.62344  1.0000
  S   S1502     1.0  0.87535  0.42048  0.47483  1.0000
  H   H5973     1.0  0.82661  0.35155  0.58854  1.0000
  H   H5974     1.0  0.85945  0.37068  0.68315  1.0000
  S   S1503     1.0  0.74337  0.26386  0.51159  1.0000
  H   H5975     1.0  0.83644  0.34024  0.69643  1.0000
  S   S1504     1.0  0.66424  0.24600  0.56102  1.0000
  C   C3754     1.0  0.98253  0.45469  0.47949  1.0000
  H   H5976     1.0  0.79209  0.37336  0.61295  1.0000
  H   H5977     1.0  0.59659  0.32828  0.69308  1.0000
  N   N369      1.0  0.80321  0.35337  0.60260  1.0000
  C   C3755     1.0  0.80827  0.34359  0.61690  1.0000
  C   C3756     1.0  0.81607  0.36058  0.59208  1.0000
  C   C3757     1.0  0.78943  0.36576  0.60682  1.0000
  C   C3758     1.0  0.79910  0.34353  0.59466  1.0000
  H   H5978     1.0  0.81882  0.33427  0.61429  1.0000
  H   H5979     1.0  0.79906  0.33758  0.62497  1.0000
  H   H5980     1.0  0.81117  0.35071  0.62333  1.0000
  H   H5981     1.0  0.81961  0.36793  0.59778  1.0000
  H   H5982     1.0  0.98442  0.26120  0.66539  1.0000
  H   H5983     1.0  0.76078  0.47281  0.62926  1.0000
  N   N370      1.0  0.49147  0.38694  0.71891  1.0000
  H   H5984     1.0  0.56996  0.46903  0.55461  1.0000
  C   C3759     1.0  0.59188  0.44955  0.56956  1.0000
  H   H5985     1.0  0.55039  0.30889  0.47472  1.0000
  C   C3760     1.0  0.55299  0.29651  0.47983  1.0000
  H   H5986     1.0  0.86806  0.44178  0.51085  1.0000
  N   N371      1.0  0.61917  0.44268  0.47684  1.0000
  H   H5987     1.0  0.56199  0.46047  0.58317  1.0000
  C   C3761     1.0  0.63359  0.33305  0.71830  1.0000
  H   H5988     1.0  0.83929  0.46411  0.52659  1.0000
  C   C3762     1.0  0.84979  0.46840  0.51903  1.0000
  H   H5989     1.0  0.60022  0.46743  0.58337  1.0000
  H   H5990     1.0  0.59261  0.37298  0.47826  1.0000
  C   C3763     1.0  0.98269  0.25194  0.69623  1.0000
  H   H5991     1.0  0.98107  0.32097  0.71665  1.0000
  C   C3764     1.0  0.97967  0.35188  0.70925  1.0000
  H   H5992     1.0  0.63664  0.29598  0.71509  1.0000
  C   C3765     1.0  0.49356  0.25702  0.71731  1.0000
  C   C3766     1.0  0.82875  0.23378  0.58242  1.0000
  C   C3767     1.0  0.59570  0.47355  0.57266  1.0000
  H   H5993     1.0  0.49813  0.46983  0.68217  1.0000
  S   S1505     1.0  0.81406  0.24165  0.50289  1.0000
  H   H5994     1.0  0.77571  0.46229  0.63964  1.0000
  S   S1506     1.0  0.71865  0.47652  0.58322  1.0000
  C   C3768     1.0  0.57089  0.46605  0.58431  1.0000
  H   H5995     1.0  0.87100  0.46804  0.48206  1.0000
  H   H5996     1.0  0.63700  0.42180  0.48094  1.0000
  C   C3769     1.0  0.49307  0.45998  0.68364  1.0000
  H   H5997     1.0  0.83497  0.28372  0.47610  1.0000
  H   H5998     1.0  0.51227  0.27506  0.71698  1.0000
  H   H5999     1.0  0.94834  0.35593  0.71810  1.0000
  Fe  Fe752     1.0  0.79569  0.23211  0.52237  1.0000
  H   H6000     1.0  0.79243  0.47981  0.62298  1.0000
  H   H6001     1.0  0.48719  0.28831  0.70826  1.0000
  Fe  Fe753     1.0  0.52453  0.35314  0.47237  1.0000
  H   H6002     1.0  0.68693  0.47987  0.49912  1.0000
  H   H6003     1.0  0.65215  0.37735  0.85609  1.0000
  C   C3770     1.0  0.84608  0.35630  0.76066  1.0000
  N   N372      1.0  0.98460  0.45489  0.87709  1.0000
  H   H6004     1.0  0.60842  0.24518  0.91015  1.0000
  C   C3771     1.0  0.50493  0.27090  0.72858  1.0000
  H   H6005     1.0  0.70462  0.24983  0.84275  1.0000
  H   H6006     1.0  0.74383  0.23866  0.85226  1.0000
  H   H6007     1.0  0.70169  0.37215  0.84620  1.0000
  C   C3772     1.0  0.91015  0.36176  0.73551  1.0000
  H   H6008     1.0  0.89211  0.47756  0.82556  1.0000
  H   H6009     1.0  0.90795  0.39775  0.94272  1.0000
  S   S1507     1.0  0.61023  0.26070  0.85409  1.0000
  H   H6010     1.0  0.55706  0.46951  0.88336  1.0000
  S   S1508     1.0  0.56945  0.25133  0.85943  1.0000
  Fe  Fe754     1.0  0.80488  0.26841  0.85536  1.0000
  S   S1509     1.0  0.79180  0.29026  0.84196  1.0000
  S   S1510     1.0  0.80960  0.24429  0.85048  1.0000
  Fe  Fe755     1.0  0.81089  0.28587  0.87621  1.0000
  S   S1511     1.0  0.79839  0.30918  0.86455  1.0000
  S   S1512     1.0  0.81937  0.28237  0.89807  1.0000
  Fe  Fe756     1.0  0.78050  0.29642  0.86516  1.0000
  S   S1513     1.0  0.75523  0.30858  0.87105  1.0000
  Fe  Fe757     1.0  0.81074  0.30120  0.84235  1.0000
  S   S1514     1.0  0.81837  0.31829  0.82034  1.0000
  S   S1515     1.0  0.79184  0.27363  0.87871  1.0000
  S   S1516     1.0  0.82500  0.27884  0.85384  1.0000
  C   C3773     1.0  0.80906  0.43424  0.78676  1.0000
  H   H6011     1.0  0.91981  0.37548  0.91141  1.0000
  Fe  Fe758     1.0  0.96210  0.39317  0.96075  1.0000
  H   H6012     1.0  0.68975  0.38979  0.83743  1.0000
  H   H6013     1.0  0.94259  0.42518  0.94036  1.0000
  H   H6014     1.0  0.58654  0.25745  0.78529  1.0000
  Fe  Fe759     1.0  0.89441  0.32312  0.93996  1.0000
  S   S1517     1.0  0.86963  0.33128  0.93712  1.0000
  S   S1518     1.0  0.91144  0.33824  0.93614  1.0000
  Fe  Fe760     1.0  0.87527  0.31266  0.92351  1.0000
  S   S1519     1.0  0.86964  0.31677  0.89995  1.0000
  S   S1520     1.0  0.90057  0.30633  0.92430  1.0000
  Fe  Fe761     1.0  0.65219  0.26731  0.91352  1.0000
  S   S1521     1.0  0.64692  0.28219  0.93092  1.0000
  S   S1522     1.0  0.63302  0.25569  0.91477  1.0000
  Fe  Fe762     1.0  0.68539  0.27220  0.90107  1.0000
  S   S1523     1.0  0.68269  0.28765  0.91729  1.0000
  S   S1524     1.0  0.70862  0.26409  0.88574  1.0000
  Fe  Fe763     1.0  0.67070  0.27003  0.93537  1.0000
  Fe  Fe764     1.0  0.65929  0.29837  0.91114  1.0000
  S   S1525     1.0  0.64855  0.32416  0.90788  1.0000
  S   S1526     1.0  0.67501  0.25376  0.91956  1.0000
  S   S1527     1.0  0.66293  0.28433  0.89330  1.0000
  H   H6015     1.0  0.79817  0.43385  0.79598  1.0000
  Fe  Fe765     1.0  0.59895  0.34057  0.74226  1.0000
  S   S1528     1.0  0.59844  0.32216  0.76418  1.0000
  H   H6016     1.0  0.50291  0.27964  0.73571  1.0000
  Fe  Fe766     1.0  0.56398  0.34845  0.74637  1.0000
  S   S1529     1.0  0.56014  0.33072  0.76891  1.0000
  S   S1530     1.0  0.54523  0.36552  0.73503  1.0000
  Fe  Fe767     1.0  0.57815  0.33922  0.77467  1.0000
  S   S1531     1.0  0.57799  0.34000  0.79903  1.0000
  Fe  Fe768     1.0  0.58061  0.31498  0.75673  1.0000
  S   S1532     1.0  0.58153  0.28914  0.76233  1.0000
  S   S1533     1.0  0.58013  0.35843  0.75331  1.0000
  S   S1534     1.0  0.58304  0.33193  0.73350  1.0000
  S   S1535     1.0  0.92957  0.44879  0.88920  1.0000
  Fe  Fe769     1.0  0.96494  0.45244  0.83554  1.0000
  H   H6017     1.0  0.54014  0.43269  0.83418  1.0000
  S   S1536     1.0  0.95548  0.43242  0.85221  1.0000
  Fe  Fe770     1.0  0.89823  0.37432  0.76831  1.0000
  S   S1537     1.0  0.88630  0.39952  0.76179  1.0000
  S   S1538     1.0  0.91715  0.36141  0.75169  1.0000
  Fe  Fe771     1.0  0.87560  0.36910  0.79977  1.0000
  S   S1539     1.0  0.86163  0.39372  0.79564  1.0000
  S   S1540     1.0  0.86904  0.35217  0.82233  1.0000
  Fe  Fe772     1.0  0.86429  0.39064  0.77155  1.0000
  S   S1541     1.0  0.84546  0.39855  0.75796  1.0000
  Fe  Fe773     1.0  0.88495  0.40027  0.78646  1.0000
  S   S1542     1.0  0.88681  0.42211  0.79227  1.0000
  S   S1543     1.0  0.87626  0.36543  0.77645  1.0000
  S   S1544     1.0  0.89893  0.37565  0.79229  1.0000
  Fe  Fe774     1.0  0.62010  0.38310  0.83949  1.0000
  S   S1545     1.0  0.59399  0.38808  0.84795  1.0000
  S   S1546     1.0  0.63590  0.35915  0.84122  1.0000
  Fe  Fe775     1.0  0.62101  0.41697  0.82504  1.0000
  S   S1547     1.0  0.59504  0.42496  0.83178  1.0000
  S   S1548     1.0  0.63611  0.43453  0.81421  1.0000
  Fe  Fe776     1.0  0.59728  0.40859  0.85471  1.0000
  S   S1549     1.0  0.58254  0.41786  0.87574  1.0000
  Fe  Fe777     1.0  0.59389  0.40396  0.82434  1.0000
  S   S1550     1.0  0.57655  0.40585  0.81016  1.0000
  S   S1551     1.0  0.62344  0.40210  0.84854  1.0000
  S   S1552     1.0  0.61980  0.39749  0.81526  1.0000
  C   C3774     1.0  0.53683  0.42704  0.78934  1.0000
  C   C3775     1.0  0.61359  0.25256  0.76382  1.0000
  H   H6018     1.0  0.93610  0.40295  0.90456  1.0000
  H   H6019     1.0  0.78099  0.45438  0.80695  1.0000
  S   S1553     1.0  0.96049  0.36789  0.96895  1.0000
  H   H6020     1.0  0.55447  0.23551  0.77508  1.0000
  H   H6021     1.0  0.83579  0.44317  0.77060  1.0000
  C   C3776     1.0  0.54731  0.43941  0.83658  1.0000
  H   H6022     1.0  0.87993  0.26032  0.96311  1.0000
  S   S1554     1.0  0.74776  0.40225  0.77797  1.0000
  H   H6023     1.0  0.66874  0.35306  0.86861  1.0000
  Fe  Fe778     1.0  0.73757  0.44358  0.78658  1.0000
  S   S1555     1.0  0.73757  0.42209  0.80586  1.0000
  C   C3777     1.0  0.97897  0.41982  0.80891  1.0000
  Fe  Fe779     1.0  0.75963  0.41178  0.79042  1.0000
  S   S1556     1.0  0.77916  0.39645  0.80183  1.0000
  Fe  Fe780     1.0  0.72557  0.41413  0.79216  1.0000
  S   S1557     1.0  0.70729  0.39982  0.80415  1.0000
  C   C3778     1.0  0.61454  0.25053  0.89883  1.0000
  S   S1558     1.0  0.72346  0.43665  0.77421  1.0000
  H   H6024     1.0  0.89372  0.38376  0.73651  1.0000
  H   H6025     1.0  0.64545  0.45876  0.84788  1.0000
  H   H6026     1.0  0.59209  0.23515  0.77272  1.0000
  C   C3779     1.0  0.68215  0.26872  0.96874  1.0000
  H   H6027     1.0  0.74866  0.26454  0.92234  1.0000
  H   H6028     1.0  0.67384  0.39308  0.86358  1.0000
  H   H6029     1.0  0.61837  0.26227  0.76446  1.0000
  C   C3780     1.0  0.52885  0.44325  0.86061  1.0000
  C   C3781     1.0  0.95480  0.35269  0.72761  1.0000
  C   C3782     1.0  0.96362  0.41457  0.90646  1.0000
  H   H6030     1.0  0.75875  0.44845  0.80100  1.0000
  H   H6031     1.0  0.51300  0.42908  0.77621  1.0000
  H   H6032     1.0  0.49865  0.42674  0.79404  1.0000
  C   C3783     1.0  0.95452  0.42495  0.89622  1.0000
  H   H6033     1.0  0.66099  0.39286  0.84323  1.0000
  C   C3784     1.0  0.67524  0.38015  0.86719  1.0000
  N   N373      1.0  0.85536  0.35414  0.74504  1.0000
  C   C3785     1.0  0.65596  0.42517  0.81044  1.0000
  C   C3786     1.0  0.66755  0.43382  0.80634  1.0000
  C   C3787     1.0  0.68343  0.42621  0.80398  1.0000
  C   C3788     1.0  0.68770  0.40996  0.80566  1.0000
  C   C3789     1.0  0.67610  0.40141  0.80942  1.0000
  C   C3790     1.0  0.66027  0.40897  0.81189  1.0000
  H   H6034     1.0  0.66427  0.44637  0.80514  1.0000
  H   H6035     1.0  0.69235  0.43287  0.80108  1.0000
  H   H6036     1.0  0.67936  0.38891  0.81036  1.0000
  H   H6037     1.0  0.65142  0.40225  0.81486  1.0000
  C   C3791     1.0  0.59267  0.42681  0.88322  1.0000
  C   C3792     1.0  0.68119  0.28478  0.96340  1.0000
  S   S1559     1.0  0.76080  0.43406  0.77231  1.0000
  H   H6038     1.0  0.96886  0.42039  0.78390  1.0000
  C   C3793     1.0  0.61690  0.42905  0.88745  1.0000
  C   C3794     1.0  0.60869  0.42125  0.88239  1.0000
  N   N374      1.0  0.67692  0.37328  0.85382  1.0000
  N   N375      1.0  0.54545  0.43758  0.85351  1.0000
  H   H6039     1.0  0.62931  0.42466  0.88681  1.0000
  H   H6040     1.0  0.61474  0.41080  0.87807  1.0000
  C   C3795     1.0  0.82718  0.39619  0.76968  1.0000
  C   C3796     1.0  0.81381  0.40265  0.76352  1.0000
  C   C3797     1.0  0.79896  0.40231  0.77326  1.0000
  C   C3798     1.0  0.79754  0.39546  0.78914  1.0000
  C   C3799     1.0  0.81096  0.38830  0.79511  1.0000
  C   C3800     1.0  0.82578  0.38867  0.78537  1.0000
  H   H6041     1.0  0.81488  0.40836  0.75132  1.0000
  H   H6042     1.0  0.78864  0.40758  0.76853  1.0000
  H   H6043     1.0  0.80991  0.38284  0.80735  1.0000
  S   S1560     1.0  0.93768  0.41463  0.83021  1.0000
  C   C3801     1.0  0.55507  0.44679  0.85616  1.0000
  H   H6044     1.0  0.55369  0.44593  0.86884  1.0000
  C   C3802     1.0  0.92343  0.41700  0.81975  1.0000
  C   C3803     1.0  0.91423  0.43172  0.81481  1.0000
  C   C3804     1.0  0.90302  0.43319  0.80635  1.0000
  C   C3805     1.0  0.90099  0.41998  0.80281  1.0000
  C   C3806     1.0  0.91023  0.40532  0.80775  1.0000
  C   C3807     1.0  0.92142  0.40383  0.81617  1.0000
  H   H6045     1.0  0.91579  0.44193  0.81748  1.0000
  H   H6046     1.0  0.89595  0.44455  0.80248  1.0000
  H   H6047     1.0  0.90878  0.39510  0.80510  1.0000
  H   H6048     1.0  0.92852  0.39244  0.81995  1.0000
  N   N376      1.0  0.49011  0.26841  0.72721  1.0000
  H   H6049     1.0  0.60189  0.26193  0.79074  1.0000
  H   H6050     1.0  0.54972  0.41921  0.87342  1.0000
  H   H6051     1.0  0.63160  0.34977  0.79510  1.0000
  Fe  Fe781     1.0  0.89385  0.28883  0.94607  1.0000
  S   S1561     1.0  0.62142  0.34736  0.72837  1.0000
  C   C3808     1.0  0.95935  0.41454  0.92242  1.0000
  H   H6052     1.0  0.83608  0.38345  0.79012  1.0000
  H   H6053     1.0  0.88947  0.23924  0.92873  1.0000
  C   C3809     1.0  0.55056  0.42091  0.86070  1.0000
  C   C3810     1.0  0.83678  0.43310  0.78072  1.0000
  C   C3811     1.0  0.53204  0.37666  0.74795  1.0000
  C   C3812     1.0  0.52952  0.37065  0.76403  1.0000
  C   C3813     1.0  0.51793  0.37905  0.77419  1.0000
  H   H6054     1.0  0.73245  0.25133  0.83871  1.0000
  C   C3814     1.0  0.51185  0.39984  0.75224  1.0000
  C   C3815     1.0  0.52345  0.39143  0.74210  1.0000
  H   H6055     1.0  0.53613  0.35931  0.76863  1.0000
  H   H6056     1.0  0.51571  0.37416  0.78660  1.0000
  Fe  Fe782     1.0  0.49224  0.47803  0.84172  1.0000
  H   H6057     1.0  0.82863  0.24826  0.76671  1.0000
  C   C3816     1.0  0.57716  0.35845  0.80203  1.0000
  C   C3817     1.0  0.57134  0.37226  0.79208  1.0000
  C   C3818     1.0  0.57109  0.38682  0.79464  1.0000
  C   C3819     1.0  0.57690  0.38760  0.80698  1.0000
  C   C3820     1.0  0.58286  0.37376  0.81678  1.0000
  C   C3821     1.0  0.58277  0.35925  0.81445  1.0000
  H   H6058     1.0  0.56688  0.37173  0.78253  1.0000
  H   H6059     1.0  0.56662  0.39746  0.78691  1.0000
  H   H6060     1.0  0.58738  0.37421  0.82630  1.0000
  H   H6061     1.0  0.58727  0.34861  0.82218  1.0000
  C   C3822     1.0  0.55368  0.27422  0.73666  1.0000
  C   C3823     1.0  0.56134  0.26328  0.74767  1.0000
  C   C3824     1.0  0.56963  0.26801  0.75565  1.0000
  C   C3825     1.0  0.57052  0.28369  0.75251  1.0000
  C   C3826     1.0  0.56280  0.29472  0.74153  1.0000
  H   H6062     1.0  0.83619  0.35070  0.73810  1.0000
  H   H6063     1.0  0.56089  0.25113  0.75002  1.0000
  H   H6064     1.0  0.57526  0.25947  0.76428  1.0000
  H   H6065     1.0  0.56335  0.30686  0.73908  1.0000
  H   H6066     1.0  0.97763  0.44059  0.86636  1.0000
  C   C3827     1.0  0.63937  0.34965  0.85977  1.0000
  C   C3828     1.0  0.65003  0.33523  0.86158  1.0000
  C   C3829     1.0  0.65302  0.32738  0.87631  1.0000
  C   C3830     1.0  0.64539  0.33397  0.88926  1.0000
  C   C3831     1.0  0.63495  0.34855  0.88738  1.0000
  C   C3832     1.0  0.63185  0.35635  0.87267  1.0000
  H   H6067     1.0  0.65599  0.33010  0.85157  1.0000
  H   H6068     1.0  0.66140  0.31636  0.87758  1.0000
  H   H6069     1.0  0.62908  0.35373  0.89738  1.0000
  H   H6070     1.0  0.62363  0.36752  0.87133  1.0000
  C   C3833     1.0  0.94120  0.43558  0.90180  1.0000
  H   H6071     1.0  0.52708  0.44236  0.87334  1.0000
  H   H6072     1.0  0.61264  0.46963  0.86797  1.0000
  S   S1562     1.0  0.95086  0.45481  0.81819  1.0000
  H   H6073     1.0  0.85408  0.25181  0.93098  1.0000
  S   S1563     1.0  0.62035  0.45299  0.89754  1.0000
  C   C3834     1.0  0.92788  0.35105  0.96611  1.0000
  H   H6074     1.0  0.66357  0.37502  0.83718  1.0000
  C   C3835     1.0  0.98672  0.43998  0.87256  1.0000
  H   H6075     1.0  0.98602  0.43009  0.88289  1.0000
  H   H6076     1.0  0.78642  0.23567  0.79533  1.0000
  H   H6077     1.0  0.92210  0.41279  0.91882  1.0000
  C   C3836     1.0  0.89869  0.35041  0.96238  1.0000
  C   C3837     1.0  0.91232  0.34396  0.95260  1.0000
  S   S1564     1.0  0.86889  0.29370  0.94417  1.0000
  H   H6078     1.0  0.87868  0.26121  0.89132  1.0000
  C   C3838     1.0  0.92927  0.37464  0.91724  1.0000
  H   H6079     1.0  0.88740  0.35061  0.96064  1.0000
  C   C3839     1.0  0.93697  0.43566  0.91775  1.0000
  H   H6080     1.0  0.92667  0.44387  0.92217  1.0000
  Fe  Fe783     1.0  0.93722  0.45068  0.86309  1.0000
  C   C3840     1.0  0.74238  0.29621  0.87483  1.0000
  C   C3841     1.0  0.72631  0.30185  0.87983  1.0000
  C   C3842     1.0  0.71588  0.29204  0.88317  1.0000
  C   C3843     1.0  0.72150  0.27655  0.88150  1.0000
  C   C3844     1.0  0.73758  0.27091  0.87647  1.0000
  C   C3845     1.0  0.74801  0.28072  0.87316  1.0000
  H   H6081     1.0  0.72193  0.31385  0.88107  1.0000
  H   H6082     1.0  0.70347  0.29655  0.88675  1.0000
  H   H6083     1.0  0.74202  0.25891  0.87526  1.0000
  H   H6084     1.0  0.76041  0.27630  0.86928  1.0000
  C   C3846     1.0  0.83183  0.29390  0.89815  1.0000
  C   C3847     1.0  0.84086  0.30098  0.88433  1.0000
  C   C3848     1.0  0.85215  0.30845  0.88494  1.0000
  C   C3849     1.0  0.85433  0.30894  0.89935  1.0000
  C   C3850     1.0  0.84480  0.30250  0.91310  1.0000
  C   C3851     1.0  0.83365  0.29491  0.91250  1.0000
  H   H6085     1.0  0.83952  0.30023  0.87321  1.0000
  H   H6086     1.0  0.85945  0.31347  0.87424  1.0000
  H   H6087     1.0  0.84612  0.30318  0.92423  1.0000
  H   H6088     1.0  0.82656  0.28961  0.92320  1.0000
  C   C3852     1.0  0.83202  0.32792  0.82141  1.0000
  C   C3853     1.0  0.83890  0.32348  0.83429  1.0000
  C   C3854     1.0  0.85016  0.33109  0.83463  1.0000
  C   C3855     1.0  0.85448  0.34315  0.82214  1.0000
  C   C3856     1.0  0.84724  0.34784  0.80951  1.0000
  C   C3857     1.0  0.83606  0.34022  0.80913  1.0000
  H   H6089     1.0  0.83573  0.31404  0.84385  1.0000
  H   H6090     1.0  0.85566  0.32746  0.84447  1.0000
  H   H6091     1.0  0.85025  0.35733  0.80004  1.0000
  H   H6092     1.0  0.83057  0.34383  0.79929  1.0000
  H   H6093     1.0  0.55214  0.25321  0.79208  1.0000
  C   C3858     1.0  0.61703  0.25870  0.87084  1.0000
  C   C3859     1.0  0.63005  0.26458  0.86960  1.0000
  C   C3860     1.0  0.63539  0.26332  0.88297  1.0000
  C   C3861     1.0  0.62754  0.25641  0.89763  1.0000
  H   H6094     1.0  0.84710  0.43286  0.78507  1.0000
  C   C3862     1.0  0.60932  0.25164  0.88548  1.0000
  H   H6095     1.0  0.63611  0.26996  0.85827  1.0000
  H   H6096     1.0  0.64554  0.26771  0.88194  1.0000
  H   H6097     1.0  0.56770  0.44260  0.85136  1.0000
  H   H6098     1.0  0.72473  0.25365  0.93194  1.0000
  C   C3863     1.0  0.69079  0.37693  0.84173  1.0000
  H   H6099     1.0  0.61307  0.34589  0.79609  1.0000
  C   C3864     1.0  0.74210  0.47234  0.74324  1.0000
  C   C3865     1.0  0.66281  0.37993  0.84729  1.0000
  C   C3866     1.0  0.74805  0.47264  0.79335  1.0000
  C   C3867     1.0  0.91250  0.23535  0.94821  1.0000
  C   C3868     1.0  0.77155  0.25030  0.83313  1.0000
  C   C3869     1.0  0.78230  0.25282  0.84000  1.0000
  C   C3870     1.0  0.79566  0.24123  0.84239  1.0000
  H   H6100     1.0  0.88392  0.46444  0.82051  1.0000
  H   H6101     1.0  0.84808  0.33309  0.74710  1.0000
  H   H6102     1.0  0.76134  0.25941  0.83116  1.0000
  H   H6103     1.0  0.78019  0.26372  0.84348  1.0000
  H   H6104     1.0  0.71583  0.27466  0.95528  1.0000
  C   C3871     1.0  0.59311  0.44807  0.89420  1.0000
  H   H6105     1.0  0.53509  0.43965  0.78916  1.0000
  H   H6106     1.0  0.93617  0.39532  0.93934  1.0000
  H   H6107     1.0  0.93958  0.37457  0.94199  1.0000
  H   H6108     1.0  0.81737  0.45929  0.78907  1.0000
  H   H6109     1.0  0.86110  0.37671  0.73813  1.0000
  Fe  Fe784     1.0  0.86508  0.31183  0.95802  1.0000
  C   C3872     1.0  0.81921  0.44873  0.79859  1.0000
  H   H6110     1.0  0.61327  0.44758  0.83935  1.0000
  S   S1565     1.0  0.53326  0.23219  0.75908  1.0000
  C   C3873     1.0  0.96886  0.45869  0.88709  1.0000
  C   C3874     1.0  0.86179  0.25983  0.92967  1.0000
  C   C3875     1.0  0.67878  0.35615  0.85910  1.0000
  H   H6111     1.0  0.76227  0.37424  0.82291  1.0000
  H   H6112     1.0  0.86114  0.25472  0.90258  1.0000
  H   H6113     1.0  0.52639  0.41656  0.81994  1.0000
  Fe  Fe785     1.0  0.59540  0.24362  0.85703  1.0000
  C   C3876     1.0  0.95154  0.23835  0.95217  1.0000
  H   H6114     1.0  0.67698  0.29090  0.95292  1.0000
  H   H6115     1.0  0.80849  0.44982  0.80807  1.0000
  S   S1566     1.0  0.59923  0.23203  0.83724  1.0000
  C   C3877     1.0  0.84839  0.34477  0.73915  1.0000
  H   H6116     1.0  0.97742  0.46891  0.85615  1.0000
  H   H6117     1.0  0.51491  0.43578  0.81382  1.0000
  H   H6118     1.0  0.94044  0.37427  0.90832  1.0000
  C   C3878     1.0  0.55905  0.23096  0.78547  1.0000
  H   H6119     1.0  0.54101  0.42560  0.77706  1.0000
  Fe  Fe786     1.0  0.54416  0.24232  0.73453  1.0000
  N   N377      1.0  0.62411  0.35724  0.77337  1.0000
  C   C3879     1.0  0.63436  0.36853  0.76651  1.0000
  C   C3880     1.0  0.63196  0.34234  0.76840  1.0000
  C   C3881     1.0  0.60934  0.36364  0.76799  1.0000
  H   H6120     1.0  0.63705  0.37092  0.75353  1.0000
  H   H6121     1.0  0.64566  0.36406  0.77028  1.0000
  H   H6122     1.0  0.62876  0.37990  0.77005  1.0000
  H   H6123     1.0  0.64316  0.33709  0.77226  1.0000
  H   H6124     1.0  0.63463  0.34404  0.75546  1.0000
  H   H6125     1.0  0.62445  0.33362  0.77325  1.0000
  H   H6126     1.0  0.60133  0.35543  0.77313  1.0000
  H   H6127     1.0  0.61140  0.36566  0.75507  1.0000
  H   H6128     1.0  0.60307  0.37493  0.77144  1.0000
  N   N378      1.0  0.61133  0.30748  0.88971  1.0000
  C   C3882     1.0  0.62126  0.30045  0.90123  1.0000
  C   C3883     1.0  0.59968  0.29802  0.89246  1.0000
  C   C3884     1.0  0.62116  0.30784  0.87381  1.0000
  C   C3885     1.0  0.60328  0.32362  0.89134  1.0000
  H   H6129     1.0  0.63016  0.30728  0.89956  1.0000
  H   H6130     1.0  0.62757  0.28832  0.90029  1.0000
  H   H6131     1.0  0.61427  0.29986  0.91339  1.0000
  H   H6132     1.0  0.59195  0.30296  0.88399  1.0000
  H   H6133     1.0  0.60545  0.28581  0.89121  1.0000
  H   H6134     1.0  0.59218  0.29730  0.90442  1.0000
  H   H6135     1.0  0.61405  0.31297  0.86480  1.0000
  H   H6136     1.0  0.62757  0.29590  0.87221  1.0000
  H   H6137     1.0  0.63002  0.31491  0.87133  1.0000
  H   H6138     1.0  0.59580  0.32381  0.90323  1.0000
  H   H6139     1.0  0.59574  0.32936  0.88277  1.0000
  H   H6140     1.0  0.61184  0.33098  0.88936  1.0000
  H   H6141     1.0  0.95826  0.40939  0.80097  1.0000
  H   H6142     1.0  0.97199  0.39956  0.78654  1.0000
  H   H6143     1.0  0.74709  0.28504  0.92047  1.0000
  H   H6144     1.0  0.80115  0.24843  0.80544  1.0000
  H   H6145     1.0  0.79301  0.23284  0.77578  1.0000
  H   H6146     1.0  0.85527  0.34274  0.72747  1.0000
  C   C3886     1.0  0.56364  0.23528  0.80868  1.0000
  H   H6147     1.0  0.72129  0.30228  0.92776  1.0000
  H   H6148     1.0  0.82907  0.44920  0.80320  1.0000
  C   C3887     1.0  0.60922  0.44263  0.89307  1.0000
  H   H6149     1.0  0.90102  0.38945  0.93092  1.0000
  C   C3888     1.0  0.76168  0.41446  0.72693  1.0000
  H   H6150     1.0  0.84614  0.34495  0.76927  1.0000
  H   H6151     1.0  0.73461  0.26217  0.95017  1.0000
  C   C3889     1.0  0.50987  0.43056  0.78845  1.0000
  H   H6152     1.0  0.71411  0.29613  0.91463  1.0000
  S   S1567     1.0  0.73243  0.46855  0.78878  1.0000
  H   H6153     1.0  0.59916  0.24724  0.88656  1.0000
  H   H6154     1.0  0.81766  0.23921  0.75964  1.0000
  C   C3890     1.0  0.62315  0.23540  0.78613  1.0000
  H   H6155     1.0  0.85074  0.36374  0.76521  1.0000
  C   C3891     1.0  0.91081  0.38806  0.93652  1.0000
  H   H6156     1.0  0.51209  0.25989  0.73427  1.0000
  H   H6157     1.0  0.77228  0.46662  0.74446  1.0000
  C   C3892     1.0  0.92690  0.34402  0.95472  1.0000
  S   S1568     1.0  0.49379  0.40336  0.78099  1.0000
  H   H6158     1.0  0.52462  0.45577  0.85540  1.0000
  H   H6159     1.0  0.61456  0.36543  0.79472  1.0000
  H   H6160     1.0  0.74946  0.46218  0.73817  1.0000
  C   C3893     1.0  0.58481  0.44002  0.88947  1.0000
  C   C3894     1.0  0.80738  0.25240  0.79321  1.0000
  H   H6161     1.0  0.54640  0.42049  0.79556  1.0000
  H   H6162     1.0  0.93749  0.33892  0.94728  1.0000
  C   C3895     1.0  0.60934  0.45625  0.84691  1.0000
  C   C3896     1.0  0.74097  0.27635  0.91979  1.0000
  H   H6163     1.0  0.92520  0.33975  0.73140  1.0000
  S   S1569     1.0  0.49176  0.45683  0.83398  1.0000
  C   C3897     1.0  0.81662  0.24728  0.76725  1.0000
  H   H6164     1.0  0.58709  0.45849  0.89864  1.0000
  C   C3898     1.0  0.98319  0.39192  0.81250  1.0000
  H   H6165     1.0  0.78859  0.38059  0.73444  1.0000
  H   H6166     1.0  0.85449  0.27189  0.92859  1.0000
  H   H6167     1.0  0.97978  0.34975  0.73907  1.0000
  C   C3899     1.0  0.92488  0.40263  0.91330  1.0000
  C   C3900     1.0  0.51729  0.42327  0.81322  1.0000
  H   H6168     1.0  0.73218  0.47747  0.73729  1.0000
  C   C3901     1.0  0.79264  0.24055  0.78345  1.0000
  H   H6169     1.0  0.97214  0.33236  0.74706  1.0000
  H   H6170     1.0  0.95777  0.42460  0.88404  1.0000
  H   H6171     1.0  0.52868  0.40287  0.78452  1.0000
  C   C3902     1.0  0.62579  0.47302  0.82884  1.0000
  H   H6172     1.0  0.64005  0.44412  0.84202  1.0000
  H   H6173     1.0  0.83943  0.42226  0.77625  1.0000
  H   H6174     1.0  0.98581  0.38185  0.80689  1.0000
  N   N379      1.0  0.52227  0.42139  0.79692  1.0000
  H   H6175     1.0  0.95513  0.36373  0.73031  1.0000
  H   H6176     1.0  0.54844  0.29850  0.72511  1.0000
  H   H6177     1.0  0.71751  0.23308  0.88014  1.0000
  C   C3903     1.0  0.88155  0.47646  0.82249  1.0000
  H   H6178     1.0  0.92448  0.23505  0.94201  1.0000
  S   S1570     1.0  0.56218  0.24830  0.82031  1.0000
  H   H6179     1.0  0.72773  0.25381  0.85835  1.0000
  C   C3904     1.0  0.88454  0.24237  0.91820  1.0000
  H   H6180     1.0  0.82638  0.40942  0.80248  1.0000
  N   N380      1.0  0.82231  0.43417  0.79307  1.0000
  H   H6181     1.0  0.73993  0.27872  0.90748  1.0000
  S   S1571     1.0  0.94768  0.47074  0.84752  1.0000
  H   H6182     1.0  0.48814  0.25112  0.74866  1.0000
  C   C3905     1.0  0.93843  0.38575  0.93313  1.0000
  H   H6183     1.0  0.81914  0.25332  0.79364  1.0000
  Fe  Fe787     1.0  0.93984  0.43628  0.83595  1.0000
  H   H6184     1.0  0.50753  0.44327  0.78818  1.0000
  H   H6185     1.0  0.68564  0.37533  0.87249  1.0000
  C   C3906     1.0  0.90297  0.24917  0.95230  1.0000
  H   H6186     1.0  0.59861  0.46452  0.84379  1.0000
  C   C3907     1.0  0.87161  0.34592  0.74600  1.0000
  H   H6187     1.0  0.54363  0.45190  0.83081  1.0000
  H   H6188     1.0  0.50635  0.41908  0.81929  1.0000
  H   H6189     1.0  0.81017  0.25901  0.76205  1.0000
  N   N381      1.0  0.87505  0.25853  0.91609  1.0000
  C   C3908     1.0  0.55437  0.28998  0.73362  1.0000
  H   H6190     1.0  0.68957  0.35061  0.86366  1.0000
  H   H6191     1.0  0.95155  0.23762  0.94024  1.0000
  H   H6192     1.0  0.69241  0.37200  0.83140  1.0000
  H   H6193     1.0  0.52117  0.43658  0.85896  1.0000
  H   H6194     1.0  0.78947  0.36749  0.82613  1.0000
  H   H6195     1.0  0.60599  0.44976  0.85910  1.0000
  H   H6196     1.0  0.63022  0.46486  0.82072  1.0000
  H   H6197     1.0  0.98487  0.47894  0.86581  1.0000
  Fe  Fe788     1.0  0.74677  0.42554  0.76118  1.0000
  H   H6198     1.0  0.56298  0.41622  0.85545  1.0000
  S   S1572     1.0  0.88950  0.30515  0.96196  1.0000
  C   C3909     1.0  0.77168  0.40240  0.73500  1.0000
  S   S1573     1.0  0.75058  0.43054  0.73507  1.0000
  H   H6199     1.0  0.55171  0.45941  0.85070  1.0000
  C   C3910     1.0  0.85539  0.36958  0.73429  1.0000
  C   C3911     1.0  0.77235  0.46380  0.80213  1.0000
  C   C3912     1.0  0.71579  0.29326  0.92676  1.0000
  C   C3913     1.0  0.55776  0.24099  0.79513  1.0000
  H   H6200     1.0  0.54340  0.41361  0.85921  1.0000
  H   H6201     1.0  0.96251  0.32163  0.73024  1.0000
  C   C3914     1.0  0.94593  0.42506  0.92808  1.0000
  Fe  Fe789     1.0  0.57318  0.23789  0.84108  1.0000
  C   C3915     1.0  0.63573  0.45300  0.84938  1.0000
  H   H6202     1.0  0.84332  0.37646  0.73374  1.0000
  N   N382      1.0  0.92586  0.38776  0.92505  1.0000
  S   S1574     1.0  0.76050  0.23339  0.81991  1.0000
  H   H6203     1.0  0.81350  0.42103  0.81578  1.0000
  H   H6204     1.0  0.67940  0.35065  0.84944  1.0000
  H   H6205     1.0  0.66480  0.37769  0.87649  1.0000
  H   H6206     1.0  0.94999  0.38565  0.92486  1.0000
  N   N383      1.0  0.56631  0.29413  0.81119  1.0000
  C   C3916     1.0  0.55886  0.28823  0.80226  1.0000
  C   C3917     1.0  0.57012  0.28179  0.82479  1.0000
  C   C3918     1.0  0.55551  0.30796  0.81656  1.0000
  C   C3919     1.0  0.58080  0.29860  0.80112  1.0000
  H   H6207     1.0  0.55576  0.29726  0.79193  1.0000
  H   H6208     1.0  0.54805  0.28440  0.80958  1.0000
  H   H6209     1.0  0.56678  0.27795  0.79782  1.0000
  H   H6210     1.0  0.57551  0.28589  0.83198  1.0000
  H   H6211     1.0  0.55949  0.27780  0.83244  1.0000
  H   H6212     1.0  0.57851  0.27130  0.82113  1.0000
  H   H6213     1.0  0.56087  0.31286  0.82312  1.0000
  H   H6214     1.0  0.54446  0.30500  0.82429  1.0000
  H   H6215     1.0  0.55243  0.31750  0.80655  1.0000
  H   H6216     1.0  0.57822  0.30798  0.79090  1.0000
  H   H6217     1.0  0.58914  0.28858  0.79657  1.0000
  H   H6218     1.0  0.58677  0.30311  0.80745  1.0000
  C   C3920     1.0  0.71777  0.26578  0.92909  1.0000
  C   C3921     1.0  0.52509  0.40469  0.79667  1.0000
  H   H6219     1.0  0.53447  0.39739  0.80284  1.0000
  S   S1575     1.0  0.54316  0.26824  0.72678  1.0000
  C   C3922     1.0  0.82418  0.42058  0.80622  1.0000
  H   H6220     1.0  0.91563  0.40446  0.90687  1.0000
  H   H6221     1.0  0.89418  0.47501  0.79259  1.0000
  S   S1576     1.0  0.67637  0.25813  0.95885  1.0000
  H   H6222     1.0  0.60332  0.25809  0.75838  1.0000
  C   C3923     1.0  0.98629  0.46749  0.86292  1.0000
  C   C3924     1.0  0.50889  0.39349  0.76827  1.0000
  H   H6223     1.0  0.81146  0.42391  0.78163  1.0000
  N   N384      1.0  0.60918  0.24259  0.77940  1.0000
  H   H6224     1.0  0.62017  0.31554  0.73052  1.0000
  H   H6225     1.0  0.55970  0.43513  0.83086  1.0000
  N   N385      1.0  0.77645  0.35094  0.82681  1.0000
  C   C3925     1.0  0.78782  0.35553  0.83243  1.0000
  C   C3926     1.0  0.77451  0.33507  0.83553  1.0000
  C   C3927     1.0  0.78227  0.35104  0.81001  1.0000
  C   C3928     1.0  0.76123  0.36212  0.82926  1.0000
  H   H6226     1.0  0.79948  0.34738  0.83061  1.0000
  H   H6227     1.0  0.78394  0.35543  0.84510  1.0000
  H   H6228     1.0  0.78575  0.32633  0.83383  1.0000
  H   H6229     1.0  0.77033  0.33448  0.84829  1.0000
  H   H6230     1.0  0.76595  0.33120  0.83172  1.0000
  H   H6231     1.0  0.79379  0.34275  0.80777  1.0000
  H   H6232     1.0  0.78386  0.36286  0.80312  1.0000
  H   H6233     1.0  0.77403  0.34761  0.80533  1.0000
  H   H6234     1.0  0.75243  0.35910  0.82497  1.0000
  H   H6235     1.0  0.75649  0.36230  0.84182  1.0000
  C   C3929     1.0  0.62072  0.35445  0.79056  1.0000
  N   N386      1.0  0.72119  0.23398  0.85571  1.0000
  H   H6236     1.0  0.62256  0.24572  0.75576  1.0000
  C   C3930     1.0  0.70514  0.24291  0.85478  1.0000
  H   H6237     1.0  0.80662  0.44486  0.77747  1.0000
  H   H6238     1.0  0.97737  0.43136  0.80064  1.0000
  C   C3931     1.0  0.97863  0.33906  0.73627  1.0000
  H   H6239     1.0  0.50562  0.37421  0.73558  1.0000
  C   C3932     1.0  0.77401  0.23611  0.82877  1.0000
  Fe  Fe790     1.0  0.93258  0.47155  0.83156  1.0000
  H   H6240     1.0  0.97392  0.40634  0.90207  1.0000
  H   H6241     1.0  0.78539  0.25222  0.77931  1.0000
  H   H6242     1.0  0.75994  0.47153  0.76216  1.0000
  C   C3933     1.0  0.96984  0.40913  0.79269  1.0000
  H   H6243     1.0  0.63320  0.44668  0.86177  1.0000
  H   H6244     1.0  0.73296  0.28265  0.94849  1.0000
  H   H6245     1.0  0.96728  0.44957  0.89805  1.0000
  N   N387      1.0  0.80851  0.24154  0.78341  1.0000
  N   N388      1.0  0.87994  0.35250  0.86260  1.0000
  C   C3934     1.0  0.88409  0.36565  0.84976  1.0000
  C   C3935     1.0  0.88422  0.35337  0.87670  1.0000
  C   C3936     1.0  0.88849  0.33752  0.85808  1.0000
  C   C3937     1.0  0.86295  0.35343  0.86587  1.0000
  H   H6246     1.0  0.89684  0.36526  0.84693  1.0000
  H   H6247     1.0  0.87778  0.37714  0.85272  1.0000
  H   H6248     1.0  0.88107  0.36540  0.83890  1.0000
  H   H6249     1.0  0.87792  0.36449  0.88047  1.0000
  H   H6250     1.0  0.88126  0.34366  0.88666  1.0000
  H   H6251     1.0  0.89698  0.35257  0.87468  1.0000
  H   H6252     1.0  0.88559  0.32737  0.86755  1.0000
  H   H6253     1.0  0.90135  0.33635  0.85548  1.0000
  H   H6254     1.0  0.88544  0.33648  0.84751  1.0000
  H   H6255     1.0  0.85945  0.34365  0.87553  1.0000
  H   H6256     1.0  0.85936  0.35269  0.85548  1.0000
  H   H6257     1.0  0.85605  0.36456  0.86928  1.0000
  H   H6258     1.0  0.59410  0.24509  0.80168  1.0000
  H   H6259     1.0  0.83370  0.36226  0.76039  1.0000
  C   C3938     1.0  0.68549  0.29301  0.97181  1.0000
  C   C3939     1.0  0.76429  0.47647  0.74961  1.0000
  H   H6260     1.0  0.87208  0.33442  0.75439  1.0000
  H   H6261     1.0  0.57237  0.44418  0.89035  1.0000
  H   H6262     1.0  0.93918  0.35104  0.96761  1.0000
  H   H6263     1.0  0.88948  0.26702  0.92539  1.0000
  H   H6264     1.0  0.89498  0.26882  0.90467  1.0000
  N   N389      1.0  0.62173  0.46449  0.84518  1.0000
  H   H6265     1.0  0.51433  0.40002  0.80229  1.0000
  H   H6266     1.0  0.93038  0.36320  0.92569  1.0000
  S   S1577     1.0  0.91099  0.26563  0.94764  1.0000
  H   H6267     1.0  0.77255  0.40287  0.74638  1.0000
  C   C3940     1.0  0.91621  0.34950  0.72757  1.0000
  C   C3941     1.0  0.59743  0.25220  0.78973  1.0000
  C   C3942     1.0  0.75968  0.46046  0.79891  1.0000
  H   H6268     1.0  0.87803  0.28184  0.91306  1.0000
  H   H6269     1.0  0.70602  0.26620  0.93709  1.0000
  C   C3943     1.0  0.86903  0.26239  0.90178  1.0000
  C   C3944     1.0  0.89835  0.37418  0.73060  1.0000
  H   H6270     1.0  0.83420  0.42004  0.81115  1.0000
  C   C3945     1.0  0.88481  0.26952  0.91474  1.0000
  H   H6271     1.0  0.70402  0.29447  0.93472  1.0000
  H   H6272     1.0  0.87747  0.35290  0.74984  1.0000
  S   S1578     1.0  0.92052  0.45298  0.84816  1.0000
  C   C3946     1.0  0.72733  0.27406  0.94683  1.0000
  H   H6273     1.0  0.80083  0.26436  0.78879  1.0000
  H   H6274     1.0  0.50523  0.41121  0.74766  1.0000
  N   N390      1.0  0.72547  0.27735  0.93062  1.0000
  H   H6275     1.0  0.71616  0.26789  0.91699  1.0000
  H   H6276     1.0  0.86589  0.25691  0.94066  1.0000
  H   H6277     1.0  0.52583  0.39636  0.72972  1.0000
  H   H6278     1.0  0.48945  0.38901  0.74227  1.0000
  S   S1579     1.0  0.97113  0.40112  0.93473  1.0000
  H   H6279     1.0  0.91116  0.37705  0.94552  1.0000
  C   C3947     1.0  0.61607  0.47568  0.85558  1.0000
  H   H6280     1.0  0.96807  0.41983  0.81815  1.0000
  H   H6281     1.0  0.94769  0.34632  0.73815  1.0000
  C   C3948     1.0  0.78079  0.38983  0.72820  1.0000
  S   S1580     1.0  0.48822  0.47762  0.86712  1.0000
  H   H6282     1.0  0.70078  0.25126  0.86271  1.0000
  H   H6283     1.0  0.63509  0.47940  0.82712  1.0000
  H   H6284     1.0  0.62876  0.24443  0.78692  1.0000
  H   H6285     1.0  0.98508  0.45783  0.80081  1.0000
  H   H6286     1.0  0.89455  0.24084  0.90810  1.0000
  H   H6287     1.0  0.86218  0.27464  0.89964  1.0000
  H   H6288     1.0  0.86194  0.36842  0.72228  1.0000
  N   N391      1.0  0.98239  0.40690  0.80088  1.0000
  H   H6289     1.0  0.54212  0.47503  0.95917  1.0000
  H   H6290     1.0  0.95953  0.45954  0.88105  1.0000
  C   C3949     1.0  0.77368  0.47929  0.79945  1.0000
  H   H6291     1.0  0.95893  0.24665  0.95092  1.0000
  H   H6292     1.0  0.87746  0.23371  0.91971  1.0000
  H   H6293     1.0  0.69682  0.23504  0.85817  1.0000
  H   H6294     1.0  0.73712  0.46760  0.75570  1.0000
  C   C3950     1.0  0.73174  0.24492  0.85107  1.0000
  C   C3951     1.0  0.88729  0.24969  0.95981  1.0000
  H   H6295     1.0  0.97188  0.39173  0.82123  1.0000
  H   H6296     1.0  0.93935  0.24365  0.95759  1.0000
  C   C3952     1.0  0.49323  0.37999  0.73513  1.0000
  H   H6297     1.0  0.87173  0.47751  0.83284  1.0000
  H   H6298     1.0  0.87881  0.34377  0.73446  1.0000
  H   H6299     1.0  0.96669  0.47004  0.89046  1.0000
  H   H6300     1.0  0.86587  0.47490  0.80224  1.0000
  S   S1581     1.0  0.52902  0.47646  0.87254  1.0000
  C   C3953     1.0  0.88120  0.23628  0.96330  1.0000
  Fe  Fe791     1.0  0.60820  0.47555  0.90540  1.0000
  H   H6301     1.0  0.68476  0.30547  0.96769  1.0000
  H   H6302     1.0  0.86910  0.23660  0.96919  1.0000
  C   C3954     1.0  0.60251  0.23018  0.77799  1.0000
  N   N392      1.0  0.97062  0.34305  0.72327  1.0000
  S   S1582     1.0  0.53283  0.23035  0.72379  1.0000
  H   H6303     1.0  0.50072  0.24569  0.72231  1.0000
  H   H6304     1.0  0.56040  0.47993  0.94847  1.0000
  H   H6305     1.0  0.81077  0.60897  0.20171  1.0000
  C   C3955     1.0  0.95044  0.59884  0.12570  1.0000
  H   H6306     1.0  0.56805  0.49081  0.02730  1.0000
  H   H6307     1.0  0.58572  0.71907  0.20040  1.0000
  H   H6308     1.0  0.67954  0.52496  0.12457  1.0000
  C   C3956     1.0  0.77013  0.51796  0.16850  1.0000
  H   H6309     1.0  0.56575  0.50084  0.04232  1.0000
  S   S1583     1.0  0.94117  0.65798  0.97417  1.0000
  Fe  Fe792     1.0  0.59200  0.64168  0.20633  1.0000
  Fe  Fe793     1.0  0.91499  0.71208  0.98146  1.0000
  S   S1584     1.0  0.61460  0.63542  0.18910  1.0000
  H   H6310     1.0  0.52906  0.71985  0.21622  1.0000
  S   S1585     1.0  0.83880  0.62036  0.19177  1.0000
  H   H6311     1.0  0.95659  0.70464  0.98005  1.0000
  H   H6312     1.0  0.92957  0.48268  0.08542  1.0000
  C   C3957     1.0  0.68657  0.69356  0.98349  1.0000
  C   C3958     1.0  0.55408  0.52959  0.02660  1.0000
  H   H6313     1.0  0.53386  0.53415  0.06672  1.0000
  C   C3959     1.0  0.53518  0.52160  0.07051  1.0000
  C   C3960     1.0  0.60049  0.51093  0.98978  1.0000
  C   C3961     1.0  0.74956  0.49666  0.21377  1.0000
  H   H6314     1.0  0.81770  0.68462  0.15526  1.0000
  H   H6315     1.0  0.90060  0.63874  0.08207  1.0000
  S   S1586     1.0  0.82713  0.71310  0.08812  1.0000
  C   C3962     1.0  0.74999  0.70880  0.08950  1.0000
  H   H6316     1.0  0.53891  0.49840  0.03012  1.0000
  H   H6317     1.0  0.73986  0.49046  0.19131  1.0000
  H   H6318     1.0  0.75856  0.49554  0.22028  1.0000
  S   S1587     1.0  0.53122  0.60532  0.16878  1.0000
  H   H6319     1.0  0.60042  0.55597  0.01252  1.0000
  Fe  Fe794     1.0  0.49619  0.57082  0.17075  1.0000
  H   H6320     1.0  0.94633  0.70015  0.00846  1.0000
  C   C3963     1.0  0.83020  0.68259  0.15562  1.0000
  H   H6321     1.0  0.97643  0.67067  0.21112  1.0000
  N   N393      1.0  0.98160  0.60580  0.15189  1.0000
  H   H6322     1.0  0.92563  0.50634  0.09560  1.0000
  H   H6323     1.0  0.55257  0.52899  0.03921  1.0000
  C   C3964     1.0  0.59741  0.49595  0.99553  1.0000
  Fe  Fe795     1.0  0.88142  0.64609  0.15239  1.0000
  C   C3965     1.0  0.57335  0.71922  0.20393  1.0000
  S   S1588     1.0  0.88433  0.65939  0.12754  1.0000
  H   H6324     1.0  0.79278  0.60601  0.18743  1.0000
  C   C3966     1.0  0.95159  0.58521  0.13742  1.0000
  C   C3967     1.0  0.90244  0.62185  0.11977  1.0000
  S   S1589     1.0  0.87981  0.62091  0.15947  1.0000
  S   S1590     1.0  0.87862  0.62333  0.19499  1.0000
  N   N394      1.0  0.62447  0.55565  0.01087  1.0000
  H   H6325     1.0  0.97131  0.64071  0.97922  1.0000
  H   H6326     1.0  0.94230  0.57443  0.16119  1.0000
  H   H6327     1.0  0.56020  0.51704  0.06704  1.0000
  H   H6328     1.0  0.72513  0.48933  0.20902  1.0000
  H   H6329     1.0  0.58619  0.58587  0.15896  1.0000
  Fe  Fe796     1.0  0.98580  0.58243  0.10451  1.0000
  H   H6330     1.0  0.65879  0.72534  0.99260  1.0000
  H   H6331     1.0  0.75940  0.70129  0.05318  1.0000
  C   C3968     1.0  0.92280  0.67248  0.20549  1.0000
  H   H6332     1.0  0.68216  0.67187  0.02961  1.0000
  H   H6333     1.0  0.52911  0.51870  0.02849  1.0000
  S   S1591     1.0  0.79993  0.70293  0.07801  1.0000
  N   N395      1.0  0.90551  0.62220  0.10297  1.0000
  C   C3969     1.0  0.48894  0.54564  0.15404  1.0000
  H   H6334     1.0  0.82883  0.70859  0.16489  1.0000
  Fe  Fe797     1.0  0.81402  0.69390  0.09628  1.0000
  S   S1592     1.0  0.82366  0.66831  0.10375  1.0000
  C   C3970     1.0  0.60890  0.55323  0.02007  1.0000
  C   C3971     1.0  0.73684  0.48335  0.20328  1.0000
  H   H6335     1.0  0.83999  0.69397  0.00247  1.0000
  C   C3972     1.0  0.82825  0.71019  0.15256  1.0000
  S   S1593     1.0  0.79587  0.70527  0.11423  1.0000
  H   H6336     1.0  0.83297  0.72067  0.14565  1.0000
  H   H6337     1.0  0.51933  0.66528  0.20671  1.0000
  C   C3973     1.0  0.92255  0.61897  0.09649  1.0000
  H   H6338     1.0  0.55792  0.58086  0.13132  1.0000
  Fe  Fe798     1.0  0.89045  0.69272  0.99336  1.0000
  S   S1594     1.0  0.87128  0.68456  0.01282  1.0000
  C   C3974     1.0  0.58781  0.57678  0.13279  1.0000
  S   S1595     1.0  0.91467  0.68838  0.99689  1.0000
  H   H6339     1.0  0.84830  0.67205  0.98020  1.0000
  H   H6340     1.0  0.56749  0.51953  0.00028  1.0000
  Fe  Fe799     1.0  0.67188  0.69285  0.07580  1.0000
  S   S1596     1.0  0.68878  0.68999  0.05309  1.0000
  S   S1597     1.0  0.65811  0.67560  0.09241  1.0000
  Fe  Fe800     1.0  0.70276  0.70245  0.06031  1.0000
  S   S1598     1.0  0.72906  0.69624  0.05598  1.0000
  N   N396      1.0  0.96700  0.68601  0.99690  1.0000
  S   S1599     1.0  0.60367  0.52117  0.00200  1.0000
  S   S1600     1.0  0.68695  0.70314  0.08383  1.0000
  H   H6341     1.0  0.77732  0.59391  0.21285  1.0000
  C   C3975     1.0  0.85355  0.69293  0.14701  1.0000
  H   H6342     1.0  0.71713  0.51314  0.13711  1.0000
  Fe  Fe801     1.0  0.66967  0.56979  0.13285  1.0000
  S   S1601     1.0  0.67740  0.56554  0.10866  1.0000
  S   S1602     1.0  0.68583  0.56017  0.14955  1.0000
  Fe  Fe802     1.0  0.63705  0.58707  0.12862  1.0000
  S   S1603     1.0  0.64196  0.58450  0.10387  1.0000
  S   S1604     1.0  0.61321  0.59929  0.13994  1.0000
  Fe  Fe803     1.0  0.65399  0.55980  0.11288  1.0000
  S   S1605     1.0  0.65280  0.53731  0.10771  1.0000
  Fe  Fe804     1.0  0.66482  0.59046  0.10175  1.0000
  S   S1606     1.0  0.67666  0.60681  0.08161  1.0000
  S   S1607     1.0  0.64724  0.56191  0.13789  1.0000
  S   S1608     1.0  0.65889  0.59516  0.12569  1.0000
  C   C3976     1.0  0.67428  0.70665  0.98200  1.0000
  S   S1609     1.0  0.62785  0.50872  0.03405  1.0000
  H   H6343     1.0  0.65952  0.68419  0.01726  1.0000
  Fe  Fe805     1.0  0.59070  0.49472  0.05955  1.0000
  S   S1610     1.0  0.58979  0.51941  0.04600  1.0000
  H   H6344     1.0  0.86178  0.67693  0.98810  1.0000
  Fe  Fe806     1.0  0.60645  0.50893  0.02653  1.0000
  Fe  Fe807     1.0  0.61121  0.51767  0.05443  1.0000
  S   S1611     1.0  0.61356  0.53976  0.05932  1.0000
  H   H6345     1.0  0.53742  0.50832  0.04497  1.0000
  S   S1612     1.0  0.61059  0.49381  0.06988  1.0000
  S   S1613     1.0  0.73184  0.50865  0.16221  1.0000
  Fe  Fe808     1.0  0.74222  0.59618  0.16910  1.0000
  S   S1614     1.0  0.74208  0.57631  0.19005  1.0000
  S   S1615     1.0  0.72330  0.60641  0.15525  1.0000
  Fe  Fe809     1.0  0.77495  0.59918  0.16844  1.0000
  H   H6346     1.0  0.96509  0.59113  0.16315  1.0000
  S   S1616     1.0  0.79311  0.61325  0.15450  1.0000
  H   H6347     1.0  0.82703  0.70951  0.99236  1.0000
  H   H6348     1.0  0.97766  0.60707  0.12940  1.0000
  H   H6349     1.0  0.66774  0.51972  0.14365  1.0000
  S   S1617     1.0  0.50375  0.54984  0.15989  1.0000
  S   S1618     1.0  0.76619  0.58613  0.15640  1.0000
  S   S1619     1.0  0.75089  0.61095  0.17939  1.0000
  S   S1620     1.0  0.50038  0.59357  0.15497  1.0000
  S   S1621     1.0  0.87726  0.66514  0.20022  1.0000
  H   H6350     1.0  0.56877  0.60461  0.12451  1.0000
  H   H6351     1.0  0.72807  0.70711  0.10583  1.0000
  C   C3977     1.0  0.57068  0.60160  0.13656  1.0000
  H   H6352     1.0  0.84452  0.62937  0.21739  1.0000
  H   H6353     1.0  0.78262  0.51326  0.16636  1.0000
  C   C3978     1.0  0.74425  0.51685  0.16750  1.0000
  H   H6354     1.0  0.96724  0.66220  0.99759  1.0000
  C   C3979     1.0  0.57619  0.58123  0.15880  1.0000
  H   H6355     1.0  0.70535  0.49026  0.14450  1.0000
  C   C3980     1.0  0.74782  0.53792  0.17659  1.0000
  C   C3981     1.0  0.73800  0.53045  0.17336  1.0000
  H   H6356     1.0  0.74293  0.54853  0.18089  1.0000
  H   H6357     1.0  0.72557  0.53539  0.17514  1.0000
  H   H6358     1.0  0.65831  0.67878  0.05922  1.0000
  S   S1622     1.0  0.96237  0.59945  0.10689  1.0000
  H   H6359     1.0  0.65654  0.66516  0.01883  1.0000
  H   H6360     1.0  0.55723  0.61477  0.17288  1.0000
  N   N397      1.0  0.83695  0.69616  0.14631  1.0000
  H   H6361     1.0  0.63474  0.57448  0.99558  1.0000
  C   C3982     1.0  0.69514  0.57365  0.15177  1.0000
  C   C3983     1.0  0.69555  0.58796  0.14109  1.0000
  C   C3984     1.0  0.70396  0.59807  0.14247  1.0000
  C   C3985     1.0  0.71202  0.59394  0.15450  1.0000
  C   C3986     1.0  0.71135  0.57978  0.16534  1.0000
  C   C3987     1.0  0.70302  0.56962  0.16391  1.0000
  H   H6362     1.0  0.68982  0.59103  0.13149  1.0000
  H   H6363     1.0  0.70461  0.60889  0.13392  1.0000
  H   H6364     1.0  0.71740  0.57654  0.17473  1.0000
  H   H6365     1.0  0.70272  0.55859  0.17222  1.0000
  C   C3988     1.0  0.64184  0.53814  0.09423  1.0000
  C   C3989     1.0  0.64079  0.52418  0.09133  1.0000
  C   C3990     1.0  0.63215  0.52448  0.08068  1.0000
  C   C3991     1.0  0.62448  0.53878  0.07285  1.0000
  C   C3992     1.0  0.62555  0.55273  0.07572  1.0000
  C   C3993     1.0  0.63419  0.55242  0.08637  1.0000
  H   H6366     1.0  0.64666  0.51309  0.09738  1.0000
  H   H6367     1.0  0.63140  0.51367  0.07855  1.0000
  H   H6368     1.0  0.61967  0.56383  0.06972  1.0000
  H   H6369     1.0  0.63495  0.56323  0.08845  1.0000
  S   S1623     1.0  0.50684  0.57307  0.18911  1.0000
  H   H6370     1.0  0.97881  0.62707  0.15913  1.0000
  H   H6371     1.0  0.84088  0.70899  0.12250  1.0000
  C   C3994     1.0  0.98602  0.51570  0.07681  1.0000
  H   H6372     1.0  0.61508  0.57565  0.99458  1.0000
  C   C3995     1.0  0.68775  0.69840  0.00796  1.0000
  H   H6373     1.0  0.94642  0.50373  0.09249  1.0000
  H   H6374     1.0  0.56012  0.60775  0.14390  1.0000
  H   H6375     1.0  0.70292  0.67941  0.99762  1.0000
  H   H6376     1.0  0.69315  0.69534  0.01781  1.0000
  C   C3996     1.0  0.66368  0.65642  0.08958  1.0000
  C   C3997     1.0  0.67785  0.65127  0.07973  1.0000
  C   C3998     1.0  0.68179  0.63600  0.07726  1.0000
  C   C3999     1.0  0.67173  0.62578  0.08492  1.0000
  C   C4000     1.0  0.65769  0.63086  0.09501  1.0000
  C   C4001     1.0  0.65365  0.64618  0.09729  1.0000
  H   H6377     1.0  0.68580  0.65900  0.07406  1.0000
  H   H6378     1.0  0.69274  0.63202  0.06959  1.0000
  H   H6379     1.0  0.64977  0.62310  0.10078  1.0000
  H   H6380     1.0  0.64263  0.65014  0.10487  1.0000
  C   C4002     1.0  0.89471  0.68058  0.20789  1.0000
  H   H6381     1.0  0.93397  0.65207  0.19583  1.0000
  S   S1624     1.0  0.65794  0.71615  0.06592  1.0000
  H   H6382     1.0  0.97347  0.62972  0.14096  1.0000
  C   C4003     1.0  0.72855  0.70167  0.08424  1.0000
  C   C4004     1.0  0.73728  0.70012  0.06933  1.0000
  C   C4005     1.0  0.75258  0.70245  0.06471  1.0000
  C   C4006     1.0  0.55649  0.51566  0.00690  1.0000
  H   H6383     1.0  0.51976  0.64464  0.21271  1.0000
  H   H6384     1.0  0.90755  0.63063  0.12185  1.0000
  Fe  Fe810     1.0  0.81126  0.72341  0.07136  1.0000
  S   S1625     1.0  0.89006  0.71731  0.97963  1.0000
  H   H6385     1.0  0.63152  0.53298  0.00520  1.0000
  C   C4007     1.0  0.83729  0.70497  0.04451  1.0000
  C   C4008     1.0  0.84846  0.69393  0.03688  1.0000
  C   C4009     1.0  0.85788  0.69877  0.02231  1.0000
  Fe  Fe811     1.0  0.80765  0.72552  0.10448  1.0000
  C   C4010     1.0  0.84454  0.72573  0.02277  1.0000
  H   H6386     1.0  0.83022  0.70111  0.05584  1.0000
  H   H6387     1.0  0.84987  0.68162  0.04234  1.0000
  Fe  Fe812     1.0  0.89705  0.61862  0.17366  1.0000
  H   H6388     1.0  0.59802  0.48992  0.00736  1.0000
  H   H6389     1.0  0.88968  0.62466  0.12491  1.0000
  S   S1626     1.0  0.98010  0.49029  0.07067  1.0000
  H   H6390     1.0  0.70784  0.52167  0.12089  1.0000
  C   C4011     1.0  0.48899  0.50185  0.17244  1.0000
  H   H6391     1.0  0.65404  0.65254  0.06172  1.0000
  S   S1627     1.0  0.50371  0.52748  0.07325  1.0000
  H   H6392     1.0  0.93425  0.50516  0.11143  1.0000
  H   H6393     1.0  0.58639  0.57911  0.12063  1.0000
  C   C4012     1.0  0.81314  0.61244  0.18914  1.0000
  C   C4013     1.0  0.97774  0.69500  0.99785  1.0000
  C   C4014     1.0  0.83581  0.69891  0.12996  1.0000
  C   C4015     1.0  0.56019  0.57847  0.14316  1.0000
  C   C4016     1.0  0.80589  0.61515  0.16482  1.0000
  C   C4017     1.0  0.85615  0.70761  0.97509  1.0000
  C   C4018     1.0  0.93583  0.50039  0.10102  1.0000
  S   S1628     1.0  0.56799  0.64844  0.20129  1.0000
  H   H6394     1.0  0.58069  0.60651  0.13620  1.0000
  H   H6395     1.0  0.82140  0.62482  0.14410  1.0000
  C   C4019     1.0  0.83518  0.72085  0.03738  1.0000
  C   C4020     1.0  0.86801  0.66106  0.12040  1.0000
  C   C4021     1.0  0.85667  0.65256  0.12906  1.0000
  C   C4022     1.0  0.84329  0.65441  0.12359  1.0000
  C   C4023     1.0  0.84111  0.66498  0.10961  1.0000
  C   C4024     1.0  0.85257  0.67331  0.10081  1.0000
  C   C4025     1.0  0.86612  0.67123  0.10615  1.0000
  H   H6396     1.0  0.85813  0.64465  0.14005  1.0000
  H   H6397     1.0  0.83442  0.64795  0.13038  1.0000
  H   H6398     1.0  0.85097  0.68135  0.08991  1.0000
  H   H6399     1.0  0.87493  0.67777  0.09941  1.0000
  C   C4026     1.0  0.93019  0.59845  0.15524  1.0000
  C   C4027     1.0  0.94148  0.58502  0.15218  1.0000
  C   C4028     1.0  0.93933  0.61230  0.12888  1.0000
  C   C4029     1.0  0.92916  0.61208  0.14355  1.0000
  H   H6400     1.0  0.57873  0.56846  0.16391  1.0000
  H   H6401     1.0  0.93867  0.62299  0.12002  1.0000
  H   H6402     1.0  0.92065  0.62253  0.14585  1.0000
  H   H6403     1.0  0.96212  0.60758  0.17158  1.0000
  C   C4030     1.0  0.82641  0.61848  0.18103  1.0000
  H   H6404     1.0  0.94472  0.68078  0.00934  1.0000
  H   H6405     1.0  0.90751  0.61018  0.12641  1.0000
  H   H6406     1.0  0.60406  0.56053  0.02899  1.0000
  H   H6407     1.0  0.56567  0.58679  0.16667  1.0000
  C   C4031     1.0  0.59336  0.48875  0.98595  1.0000
  H   H6408     1.0  0.86228  0.70455  0.98477  1.0000
  H   H6409     1.0  0.54433  0.53889  0.02255  1.0000
  H   H6410     1.0  0.50435  0.53851  0.13344  1.0000
  H   H6411     1.0  0.90247  0.64723  0.09682  1.0000
  C   C4032     1.0  0.53928  0.50975  0.03215  1.0000
  Fe  Fe813     1.0  0.74080  0.48352  0.16033  1.0000
  C   C4033     1.0  0.89816  0.63780  0.09486  1.0000
  C   C4034     1.0  0.90861  0.68277  0.20979  1.0000
  S   S1629     1.0  0.77775  0.57915  0.18898  1.0000
  C   C4035     1.0  0.76029  0.51044  0.16532  1.0000
  H   H6412     1.0  0.76522  0.50003  0.16062  1.0000
  C   C4036     1.0  0.69332  0.68947  0.99647  1.0000
  H   H6413     1.0  0.59050  0.56389  0.13723  1.0000
  C   C4037     1.0  0.52194  0.51514  0.07526  1.0000
  C   C4038     1.0  0.52365  0.49894  0.08043  1.0000
  H   H6414     1.0  0.48841  0.60411  0.21493  1.0000
  C   C4039     1.0  0.55190  0.49570  0.07514  1.0000
  C   C4040     1.0  0.55011  0.51192  0.07056  1.0000
  H   H6415     1.0  0.57859  0.50579  0.02385  1.0000
  H   H6416     1.0  0.51346  0.49389  0.08410  1.0000
  C   C4041     1.0  0.96241  0.69200  0.98172  1.0000
  S   S1630     1.0  0.75700  0.71547  0.10192  1.0000
  C   C4042     1.0  0.54122  0.61407  0.21137  1.0000
  C   C4043     1.0  0.55199  0.61590  0.19707  1.0000
  C   C4044     1.0  0.54882  0.61348  0.18388  1.0000
  C   C4045     1.0  0.53488  0.60922  0.18499  1.0000
  C   C4046     1.0  0.52403  0.60774  0.19918  1.0000
  Fe  Fe814     1.0  0.78256  0.71591  0.09528  1.0000
  H   H6417     1.0  0.51324  0.60465  0.19996  1.0000
  C   C4047     1.0  0.67567  0.66288  0.03718  1.0000
  C   C4048     1.0  0.61366  0.62444  0.17649  1.0000
  C   C4049     1.0  0.59989  0.62648  0.17161  1.0000
  C   C4050     1.0  0.59974  0.61851  0.16057  1.0000
  C   C4051     1.0  0.61337  0.60848  0.15438  1.0000
  C   C4052     1.0  0.62698  0.60604  0.15965  1.0000
  C   C4053     1.0  0.62713  0.61401  0.17065  1.0000
  H   H6418     1.0  0.58947  0.63454  0.17597  1.0000
  H   H6419     1.0  0.58914  0.62039  0.15661  1.0000
  H   H6420     1.0  0.63737  0.59789  0.15537  1.0000
  H   H6421     1.0  0.63764  0.61192  0.17481  1.0000
  H   H6422     1.0  0.59828  0.58100  0.13224  1.0000
  H   H6423     1.0  0.97198  0.70758  0.99716  1.0000
  H   H6424     1.0  0.56206  0.56562  0.14789  1.0000
  H   H6425     1.0  0.60952  0.54089  0.02647  1.0000
  C   C4054     1.0  0.90913  0.65786  0.19729  1.0000
  S   S1631     1.0  0.66690  0.72177  0.02157  1.0000
  H   H6426     1.0  0.70509  0.53253  0.13546  1.0000
  N   N398      1.0  0.57372  0.58451  0.14283  1.0000
  H   H6427     1.0  0.75262  0.50452  0.20216  1.0000
  H   H6428     1.0  0.54670  0.52429  0.00221  1.0000
  H   H6429     1.0  0.81570  0.71305  0.15202  1.0000
  H   H6430     1.0  0.88598  0.61215  0.10581  1.0000
  C   C4055     1.0  0.76395  0.53191  0.17382  1.0000
  H   H6431     1.0  0.92534  0.61871  0.08392  1.0000
  Fe  Fe815     1.0  0.67449  0.72632  0.07197  1.0000
  Fe  Fe816     1.0  0.86148  0.62804  0.17991  1.0000
  C   C4056     1.0  0.60009  0.51836  0.97420  1.0000
  H   H6432     1.0  0.95999  0.57470  0.13502  1.0000
  H   H6433     1.0  0.83090  0.68009  0.16804  1.0000
  C   C4057     1.0  0.67513  0.71120  0.00672  1.0000
  H   H6434     1.0  0.82345  0.70149  0.12895  1.0000
  S   S1632     1.0  0.89993  0.64341  0.16514  1.0000
  H   H6435     1.0  0.63652  0.53922  0.02791  1.0000
  Fe  Fe817     1.0  0.76666  0.56712  0.17803  1.0000
  H   H6436     1.0  0.55730  0.50423  0.00425  1.0000
  H   H6437     1.0  0.65334  0.64659  0.04492  1.0000
  H   H6438     1.0  0.52450  0.56220  0.22144  1.0000
  S   S1633     1.0  0.92712  0.72754  0.98682  1.0000
  H   H6439     1.0  0.56523  0.53337  0.02044  1.0000
  C   C4058     1.0  0.97495  0.66932  0.99844  1.0000
  H   H6440     1.0  0.77037  0.70942  0.07073  1.0000
  Fe  Fe818     1.0  0.50892  0.59683  0.17426  1.0000
  N   N399      1.0  0.55424  0.51435  0.02380  1.0000
  H   H6441     1.0  0.84940  0.71990  0.97435  1.0000
  C   C4059     1.0  0.89493  0.66808  0.20171  1.0000
  H   H6442     1.0  0.56291  0.61885  0.19623  1.0000
  H   H6443     1.0  0.76786  0.48113  0.19205  1.0000
  Fe  Fe819     1.0  0.75305  0.59004  0.19926  1.0000
  H   H6444     1.0  0.83650  0.67182  0.15112  1.0000
  C   C4060     1.0  0.85556  0.68062  0.97836  1.0000
  H   H6445     1.0  0.95591  0.68366  0.02121  1.0000
  S   S1634     1.0  0.57065  0.48331  0.07352  1.0000
  N   N400      1.0  0.66085  0.64044  0.14411  1.0000
  C   C4061     1.0  0.65992  0.65444  0.13125  1.0000
  C   C4062     1.0  0.64857  0.64376  0.15797  1.0000
  C   C4063     1.0  0.67639  0.63628  0.14793  1.0000
  C   C4064     1.0  0.65855  0.62726  0.13924  1.0000
  H   H6446     1.0  0.66903  0.65238  0.12059  1.0000
  H   H6447     1.0  0.66157  0.66468  0.13442  1.0000
  H   H6448     1.0  0.64839  0.65786  0.12795  1.0000
  H   H6449     1.0  0.63664  0.64619  0.15577  1.0000
  H   H6450     1.0  0.64933  0.63372  0.16814  1.0000
  H   H6451     1.0  0.64949  0.65407  0.16159  1.0000
  H   H6452     1.0  0.67843  0.64581  0.15197  1.0000
  H   H6453     1.0  0.68593  0.63403  0.13763  1.0000
  H   H6454     1.0  0.67768  0.62550  0.15733  1.0000
  H   H6455     1.0  0.64683  0.62985  0.13650  1.0000
  H   H6456     1.0  0.65943  0.61640  0.14856  1.0000
  H   H6457     1.0  0.66745  0.62464  0.12862  1.0000
  H   H6458     1.0  0.66053  0.69207  0.04053  1.0000
  H   H6459     1.0  0.98115  0.52241  0.06685  1.0000
  C   C4065     1.0  0.81905  0.62141  0.15668  1.0000
  H   H6460     1.0  0.48730  0.50176  0.18498  1.0000
  H   H6461     1.0  0.83956  0.62765  0.15843  1.0000
  H   H6462     1.0  0.63762  0.66121  0.05278  1.0000
  H   H6463     1.0  0.86045  0.68243  0.14233  1.0000
  H   H6464     1.0  0.54934  0.58400  0.15062  1.0000
  C   C4066     1.0  0.55219  0.70578  0.21010  1.0000
  H   H6465     1.0  0.57649  0.69508  0.20313  1.0000
  H   H6466     1.0  0.90073  0.61019  0.08829  1.0000
  H   H6467     1.0  0.84209  0.68853  0.12496  1.0000
  H   H6468     1.0  0.95028  0.48046  0.08220  1.0000
  C   C4067     1.0  0.75886  0.70696  0.07470  1.0000
  H   H6469     1.0  0.67639  0.53633  0.13874  1.0000
  H   H6470     1.0  0.90421  0.59824  0.10676  1.0000
  S   S1635     1.0  0.60563  0.48432  0.03930  1.0000
  N   N401      1.0  0.78156  0.65559  0.12362  1.0000
  C   C4068     1.0  0.78840  0.65774  0.13550  1.0000
  C   C4069     1.0  0.79269  0.64374  0.11534  1.0000
  C   C4070     1.0  0.77829  0.67061  0.11234  1.0000
  C   C4071     1.0  0.76688  0.65019  0.13134  1.0000
  H   H6471     1.0  0.79960  0.66159  0.13013  1.0000
  H   H6472     1.0  0.79097  0.64663  0.14421  1.0000
  H   H6473     1.0  0.78038  0.66667  0.14191  1.0000
  H   H6474     1.0  0.78792  0.64178  0.10630  1.0000
  H   H6475     1.0  0.80394  0.64736  0.10943  1.0000
  H   H6476     1.0  0.79548  0.63229  0.12352  1.0000
  H   H6477     1.0  0.77300  0.66949  0.10325  1.0000
  H   H6478     1.0  0.78919  0.67487  0.10622  1.0000
  H   H6479     1.0  0.77006  0.67992  0.11815  1.0000
  H   H6480     1.0  0.76141  0.64836  0.12275  1.0000
  H   H6481     1.0  0.75820  0.65882  0.13772  1.0000
  H   H6482     1.0  0.76901  0.63887  0.13993  1.0000
  N   N402      1.0  0.65861  0.66924  0.04012  1.0000
  H   H6483     1.0  0.64082  0.67968  0.02685  1.0000
  H   H6484     1.0  0.86317  0.71856  0.00409  1.0000
  C   C4072     1.0  0.98191  0.62254  0.14831  1.0000
  Fe  Fe820     1.0  0.56302  0.66588  0.21612  1.0000
  S   S1636     1.0  0.77663  0.54194  0.17620  1.0000
  H   H6485     1.0  0.67989  0.65871  0.04818  1.0000
  H   H6486     1.0  0.53330  0.65244  0.21747  1.0000
  S   S1637     1.0  0.58760  0.66089  0.21916  1.0000
  H   H6487     1.0  0.50174  0.49821  0.16763  1.0000
  C   C4073     1.0  0.80295  0.61072  0.18107  1.0000
  H   H6488     1.0  0.64189  0.68756  0.05032  1.0000
  H   H6489     1.0  0.95404  0.68568  0.98076  1.0000
  H   H6490     1.0  0.90937  0.64812  0.19261  1.0000
  S   S1638     1.0  0.54539  0.68874  0.21301  1.0000
  H   H6491     1.0  0.98189  0.69039  0.00894  1.0000
  Fe  Fe821     1.0  0.87995  0.64842  0.18515  1.0000
  N   N403      1.0  0.74821  0.56068  0.12859  1.0000
  C   C4074     1.0  0.76135  0.56663  0.11709  1.0000
  C   C4075     1.0  0.75134  0.54349  0.13095  1.0000
  C   C4076     1.0  0.73360  0.56778  0.12294  1.0000
  C   C4077     1.0  0.74650  0.56486  0.14352  1.0000
  H   H6492     1.0  0.75934  0.57957  0.11522  1.0000
  H   H6493     1.0  0.76299  0.56377  0.10561  1.0000
  H   H6494     1.0  0.77250  0.56146  0.12111  1.0000
  H   H6495     1.0  0.74135  0.53876  0.13918  1.0000
  H   H6496     1.0  0.75328  0.53981  0.11984  1.0000
  H   H6497     1.0  0.76185  0.53769  0.13597  1.0000
  H   H6498     1.0  0.72353  0.56332  0.13133  1.0000
  H   H6499     1.0  0.73449  0.56514  0.11155  1.0000
  H   H6500     1.0  0.73062  0.58073  0.12149  1.0000
  H   H6501     1.0  0.75733  0.55983  0.14813  1.0000
  H   H6502     1.0  0.73683  0.56039  0.15249  1.0000
  H   H6503     1.0  0.74384  0.57776  0.14231  1.0000
  S   S1639     1.0  0.86153  0.65353  0.17153  1.0000
  C   C4078     1.0  0.63532  0.55162  0.02142  1.0000
  C   C4079     1.0  0.65467  0.68247  0.04789  1.0000
  C   C4080     1.0  0.95288  0.68773  0.00957  1.0000
  C   C4081     1.0  0.52718  0.61018  0.21233  1.0000
  C   C4082     1.0  0.63042  0.54557  0.99938  1.0000
  C   C4083     1.0  0.89881  0.61016  0.10085  1.0000
  H   H6504     1.0  0.49544  0.48850  0.14815  1.0000
  N   N404      1.0  0.69247  0.51416  0.14265  1.0000
  C   C4084     1.0  0.69043  0.51373  0.15934  1.0000
  C   C4085     1.0  0.67843  0.52420  0.13717  1.0000
  C   C4086     1.0  0.69480  0.49814  0.14050  1.0000
  C   C4087     1.0  0.70625  0.52066  0.13359  1.0000
  H   H6505     1.0  0.68908  0.52560  0.16133  1.0000
  H   H6506     1.0  0.70071  0.50604  0.16392  1.0000
  H   H6507     1.0  0.67993  0.50926  0.16651  1.0000
  H   H6508     1.0  0.92795  0.62804  0.09754  1.0000
  Fe  Fe822     1.0  0.62554  0.48497  0.04871  1.0000
  H   H6509     1.0  0.63104  0.55885  0.03041  1.0000
  H   H6510     1.0  0.69638  0.49800  0.12804  1.0000
  H   H6511     1.0  0.68467  0.49281  0.14723  1.0000
  H   H6512     1.0  0.92855  0.60748  0.10267  1.0000
  C   C4088     1.0  0.62319  0.57222  0.00263  1.0000
  H   H6513     1.0  0.67905  0.65284  0.03138  1.0000
  H   H6514     1.0  0.71693  0.69954  0.08807  1.0000
  H   H6515     1.0  0.97851  0.66437  0.00981  1.0000
  C   C4089     1.0  0.82935  0.62300  0.16476  1.0000
  C   C4090     1.0  0.56816  0.70564  0.20552  1.0000
  C   C4091     1.0  0.53863  0.48923  0.08031  1.0000
  C   C4092     1.0  0.65052  0.65686  0.05029  1.0000
  C   C4093     1.0  0.65363  0.67478  0.02512  1.0000
  H   H6516     1.0  0.88524  0.64039  0.09919  1.0000
  S   S1640     1.0  0.91781  0.59830  0.17379  1.0000
  H   H6517     1.0  0.61870  0.58012  0.01100  1.0000
  C   C4094     1.0  0.73494  0.70587  0.09433  1.0000
  H   H6518     1.0  0.85904  0.70288  0.14003  1.0000
  C   C4095     1.0  0.56722  0.50240  0.02956  1.0000
  C   C4096     1.0  0.66850  0.71537  0.99366  1.0000
  C   C4097     1.0  0.83426  0.69747  0.99238  1.0000
  S   S1641     1.0  0.94025  0.67450  0.20847  1.0000
  C   C4098     1.0  0.96576  0.60363  0.16039  1.0000
  C   C4099     1.0  0.92304  0.66008  0.19916  1.0000
  H   H6519     1.0  0.85491  0.69072  0.15920  1.0000
  H   H6520     1.0  0.95693  0.61039  0.15337  1.0000
  Fe  Fe823     1.0  0.67595  0.71414  0.04367  1.0000
  C   C4100     1.0  0.85600  0.71470  0.01531  1.0000
  C   C4101     1.0  0.49255  0.53991  0.14047  1.0000
  H   H6521     1.0  0.82626  0.68950  0.99459  1.0000
  H   H6522     1.0  0.81745  0.62753  0.22000  1.0000
  H   H6523     1.0  0.62238  0.54813  0.99139  1.0000
  Fe  Fe824     1.0  0.92242  0.67998  0.97462  1.0000
  C   C4102     1.0  0.52101  0.65481  0.21634  1.0000
  H   H6524     1.0  0.49096  0.67057  0.22004  1.0000
  C   C4103     1.0  0.54144  0.71964  0.21277  1.0000
  N   N405      1.0  0.74879  0.48124  0.21215  1.0000
  H   H6525     1.0  0.64720  0.55334  0.01496  1.0000
  S   S1642     1.0  0.69137  0.72645  0.04887  1.0000
  N   N406      1.0  0.84597  0.69672  0.97757  1.0000
  H   H6526     1.0  0.64213  0.54709  0.99216  1.0000
  H   H6527     1.0  0.88376  0.68860  0.21116  1.0000
  H   H6528     1.0  0.92147  0.48309  0.12743  1.0000
  H   H6529     1.0  0.98551  0.58780  0.13945  1.0000
  C   C4104     1.0  0.98581  0.60035  0.13721  1.0000
  H   H6530     1.0  0.91283  0.48431  0.11160  1.0000
  N   N407      1.0  0.93756  0.48324  0.10519  1.0000
  H   H6531     1.0  0.90834  0.69244  0.21455  1.0000
  C   C4105     1.0  0.98335  0.66476  0.22023  1.0000
  S   S1643     1.0  0.95744  0.70294  0.21962  1.0000
  H   H6532     1.0  0.73816  0.50268  0.22006  1.0000
  H   H6533     1.0  0.98575  0.66765  0.98914  1.0000
  S   S1644     1.0  0.89804  0.68192  0.97254  1.0000
  C   C4106     1.0  0.98707  0.49946  0.08126  1.0000
  H   H6534     1.0  0.95014  0.48003  0.12289  1.0000
  C   C4107     1.0  0.55682  0.62799  0.30691  1.0000
  Fe  Fe825     1.0  0.62053  0.67525  0.32437  1.0000
  S   S1645     1.0  0.60178  0.66876  0.34536  1.0000
  Fe  Fe826     1.0  0.57489  0.59483  0.36167  1.0000
  S   S1646     1.0  0.55659  0.60519  0.38026  1.0000
  S   S1647     1.0  0.58387  0.60954  0.33855  1.0000
  Fe  Fe827     1.0  0.57652  0.56177  0.38040  1.0000
  S   S1648     1.0  0.55841  0.56914  0.40080  1.0000
  S   S1649     1.0  0.58597  0.53604  0.38146  1.0000
  Fe  Fe828     1.0  0.54565  0.58534  0.38287  1.0000
  S   S1650     1.0  0.51982  0.58916  0.38561  1.0000
  Fe  Fe829     1.0  0.57097  0.58828  0.39659  1.0000
  S   S1651     1.0  0.57548  0.59354  0.41733  1.0000
  S   S1652     1.0  0.56263  0.57637  0.36272  1.0000
  S   S1653     1.0  0.59036  0.57954  0.37773  1.0000
  H   H6535     1.0  0.83754  0.61248  0.26007  1.0000
  H   H6536     1.0  0.56221  0.63657  0.29706  1.0000
  Fe  Fe830     1.0  0.54800  0.67245  0.44089  1.0000
  S   S1654     1.0  0.54051  0.66513  0.46699  1.0000
  S   S1655     1.0  0.54456  0.66358  0.42182  1.0000
  H   H6537     1.0  0.72388  0.70032  0.30126  1.0000
  H   H6538     1.0  0.83873  0.50211  0.42750  1.0000
  S   S1656     1.0  0.55424  0.69473  0.46806  1.0000
  S   S1657     1.0  0.57187  0.67442  0.44088  1.0000
  C   C4108     1.0  0.59168  0.69283  0.23724  1.0000
  C   C4109     1.0  0.59651  0.53963  0.41800  1.0000
  H   H6539     1.0  0.52966  0.54270  0.24615  1.0000
  C   C4110     1.0  0.70464  0.49638  0.41928  1.0000
  C   C4111     1.0  0.51711  0.62817  0.42600  1.0000
  H   H6540     1.0  0.54155  0.56854  0.25089  1.0000
  H   H6541     1.0  0.52391  0.66928  0.23692  1.0000
  C   C4112     1.0  0.51187  0.67098  0.23533  1.0000
  H   H6542     1.0  0.66842  0.70870  0.34835  1.0000
  S   S1658     1.0  0.65408  0.51625  0.39231  1.0000
  C   C4113     1.0  0.78552  0.59314  0.23297  1.0000
  C   C4114     1.0  0.57633  0.48705  0.36061  1.0000
  C   C4115     1.0  0.78150  0.59266  0.24898  1.0000
  H   H6543     1.0  0.88420  0.68183  0.24032  1.0000
  Fe  Fe831     1.0  0.65431  0.49688  0.41364  1.0000
  H   H6544     1.0  0.49838  0.57760  0.25531  1.0000
  C   C4116     1.0  0.73647  0.62422  0.26361  1.0000
  H   H6545     1.0  0.89286  0.58544  0.39366  1.0000
  Fe  Fe832     1.0  0.83427  0.52549  0.44474  1.0000
  S   S1659     1.0  0.64174  0.67980  0.32846  1.0000
  C   C4117     1.0  0.81454  0.51234  0.42696  1.0000
  H   H6546     1.0  0.71958  0.69241  0.33698  1.0000
  Fe  Fe833     1.0  0.84890  0.66202  0.38324  1.0000
  S   S1660     1.0  0.86148  0.68033  0.36722  1.0000
  S   S1661     1.0  0.85134  0.64858  0.40752  1.0000
  Fe  Fe834     1.0  0.83133  0.66225  0.35954  1.0000
  S   S1662     1.0  0.84214  0.68062  0.34137  1.0000
  S   S1663     1.0  0.81349  0.65048  0.35780  1.0000
  Fe  Fe835     1.0  0.86449  0.66732  0.34870  1.0000
  S   S1664     1.0  0.88811  0.66272  0.33247  1.0000
  Fe  Fe836     1.0  0.83829  0.69244  0.36102  1.0000
  H   H6547     1.0  0.49280  0.62601  0.41616  1.0000
  S   S1665     1.0  0.85402  0.64781  0.36528  1.0000
  S   S1666     1.0  0.82531  0.67528  0.37870  1.0000
  H   H6548     1.0  0.49837  0.60849  0.43019  1.0000
  C   C4118     1.0  0.48915  0.53764  0.29450  1.0000
  Fe  Fe837     1.0  0.86692  0.50669  0.44539  1.0000
  H   H6549     1.0  0.89536  0.66920  0.40827  1.0000
  S   S1667     1.0  0.84359  0.50305  0.46026  1.0000
  C   C4119     1.0  0.58935  0.72569  0.45862  1.0000
  H   H6550     1.0  0.56757  0.51832  0.35213  1.0000
  H   H6551     1.0  0.70878  0.70912  0.32566  1.0000
  C   C4120     1.0  0.82857  0.50132  0.42416  1.0000
  H   H6552     1.0  0.68611  0.66812  0.29353  1.0000
  S   S1668     1.0  0.58322  0.64050  0.26455  1.0000
  H   H6553     1.0  0.53341  0.63000  0.39641  1.0000
  H   H6554     1.0  0.51313  0.63843  0.39654  1.0000
  Fe  Fe838     1.0  0.91872  0.70577  0.25047  1.0000
  C   C4121     1.0  0.71487  0.50553  0.40898  1.0000
  S   S1669     1.0  0.89478  0.70815  0.26617  1.0000
  Fe  Fe839     1.0  0.95394  0.69551  0.24553  1.0000
  H   H6555     1.0  0.83819  0.64031  0.23241  1.0000
  C   C4122     1.0  0.70923  0.69660  0.33159  1.0000
  C   C4123     1.0  0.57855  0.49264  0.38404  1.0000
  H   H6556     1.0  0.88895  0.62618  0.44065  1.0000
  C   C4124     1.0  0.81547  0.62666  0.23275  1.0000
  N   N408      1.0  0.57927  0.49873  0.36717  1.0000
  H   H6557     1.0  0.97178  0.48048  0.45937  1.0000
  S   S1670     1.0  0.93529  0.68274  0.24843  1.0000
  H   H6558     1.0  0.49066  0.55829  0.27630  1.0000
  Fe  Fe840     1.0  0.76212  0.63216  0.29069  1.0000
  S   S1671     1.0  0.78532  0.63107  0.27385  1.0000
  S   S1672     1.0  0.74283  0.65252  0.28406  1.0000
  Fe  Fe841     1.0  0.77414  0.60241  0.31282  1.0000
  S   S1673     1.0  0.79833  0.59903  0.29774  1.0000
  S   S1674     1.0  0.76683  0.58531  0.33507  1.0000
  Fe  Fe842     1.0  0.79533  0.62478  0.29506  1.0000
  S   S1675     1.0  0.81561  0.63490  0.29384  1.0000
  Fe  Fe843     1.0  0.78605  0.60557  0.27814  1.0000
  S   S1676     1.0  0.79563  0.59313  0.25836  1.0000
  S   S1677     1.0  0.77192  0.62787  0.31172  1.0000
  S   S1678     1.0  0.76198  0.60702  0.29326  1.0000
  C   C4125     1.0  0.89582  0.55742  0.46655  1.0000
  S   S1679     1.0  0.86571  0.56498  0.43863  1.0000
  C   C4126     1.0  0.63307  0.51729  0.47050  1.0000
  H   H6559     1.0  0.54110  0.60583  0.41568  1.0000
  S   S1680     1.0  0.63087  0.67799  0.26611  1.0000
  C   C4127     1.0  0.96143  0.63923  0.47165  1.0000
  S   S1681     1.0  0.80217  0.51516  0.33496  1.0000
  S   S1682     1.0  0.78871  0.50537  0.37933  1.0000
  C   C4128     1.0  0.80252  0.49944  0.41497  1.0000
  C   C4129     1.0  0.80147  0.51124  0.42253  1.0000
  H   H6560     1.0  0.89637  0.71802  0.32692  1.0000
  H   H6561     1.0  0.79052  0.51954  0.42497  1.0000
  C   C4130     1.0  0.77700  0.56582  0.33556  1.0000
  C   C4131     1.0  0.79228  0.56227  0.32688  1.0000
  C   C4132     1.0  0.80003  0.54667  0.32686  1.0000
  C   C4133     1.0  0.79263  0.53454  0.33577  1.0000
  C   C4134     1.0  0.77761  0.53802  0.34503  1.0000
  C   C4135     1.0  0.76980  0.55365  0.34490  1.0000
  H   H6562     1.0  0.79820  0.57152  0.32025  1.0000
  H   H6563     1.0  0.81180  0.54400  0.31999  1.0000
  H   H6564     1.0  0.77185  0.52868  0.35202  1.0000
  H   H6565     1.0  0.75805  0.55631  0.35183  1.0000
  Fe  Fe844     1.0  0.85909  0.54142  0.44567  1.0000
  C   C4136     1.0  0.76639  0.59144  0.25739  1.0000
  H   H6566     1.0  0.76323  0.59080  0.26977  1.0000
  C   C4137     1.0  0.75532  0.59081  0.24978  1.0000
  Fe  Fe845     1.0  0.63336  0.67885  0.28956  1.0000
  H   H6567     1.0  0.56703  0.48976  0.39030  1.0000
  C   C4138     1.0  0.71062  0.63746  0.25955  1.0000
  Fe  Fe846     1.0  0.64038  0.69893  0.30697  1.0000
  H   H6568     1.0  0.91643  0.66046  0.24122  1.0000
  C   C4139     1.0  0.72409  0.68808  0.30796  1.0000
  Fe  Fe847     1.0  0.64004  0.48903  0.44821  1.0000
  S   S1683     1.0  0.65916  0.50147  0.43446  1.0000
  H   H6569     1.0  0.77293  0.72780  0.37859  1.0000
  H   H6570     1.0  0.84661  0.59695  0.23943  1.0000
  S   S1684     1.0  0.90823  0.64864  0.43395  1.0000
  S   S1685     1.0  0.74361  0.51191  0.39497  1.0000
  H   H6571     1.0  0.70466  0.62460  0.32210  1.0000
  C   C4140     1.0  0.71063  0.67061  0.32901  1.0000
  H   H6572     1.0  0.59013  0.53318  0.44926  1.0000
  C   C4141     1.0  0.59493  0.50187  0.35932  1.0000
  S   S1686     1.0  0.97513  0.68479  0.25577  1.0000
  H   H6573     1.0  0.52422  0.54925  0.26412  1.0000
  C   C4142     1.0  0.97291  0.64818  0.46514  1.0000
  H   H6574     1.0  0.70798  0.64261  0.26994  1.0000
  H   H6575     1.0  0.51381  0.62209  0.43839  1.0000
  C   C4143     1.0  0.88857  0.58531  0.45682  1.0000
  C   C4144     1.0  0.87929  0.58286  0.44820  1.0000
  C   C4145     1.0  0.87817  0.56768  0.44881  1.0000
  H   H6576     1.0  0.87050  0.66063  0.26984  1.0000
  Fe  Fe848     1.0  0.56209  0.63143  0.22380  1.0000
  Fe  Fe849     1.0  0.56356  0.66950  0.46687  1.0000
  H   H6577     1.0  0.87279  0.59279  0.44127  1.0000
  H   H6578     1.0  0.86047  0.70647  0.32724  1.0000
  C   C4146     1.0  0.88903  0.65992  0.41316  1.0000
  Fe  Fe850     1.0  0.65516  0.66414  0.31194  1.0000
  H   H6579     1.0  0.50191  0.60789  0.41004  1.0000
  C   C4147     1.0  0.49374  0.65998  0.22924  1.0000
  H   H6580     1.0  0.69430  0.70577  0.30858  1.0000
  H   H6581     1.0  0.58381  0.54299  0.42316  1.0000
  C   C4148     1.0  0.81544  0.63890  0.31166  1.0000
  C   C4149     1.0  0.80473  0.63400  0.32521  1.0000
  C   C4150     1.0  0.80431  0.63761  0.33926  1.0000
  C   C4151     1.0  0.81472  0.64599  0.33994  1.0000
  C   C4152     1.0  0.82571  0.65064  0.32647  1.0000
  C   C4153     1.0  0.82604  0.64712  0.31234  1.0000
  H   H6582     1.0  0.79678  0.62736  0.32494  1.0000
  H   H6583     1.0  0.79588  0.63389  0.34966  1.0000
  H   H6584     1.0  0.83381  0.65706  0.32692  1.0000
  H   H6585     1.0  0.83440  0.65088  0.30192  1.0000
  C   C4154     1.0  0.88999  0.67443  0.31354  1.0000
  C   C4155     1.0  0.87680  0.68262  0.30753  1.0000
  C   C4156     1.0  0.87843  0.69274  0.29282  1.0000
  C   C4157     1.0  0.89326  0.69463  0.28401  1.0000
  C   C4158     1.0  0.90652  0.68610  0.28975  1.0000
  C   C4159     1.0  0.90487  0.67598  0.30451  1.0000
  H   H6586     1.0  0.86535  0.68115  0.31417  1.0000
  H   H6587     1.0  0.86815  0.69919  0.28832  1.0000
  H   H6588     1.0  0.91801  0.68754  0.28300  1.0000
  H   H6589     1.0  0.91511  0.66960  0.30910  1.0000
  H   H6590     1.0  0.84147  0.64728  0.46892  1.0000
  S   S1687     1.0  0.64430  0.72317  0.30328  1.0000
  H   H6591     1.0  0.72409  0.63555  0.22963  1.0000
  H   H6592     1.0  0.52647  0.59698  0.43012  1.0000
  H   H6593     1.0  0.73439  0.62908  0.27403  1.0000
  C   C4160     1.0  0.58581  0.69780  0.26299  1.0000
  H   H6594     1.0  0.82339  0.70807  0.38851  1.0000
  H   H6595     1.0  0.52494  0.64075  0.24543  1.0000
  H   H6596     1.0  0.85509  0.68371  0.44689  1.0000
  C   C4161     1.0  0.86788  0.64835  0.41381  1.0000
  H   H6597     1.0  0.60779  0.66398  0.29060  1.0000
  C   C4162     1.0  0.58672  0.71924  0.24052  1.0000
  H   H6598     1.0  0.69651  0.68690  0.30483  1.0000
  C   C4163     1.0  0.88522  0.63590  0.43171  1.0000
  C   C4164     1.0  0.87233  0.63629  0.42610  1.0000
  H   H6599     1.0  0.59897  0.52753  0.41619  1.0000
  H   H6600     1.0  0.79234  0.49858  0.41174  1.0000
  C   C4165     1.0  0.77429  0.59297  0.22528  1.0000
  H   H6601     1.0  0.86589  0.62712  0.43120  1.0000
  H   H6602     1.0  0.60421  0.68907  0.38526  1.0000
  C   C4166     1.0  0.61931  0.66207  0.25241  1.0000
  C   C4167     1.0  0.57735  0.60653  0.29915  1.0000
  H   H6603     1.0  0.52964  0.59610  0.41013  1.0000
  H   H6604     1.0  0.50654  0.48236  0.32603  1.0000
  H   H6605     1.0  0.58895  0.64935  0.28974  1.0000
  H   H6606     1.0  0.60502  0.56532  0.41843  1.0000
  S   S1688     1.0  0.85743  0.52833  0.42890  1.0000
  H   H6607     1.0  0.55613  0.60300  0.28582  1.0000
  C   C4168     1.0  0.60268  0.53019  0.44342  1.0000
  C   C4169     1.0  0.60821  0.66094  0.27988  1.0000
  H   H6608     1.0  0.58039  0.50134  0.38940  1.0000
  C   C4170     1.0  0.87639  0.66006  0.40716  1.0000
  C   C4171     1.0  0.89334  0.64793  0.42560  1.0000
  H   H6609     1.0  0.52746  0.62730  0.33629  1.0000
  C   C4172     1.0  0.66708  0.71682  0.33743  1.0000
  H   H6610     1.0  0.59608  0.66775  0.40742  1.0000
  H   H6611     1.0  0.60443  0.69100  0.23639  1.0000
  H   H6612     1.0  0.64075  0.51605  0.45938  1.0000
  H   H6613     1.0  0.74370  0.58960  0.25633  1.0000
  H   H6614     1.0  0.86517  0.70885  0.34400  1.0000
  C   C4173     1.0  0.51566  0.59936  0.36745  1.0000
  C   C4174     1.0  0.52403  0.61061  0.35809  1.0000
  C   C4175     1.0  0.52107  0.61849  0.34340  1.0000
  C   C4176     1.0  0.51009  0.61484  0.33777  1.0000
  H   H6615     1.0  0.59449  0.65719  0.39421  1.0000
  C   C4177     1.0  0.50443  0.59590  0.36202  1.0000
  H   H6616     1.0  0.57897  0.70575  0.27097  1.0000
  S   S1689     1.0  0.50769  0.62394  0.31875  1.0000
  C   C4178     1.0  0.83567  0.60309  0.23532  1.0000
  H   H6617     1.0  0.73549  0.48722  0.36421  1.0000
  C   C4179     1.0  0.60582  0.52997  0.38184  1.0000
  C   C4180     1.0  0.61178  0.51443  0.38856  1.0000
  C   C4181     1.0  0.62704  0.50991  0.39092  1.0000
  C   C4182     1.0  0.63631  0.52092  0.38661  1.0000
  C   C4183     1.0  0.63074  0.53618  0.37890  1.0000
  C   C4184     1.0  0.61548  0.54070  0.37651  1.0000
  H   H6618     1.0  0.60449  0.50598  0.39248  1.0000
  H   H6619     1.0  0.63159  0.49792  0.39613  1.0000
  H   H6620     1.0  0.63802  0.54464  0.37530  1.0000
  H   H6621     1.0  0.61119  0.55249  0.37066  1.0000
  C   C4185     1.0  0.56860  0.61334  0.41826  1.0000
  C   C4186     1.0  0.56586  0.61784  0.43240  1.0000
  C   C4187     1.0  0.55897  0.63344  0.43352  1.0000
  C   C4188     1.0  0.55462  0.64444  0.42054  1.0000
  C   C4189     1.0  0.55781  0.64004  0.40632  1.0000
  C   C4190     1.0  0.56501  0.62459  0.40514  1.0000
  H   H6622     1.0  0.56875  0.60921  0.44256  1.0000
  H   H6623     1.0  0.55661  0.63683  0.44451  1.0000
  H   H6624     1.0  0.55468  0.64856  0.39619  1.0000
  H   H6625     1.0  0.56784  0.62144  0.39404  1.0000
  C   C4191     1.0  0.59544  0.65304  0.34358  1.0000
  C   C4192     1.0  0.59011  0.64227  0.35691  1.0000
  C   C4193     1.0  0.58624  0.62900  0.35544  1.0000
  C   C4194     1.0  0.58748  0.62662  0.34066  1.0000
  C   C4195     1.0  0.59243  0.63760  0.32737  1.0000
  C   C4196     1.0  0.59644  0.65077  0.32883  1.0000
  H   H6626     1.0  0.58948  0.64386  0.36835  1.0000
  H   H6627     1.0  0.58273  0.62042  0.36574  1.0000
  H   H6628     1.0  0.59338  0.63581  0.31593  1.0000
  H   H6629     1.0  0.60023  0.65924  0.31855  1.0000
  C   C4197     1.0  0.69355  0.64619  0.30871  1.0000
  C   C4198     1.0  0.70644  0.63479  0.31291  1.0000
  C   C4199     1.0  0.72168  0.63663  0.30540  1.0000
  C   C4200     1.0  0.72401  0.64986  0.29365  1.0000
  C   C4201     1.0  0.71115  0.66116  0.28934  1.0000
  C   C4202     1.0  0.69595  0.65933  0.29687  1.0000
  H   H6630     1.0  0.73159  0.62789  0.30883  1.0000
  H   H6631     1.0  0.71292  0.67138  0.28019  1.0000
  N   N409      1.0  0.63867  0.61051  0.33167  1.0000
  C   C4203     1.0  0.63048  0.62055  0.34299  1.0000
  C   C4204     1.0  0.65407  0.61428  0.32370  1.0000
  C   C4205     1.0  0.62926  0.61325  0.32003  1.0000
  C   C4206     1.0  0.64087  0.59392  0.34000  1.0000
  H   H6632     1.0  0.62830  0.63316  0.33714  1.0000
  H   H6633     1.0  0.63739  0.61906  0.35176  1.0000
  H   H6634     1.0  0.61893  0.61783  0.34938  1.0000
  H   H6635     1.0  0.66080  0.60666  0.31537  1.0000
  H   H6636     1.0  0.65282  0.62657  0.31695  1.0000
  H   H6637     1.0  0.66133  0.61293  0.33213  1.0000
  H   H6638     1.0  0.62687  0.62577  0.31390  1.0000
  H   H6639     1.0  0.61776  0.61004  0.32559  1.0000
  H   H6640     1.0  0.63530  0.60624  0.31101  1.0000
  H   H6641     1.0  0.64797  0.59143  0.34884  1.0000
  H   H6642     1.0  0.64694  0.58598  0.33181  1.0000
  H   H6643     1.0  0.62944  0.59073  0.34618  1.0000
  H   H6644     1.0  0.69861  0.69632  0.34120  1.0000
  C   C4207     1.0  0.59760  0.64941  0.26530  1.0000
  H   H6645     1.0  0.68514  0.69131  0.32304  1.0000
  Fe  Fe851     1.0  0.58016  0.64290  0.24035  1.0000
  S   S1690     1.0  0.54505  0.61617  0.22833  1.0000
  C   C4208     1.0  0.53740  0.57029  0.24008  1.0000
  H   H6646     1.0  0.81083  0.63868  0.23492  1.0000
  H   H6647     1.0  0.86985  0.72223  0.30114  1.0000
  H   H6648     1.0  0.56208  0.69421  0.25315  1.0000
  Fe  Fe852     1.0  0.79277  0.49870  0.35662  1.0000
  C   C4209     1.0  0.56562  0.70564  0.24837  1.0000
  H   H6649     1.0  0.79723  0.59392  0.22642  1.0000
  H   H6650     1.0  0.50359  0.67327  0.24636  1.0000
  C   C4210     1.0  0.52173  0.62719  0.39898  1.0000
  H   H6651     1.0  0.51094  0.59106  0.24698  1.0000
  C   C4211     1.0  0.69589  0.69304  0.31396  1.0000
  S   S1691     1.0  0.67461  0.64390  0.31851  1.0000
  N   N410      1.0  0.56026  0.61260  0.30288  1.0000
  Fe  Fe853     1.0  0.48726  0.61935  0.31293  1.0000
  C   C4212     1.0  0.55379  0.61435  0.28924  1.0000
  C   C4213     1.0  0.55304  0.60154  0.31625  1.0000
  H   H6652     1.0  0.54400  0.63291  0.30969  1.0000
  H   H6653     1.0  0.58040  0.59509  0.29575  1.0000
  H   H6654     1.0  0.54089  0.61896  0.29172  1.0000
  H   H6655     1.0  0.55900  0.62264  0.27893  1.0000
  H   H6656     1.0  0.55603  0.58961  0.31391  1.0000
  H   H6657     1.0  0.54009  0.60530  0.31879  1.0000
  H   H6658     1.0  0.55696  0.60065  0.32701  1.0000
  H   H6659     1.0  0.70025  0.66941  0.33877  1.0000
  C   C4214     1.0  0.82035  0.72072  0.38563  1.0000
  H   H6660     1.0  0.49370  0.60025  0.34263  1.0000
  H   H6661     1.0  0.59221  0.71918  0.46967  1.0000
  H   H6662     1.0  0.59602  0.50623  0.34655  1.0000
  C   C4215     1.0  0.60871  0.65379  0.25190  1.0000
  C   C4216     1.0  0.52918  0.60372  0.41792  1.0000
  C   C4217     1.0  0.59756  0.65271  0.27937  1.0000
  C   C4218     1.0  0.51637  0.57001  0.22907  1.0000
  H   H6663     1.0  0.60344  0.67787  0.37229  1.0000
  S   S1692     1.0  0.93715  0.71772  0.25030  1.0000
  H   H6664     1.0  0.59841  0.69644  0.26259  1.0000
  H   H6665     1.0  0.50998  0.68174  0.22602  1.0000
  H   H6666     1.0  0.60968  0.55836  0.43733  1.0000
  C   C4219     1.0  0.82958  0.48940  0.41673  1.0000
  Fe  Fe854     1.0  0.56066  0.69928  0.44203  1.0000
  H   H6667     1.0  0.56888  0.52238  0.36973  1.0000
  N   N411      1.0  0.79479  0.54868  0.38227  1.0000
  C   C4220     1.0  0.78970  0.56440  0.37279  1.0000
  C   C4221     1.0  0.78101  0.54184  0.39043  1.0000
  C   C4222     1.0  0.80263  0.54995  0.39382  1.0000
  C   C4223     1.0  0.80581  0.53853  0.37202  1.0000
  H   H6668     1.0  0.79979  0.56983  0.36615  1.0000
  H   H6669     1.0  0.78154  0.57245  0.38017  1.0000
  H   H6670     1.0  0.78348  0.56391  0.36416  1.0000
  H   H6671     1.0  0.78440  0.52999  0.39773  1.0000
  H   H6672     1.0  0.77240  0.54918  0.39826  1.0000
  H   H6673     1.0  0.77486  0.54063  0.38204  1.0000
  H   H6674     1.0  0.80709  0.53825  0.40083  1.0000
  H   H6675     1.0  0.79454  0.55702  0.40218  1.0000
  H   H6676     1.0  0.81282  0.55547  0.38810  1.0000
  H   H6677     1.0  0.80026  0.53719  0.36324  1.0000
  H   H6678     1.0  0.80995  0.52658  0.37883  1.0000
  H   H6679     1.0  0.81629  0.54337  0.36555  1.0000
  N   N412      1.0  0.89381  0.66230  0.25693  1.0000
  C   C4224     1.0  0.88924  0.67930  0.25071  1.0000
  C   C4225     1.0  0.89986  0.65955  0.27106  1.0000
  C   C4226     1.0  0.90608  0.65503  0.24503  1.0000
  C   C4227     1.0  0.88002  0.65534  0.26093  1.0000
  H   H6680     1.0  0.89944  0.68490  0.24714  1.0000
  H   H6681     1.0  0.88037  0.68527  0.25956  1.0000
  H   H6682     1.0  0.53274  0.61332  0.36216  1.0000
  H   H6683     1.0  0.89077  0.66454  0.28043  1.0000
  H   H6684     1.0  0.90378  0.64686  0.27590  1.0000
  H   H6685     1.0  0.90996  0.66509  0.26856  1.0000
  H   H6686     1.0  0.91023  0.64229  0.24947  1.0000
  H   H6687     1.0  0.97409  0.71455  0.23422  1.0000
  H   H6688     1.0  0.90172  0.65637  0.23444  1.0000
  H   H6689     1.0  0.88301  0.64252  0.26573  1.0000
  S   S1693     1.0  0.62062  0.49395  0.46856  1.0000
  C   C4228     1.0  0.52123  0.55141  0.25261  1.0000
  C   C4229     1.0  0.62289  0.53609  0.42067  1.0000
  C   C4230     1.0  0.67417  0.72964  0.33242  1.0000
  C   C4231     1.0  0.98417  0.71188  0.23917  1.0000
  Fe  Fe855     1.0  0.90956  0.63255  0.45750  1.0000
  H   H6690     1.0  0.72126  0.66562  0.33395  1.0000
  N   N413      1.0  0.58244  0.70390  0.24727  1.0000
  N   N414      1.0  0.72748  0.63486  0.25218  1.0000
  C   C4232     1.0  0.61891  0.66587  0.26632  1.0000
  S   S1694     1.0  0.57112  0.71911  0.42614  1.0000
  N   N415      1.0  0.60617  0.54074  0.42799  1.0000
  N   N416      1.0  0.52142  0.56761  0.24370  1.0000
  H   H6691     1.0  0.60903  0.65098  0.24109  1.0000
  S   S1695     1.0  0.61786  0.69574  0.30419  1.0000
  H   H6692     1.0  0.56265  0.71037  0.23674  1.0000
  H   H6693     1.0  0.58325  0.61471  0.28933  1.0000
  H   H6694     1.0  0.71307  0.48901  0.38670  1.0000
  H   H6695     1.0  0.62601  0.54376  0.40899  1.0000
  H   H6696     1.0  0.58251  0.60492  0.30929  1.0000
  H   H6697     1.0  0.56147  0.62713  0.31721  1.0000
  H   H6698     1.0  0.63057  0.53666  0.42791  1.0000
  H   H6699     1.0  0.57814  0.66225  0.40953  1.0000
  H   H6700     1.0  0.73025  0.65558  0.25693  1.0000
  S   S1696     1.0  0.81319  0.52794  0.43540  1.0000
  H   H6701     1.0  0.60427  0.49109  0.36120  1.0000
  H   H6702     1.0  0.58849  0.68124  0.24181  1.0000
  C   C4233     1.0  0.89673  0.57259  0.46616  1.0000
  S   S1697     1.0  0.88623  0.48720  0.43729  1.0000
  Fe  Fe856     1.0  0.76650  0.49706  0.38531  1.0000
  C   C4234     1.0  0.71022  0.48321  0.43003  1.0000
  H   H6703     1.0  0.71052  0.51568  0.40063  1.0000
  H   H6704     1.0  0.72677  0.61646  0.24210  1.0000
  H   H6705     1.0  0.88618  0.54323  0.45815  1.0000
  Fe  Fe857     1.0  0.53179  0.69097  0.46603  1.0000
  H   H6706     1.0  0.87302  0.66942  0.39768  1.0000
  C   C4235     1.0  0.82305  0.72873  0.37004  1.0000
  C   C4236     1.0  0.65607  0.72522  0.31445  1.0000
  S   S1698     1.0  0.76955  0.49250  0.36171  1.0000
  H   H6707     1.0  0.84100  0.67234  0.44935  1.0000
  H   H6708     1.0  0.59005  0.56096  0.43532  1.0000
  H   H6709     1.0  0.49831  0.58687  0.36904  1.0000
  N   N417      1.0  0.78703  0.54784  0.28614  1.0000
  C   C4237     1.0  0.77196  0.54754  0.28337  1.0000
  C   C4238     1.0  0.79870  0.54924  0.27120  1.0000
  C   C4239     1.0  0.79251  0.53324  0.29704  1.0000
  C   C4240     1.0  0.78495  0.56136  0.29297  1.0000
  H   H6710     1.0  0.76758  0.55835  0.27508  1.0000
  H   H6711     1.0  0.76285  0.54665  0.29440  1.0000
  H   H6712     1.0  0.77308  0.53741  0.27832  1.0000
  H   H6713     1.0  0.80075  0.53912  0.26580  1.0000
  H   H6714     1.0  0.79482  0.56003  0.26264  1.0000
  H   H6715     1.0  0.81012  0.54986  0.27280  1.0000
  H   H6716     1.0  0.80381  0.53308  0.29950  1.0000
  H   H6717     1.0  0.79426  0.52273  0.29233  1.0000
  H   H6718     1.0  0.78399  0.53180  0.30846  1.0000
  H   H6719     1.0  0.78058  0.57255  0.28523  1.0000
  H   H6720     1.0  0.79618  0.56221  0.29481  1.0000
  H   H6721     1.0  0.77645  0.56057  0.30443  1.0000
  H   H6722     1.0  0.85323  0.62272  0.23399  1.0000
  C   C4241     1.0  0.87287  0.66213  0.46517  1.0000
  H   H6723     1.0  0.60547  0.51776  0.44244  1.0000
  S   S1699     1.0  0.49778  0.52493  0.28160  1.0000
  H   H6724     1.0  0.50949  0.54880  0.25493  1.0000
  C   C4242     1.0  0.65792  0.71469  0.32851  1.0000
  H   H6725     1.0  0.74510  0.64835  0.24154  1.0000
  H   H6726     1.0  0.82684  0.59582  0.24120  1.0000
  H   H6727     1.0  0.87519  0.65718  0.25050  1.0000
  C   C4243     1.0  0.88659  0.55497  0.45789  1.0000
  C   C4244     1.0  0.73049  0.62780  0.23864  1.0000
  H   H6728     1.0  0.52757  0.48838  0.33398  1.0000
  C   C4245     1.0  0.75916  0.59180  0.23368  1.0000
  C   C4246     1.0  0.58396  0.71858  0.45002  1.0000
  H   H6729     1.0  0.71093  0.66316  0.32113  1.0000
  C   C4247     1.0  0.84201  0.62826  0.23023  1.0000
  C   C4248     1.0  0.86963  0.70909  0.33135  1.0000
  N   N418      1.0  0.51748  0.61855  0.41525  1.0000
  H   H6730     1.0  0.95227  0.64070  0.46567  1.0000
  H   H6731     1.0  0.69245  0.49953  0.41881  1.0000
  H   H6732     1.0  0.49083  0.62304  0.22814  1.0000
  C   C4249     1.0  0.73238  0.64995  0.24697  1.0000
  C   C4250     1.0  0.51289  0.64323  0.24360  1.0000
  H   H6733     1.0  0.62768  0.66574  0.24193  1.0000
  H   H6734     1.0  0.72517  0.68083  0.29959  1.0000
  N   N419      1.0  0.70996  0.68708  0.32062  1.0000
  H   H6735     1.0  0.68449  0.49208  0.47185  1.0000
  S   S1700     1.0  0.83492  0.54054  0.46016  1.0000
  H   H6736     1.0  0.88106  0.65567  0.45640  1.0000
  S   S1701     1.0  0.87082  0.51996  0.46067  1.0000
  N   N420      1.0  0.87171  0.60311  0.39719  1.0000
  C   C4251     1.0  0.86687  0.60231  0.38338  1.0000
  C   C4252     1.0  0.88020  0.61583  0.39300  1.0000
  C   C4253     1.0  0.88205  0.58808  0.40269  1.0000
  C   C4254     1.0  0.85769  0.60622  0.40968  1.0000
  H   H6737     1.0  0.86056  0.59273  0.38613  1.0000
  H   H6738     1.0  0.87711  0.60021  0.37360  1.0000
  H   H6739     1.0  0.85887  0.61341  0.37907  1.0000
  H   H6740     1.0  0.88402  0.61677  0.40316  1.0000
  H   H6741     1.0  0.89077  0.61399  0.38350  1.0000
  H   H6742     1.0  0.87270  0.62737  0.38892  1.0000
  H   H6743     1.0  0.88565  0.58815  0.41332  1.0000
  H   H6744     1.0  0.87609  0.57817  0.40580  1.0000
  H   H6745     1.0  0.84940  0.61725  0.40575  1.0000
  H   H6746     1.0  0.86082  0.60751  0.42006  1.0000
  H   H6747     1.0  0.85136  0.59652  0.41360  1.0000
  H   H6748     1.0  0.88937  0.59703  0.45625  1.0000
  S   S1702     1.0  0.63406  0.65805  0.30945  1.0000
  C   C4255     1.0  0.60260  0.55703  0.42988  1.0000
  S   S1703     1.0  0.53735  0.69788  0.44001  1.0000
  H   H6749     1.0  0.62594  0.52390  0.41896  1.0000
  H   H6750     1.0  0.58287  0.70655  0.45437  1.0000
  H   H6751     1.0  0.65213  0.70503  0.33265  1.0000
  H   H6752     1.0  0.59274  0.69773  0.37071  1.0000
  S   S1704     1.0  0.63348  0.48689  0.42739  1.0000
  H   H6753     1.0  0.81136  0.72289  0.40956  1.0000
  S   S1705     1.0  0.65572  0.68363  0.29068  1.0000
  H   H6754     1.0  0.51358  0.57680  0.26454  1.0000
  H   H6755     1.0  0.59879  0.54750  0.40630  1.0000
  S   S1706     1.0  0.83103  0.71876  0.35477  1.0000
  H   H6756     1.0  0.56187  0.67527  0.38982  1.0000
  H   H6757     1.0  0.53792  0.58246  0.23344  1.0000
  H   H6758     1.0  0.81797  0.61088  0.26190  1.0000
  H   H6759     1.0  0.50860  0.63958  0.42417  1.0000
  H   H6760     1.0  0.73492  0.68378  0.31259  1.0000
  N   N421      1.0  0.58272  0.68145  0.39035  1.0000
  C   C4256     1.0  0.57402  0.69333  0.39965  1.0000
  C   C4257     1.0  0.57237  0.67915  0.38174  1.0000
  C   C4258     1.0  0.58813  0.66650  0.40083  1.0000
  C   C4259     1.0  0.59638  0.68678  0.37919  1.0000
  H   H6761     1.0  0.56994  0.70483  0.39214  1.0000
  H   H6762     1.0  0.58138  0.69522  0.40652  1.0000
  H   H6763     1.0  0.56352  0.68974  0.40806  1.0000
  H   H6764     1.0  0.56826  0.69011  0.37352  1.0000
  H   H6765     1.0  0.57851  0.67014  0.37471  1.0000
  H   H6766     1.0  0.52874  0.63078  0.42427  1.0000
  S   S1707     1.0  0.92873  0.61118  0.46176  1.0000
  H   H6767     1.0  0.50452  0.56766  0.23138  1.0000
  S   S1708     1.0  0.55531  0.64931  0.23829  1.0000
  C   C4260     1.0  0.82681  0.61800  0.25539  1.0000
  H   H6768     1.0  0.74088  0.48080  0.39003  1.0000
  H   H6769     1.0  0.97254  0.65651  0.45415  1.0000
  H   H6770     1.0  0.72591  0.65829  0.23828  1.0000
  H   H6771     1.0  0.55527  0.51122  0.37038  1.0000
  C   C4261     1.0  0.73079  0.50128  0.40910  1.0000
  H   H6772     1.0  0.74315  0.62536  0.23295  1.0000
  C   C4262     1.0  0.50194  0.61510  0.41806  1.0000
  C   C4263     1.0  0.57996  0.72704  0.43590  1.0000
  H   H6773     1.0  0.60965  0.53084  0.45132  1.0000
  H   H6774     1.0  0.58296  0.68610  0.26831  1.0000
  H   H6775     1.0  0.50461  0.64456  0.25491  1.0000
  H   H6776     1.0  0.49191  0.64986  0.22600  1.0000
  H   H6777     1.0  0.52210  0.62025  0.39056  1.0000
  H   H6778     1.0  0.54588  0.56225  0.23289  1.0000
  H   H6779     1.0  0.55826  0.71384  0.25593  1.0000
  H   H6780     1.0  0.82226  0.62976  0.25828  1.0000
  H   H6781     1.0  0.88953  0.71506  0.30376  1.0000
  C   C4264     1.0  0.50178  0.60350  0.34709  1.0000
  N   N422      1.0  0.82999  0.61901  0.23843  1.0000
  H   H6782     1.0  0.70347  0.64556  0.25132  1.0000
  H   H6783     1.0  0.80618  0.61995  0.23860  1.0000
  H   H6784     1.0  0.73315  0.61269  0.26777  1.0000
  H   H6785     1.0  0.59931  0.71834  0.23972  1.0000
  H   H6786     1.0  0.88161  0.72722  0.34120  1.0000
  H   H6787     1.0  0.58971  0.69712  0.22520  1.0000
  S   S1709     1.0  0.74460  0.59230  0.22436  1.0000
  Fe  Fe858     1.0  0.93923  0.72429  0.22446  1.0000
  H   H6788     1.0  0.58462  0.72405  0.22853  1.0000
  N   N423      1.0  0.50989  0.65726  0.23113  1.0000
  C   C4265     1.0  0.98031  0.48158  0.46541  1.0000
  H   H6789     1.0  0.74926  0.62220  0.25852  1.0000
  H   H6790     1.0  0.87548  0.67393  0.46226  1.0000
  H   H6791     1.0  0.59742  0.51081  0.36387  1.0000
  C   C4266     1.0  0.81661  0.48857  0.41193  1.0000
  C   C4267     1.0  0.81359  0.72912  0.39752  1.0000
  C   C4268     1.0  0.51063  0.57873  0.25306  1.0000
  N   N424      1.0  0.87321  0.72440  0.32270  1.0000
  C   C4269     1.0  0.85322  0.67160  0.44984  1.0000
  H   H6792     1.0  0.56482  0.48408  0.36665  1.0000
  H   H6793     1.0  0.98659  0.49070  0.45759  1.0000
  H   H6794     1.0  0.70654  0.62630  0.26354  1.0000
  C   C4270     1.0  0.56722  0.51331  0.36474  1.0000
  S   S1710     1.0  0.58639  0.62327  0.22793  1.0000
  H   H6795     1.0  0.88013  0.69936  0.33006  1.0000
  C   C4271     1.0  0.88546  0.72725  0.32853  1.0000
  H   H6796     1.0  0.51162  0.63264  0.24072  1.0000
  S   S1711     1.0  0.49063  0.60150  0.29907  1.0000
  C   C4272     1.0  0.73639  0.48814  0.41989  1.0000
  H   H6797     1.0  0.86107  0.66571  0.44043  1.0000
  H   H6798     1.0  0.83817  0.60339  0.22264  1.0000
  H   H6799     1.0  0.57629  0.49135  0.34800  1.0000
  S   S1712     1.0  0.91940  0.71415  0.22485  1.0000
  H   H6800     1.0  0.97706  0.66950  0.23083  1.0000
  H   H6801     1.0  0.57975  0.72802  0.24757  1.0000
  Fe  Fe859     1.0  0.79974  0.48032  0.38791  1.0000
  C   C4273     1.0  0.87881  0.72437  0.30592  1.0000
  H   H6802     1.0  0.51872  0.60907  0.22327  1.0000
  H   H6803     1.0  0.66856  0.49041  0.46522  1.0000
  H   H6804     1.0  0.74867  0.48488  0.42009  1.0000
  H   H6805     1.0  0.86138  0.64057  0.45957  1.0000
  Fe  Fe860     1.0  0.49106  0.50153  0.29015  1.0000
  N   N425      1.0  0.85645  0.66301  0.46527  1.0000
  H   H6806     1.0  0.98316  0.65214  0.22321  1.0000
  Fe  Fe861     1.0  0.93745  0.69193  0.22275  1.0000
  S   S1713     1.0  0.89005  0.62055  0.47107  1.0000
  H   H6807     1.0  0.58768  0.48175  0.38625  1.0000
  C   C4274     1.0  0.85378  0.64705  0.46862  1.0000
  H   H6808     1.0  0.84051  0.48105  0.41440  1.0000
  H   H6809     1.0  0.51575  0.58223  0.22232  1.0000
  Fe  Fe862     1.0  0.65100  0.68541  0.60855  1.0000
  S   S1714     1.0  0.65036  0.68541  0.63321  1.0000
  S   S1715     1.0  0.65424  0.70616  0.58863  1.0000
  Fe  Fe863     1.0  0.64712  0.65199  0.61659  1.0000
  S   S1716     1.0  0.64629  0.64909  0.64189  1.0000
  S   S1717     1.0  0.64396  0.63117  0.61020  1.0000
  Fe  Fe864     1.0  0.63075  0.67296  0.63941  1.0000
  S   S1718     1.0  0.60867  0.67660  0.65780  1.0000
  Fe  Fe865     1.0  0.66603  0.66149  0.63355  1.0000
  S   S1719     1.0  0.68635  0.65466  0.64534  1.0000
  S   S1720     1.0  0.62991  0.67503  0.61471  1.0000
  S   S1721     1.0  0.66835  0.66238  0.60830  1.0000
  Fe  Fe866     1.0  0.58010  0.63089  0.57534  1.0000
  S   S1722     1.0  0.57258  0.61971  0.60048  1.0000
  S   S1723     1.0  0.59482  0.64872  0.56828  1.0000
  Fe  Fe867     1.0  0.56252  0.61409  0.56437  1.0000
  S   S1724     1.0  0.55352  0.60123  0.58850  1.0000
  S   S1725     1.0  0.55517  0.61076  0.54427  1.0000
  Fe  Fe868     1.0  0.54910  0.62417  0.59511  1.0000
  S   S1726     1.0  0.52780  0.63215  0.61272  1.0000
  Fe  Fe869     1.0  0.57765  0.59785  0.59175  1.0000
  S   S1727     1.0  0.58848  0.57499  0.60553  1.0000
  S   S1728     1.0  0.55600  0.63749  0.57064  1.0000
  S   S1729     1.0  0.58735  0.60851  0.56690  1.0000
  C   C4275     1.0  0.75630  0.50034  0.63708  1.0000
  S   S1730     1.0  0.66469  0.52956  0.55796  1.0000
  S   S1731     1.0  0.62501  0.53727  0.54741  1.0000
  S   S1732     1.0  0.59182  0.51829  0.57753  1.0000
  H   H6810     1.0  0.84416  0.64968  0.71012  1.0000
  C   C4276     1.0  0.85437  0.65405  0.67894  1.0000
  Fe  Fe870     1.0  0.89526  0.67859  0.70605  1.0000
  H   H6811     1.0  0.68969  0.53069  0.57041  1.0000
  H   H6812     1.0  0.66237  0.62966  0.66809  1.0000
  H   H6813     1.0  0.93967  0.60715  0.53031  1.0000
  Fe  Fe871     1.0  0.88895  0.70337  0.67687  1.0000
  S   S1733     1.0  0.87410  0.71154  0.65890  1.0000
  S   S1734     1.0  0.87637  0.69998  0.70190  1.0000
  C   C4277     1.0  0.78220  0.48990  0.62329  1.0000
  Fe  Fe872     1.0  0.83184  0.64832  0.60414  1.0000
  S   S1735     1.0  0.85774  0.64641  0.59902  1.0000
  S   S1736     1.0  0.82297  0.62650  0.60770  1.0000
  Fe  Fe873     1.0  0.82475  0.68335  0.60030  1.0000
  S   S1737     1.0  0.84991  0.68452  0.59500  1.0000
  S   S1738     1.0  0.80536  0.70484  0.60163  1.0000
  Fe  Fe874     1.0  0.85385  0.66755  0.57993  1.0000
  S   S1739     1.0  0.87238  0.67017  0.55765  1.0000
  Fe  Fe875     1.0  0.85204  0.66336  0.61447  1.0000
  S   S1740     1.0  0.86876  0.65834  0.63019  1.0000
  S   S1741     1.0  0.82836  0.66821  0.58348  1.0000
  S   S1742     1.0  0.82641  0.66352  0.62133  1.0000
  Fe  Fe876     1.0  0.89231  0.62808  0.49135  1.0000
  C   C4278     1.0  0.65419  0.60977  0.69490  1.0000
  S   S1743     1.0  0.86957  0.63606  0.50751  1.0000
  C   C4279     1.0  0.69024  0.51858  0.57088  1.0000
  C   C4280     1.0  0.92728  0.60614  0.53300  1.0000
  H   H6814     1.0  0.52726  0.68241  0.50410  1.0000
  S   S1744     1.0  0.90964  0.60622  0.49837  1.0000
  H   H6815     1.0  0.86050  0.56718  0.50676  1.0000
  H   H6816     1.0  0.88634  0.68515  0.57280  1.0000
  C   C4281     1.0  0.84868  0.56936  0.48232  1.0000
  C   C4282     1.0  0.90900  0.69342  0.58049  1.0000
  H   H6817     1.0  0.60002  0.57337  0.54526  1.0000
  Fe  Fe877     1.0  0.76924  0.55568  0.65570  1.0000
  S   S1745     1.0  0.77986  0.55824  0.67386  1.0000
  S   S1746     1.0  0.78383  0.54258  0.63726  1.0000
  Fe  Fe878     1.0  0.73730  0.57374  0.66877  1.0000
  S   S1747     1.0  0.74492  0.57776  0.68829  1.0000
  S   S1748     1.0  0.71295  0.58212  0.66460  1.0000
  Fe  Fe879     1.0  0.76609  0.58297  0.66988  1.0000
  S   S1749     1.0  0.77509  0.60371  0.66949  1.0000
  Fe  Fe880     1.0  0.75801  0.55268  0.69069  1.0000
  H   H6818     1.0  0.70857  0.51528  0.52036  1.0000
  S   S1750     1.0  0.75739  0.58098  0.65013  1.0000
  S   S1751     1.0  0.74843  0.54810  0.67278  1.0000
  H   H6819     1.0  0.64560  0.48689  0.49728  1.0000
  H   H6820     1.0  0.55395  0.55525  0.62780  1.0000
  H   H6821     1.0  0.87825  0.70366  0.59034  1.0000
  C   C4283     1.0  0.70301  0.49118  0.57727  1.0000
  H   H6822     1.0  0.93446  0.71778  0.69071  1.0000
  Fe  Fe881     1.0  0.63988  0.49439  0.54261  1.0000
  H   H6823     1.0  0.85633  0.64014  0.48009  1.0000
  H   H6824     1.0  0.78922  0.51230  0.50043  1.0000
  C   C4284     1.0  0.77238  0.54066  0.62570  1.0000
  C   C4285     1.0  0.77932  0.53242  0.61379  1.0000
  C   C4286     1.0  0.77007  0.52975  0.60528  1.0000
  C   C4287     1.0  0.75391  0.53558  0.60852  1.0000
  C   C4288     1.0  0.74707  0.54432  0.62004  1.0000
  C   C4289     1.0  0.75627  0.54677  0.62870  1.0000
  H   H6825     1.0  0.79183  0.52793  0.61128  1.0000
  H   H6826     1.0  0.77545  0.52325  0.59621  1.0000
  H   H6827     1.0  0.73457  0.54892  0.62252  1.0000
  H   H6828     1.0  0.75083  0.55328  0.63777  1.0000
  H   H6829     1.0  0.79973  0.57513  0.67801  1.0000
  H   H6830     1.0  0.86417  0.67893  0.68012  1.0000
  H   H6831     1.0  0.85981  0.57342  0.47902  1.0000
  H   H6832     1.0  0.68292  0.62900  0.68912  1.0000
  H   H6833     1.0  0.71332  0.49422  0.52546  1.0000
  C   C4290     1.0  0.51200  0.66471  0.54106  1.0000
  H   H6834     1.0  0.97788  0.69677  0.66377  1.0000
  C   C4291     1.0  0.80771  0.57683  0.68428  1.0000
  H   H6835     1.0  0.85666  0.64189  0.67736  1.0000
  C   C4292     1.0  0.65718  0.63494  0.67848  1.0000
  C   C4293     1.0  0.81000  0.62016  0.62517  1.0000
  C   C4294     1.0  0.80566  0.60594  0.62759  1.0000
  C   C4295     1.0  0.79503  0.60073  0.64121  1.0000
  C   C4296     1.0  0.78871  0.60974  0.65251  1.0000
  C   C4297     1.0  0.79311  0.62389  0.65019  1.0000
  C   C4298     1.0  0.80370  0.62912  0.63653  1.0000
  H   H6836     1.0  0.81052  0.59895  0.61885  1.0000
  H   H6837     1.0  0.79176  0.58976  0.64293  1.0000
  H   H6838     1.0  0.78822  0.63092  0.65888  1.0000
  H   H6839     1.0  0.80689  0.64012  0.63473  1.0000
  H   H6840     1.0  0.77721  0.58215  0.69982  1.0000
  C   C4299     1.0  0.81211  0.57675  0.70909  1.0000
  H   H6841     1.0  0.65957  0.60396  0.68483  1.0000
  H   H6842     1.0  0.50959  0.65612  0.51616  1.0000
  H   H6843     1.0  0.82693  0.70686  0.57151  1.0000
  C   C4300     1.0  0.87089  0.66146  0.54343  1.0000
  C   C4301     1.0  0.85961  0.65272  0.54652  1.0000
  C   C4302     1.0  0.85909  0.64524  0.53525  1.0000
  C   C4303     1.0  0.87003  0.64622  0.52101  1.0000
  C   C4304     1.0  0.88121  0.65511  0.51782  1.0000
  C   C4305     1.0  0.88155  0.66283  0.52899  1.0000
  H   H6844     1.0  0.85133  0.65162  0.55762  1.0000
  H   H6845     1.0  0.85036  0.63843  0.53774  1.0000
  H   H6846     1.0  0.88952  0.65612  0.50674  1.0000
  H   H6847     1.0  0.89014  0.66978  0.52649  1.0000
  C   C4306     1.0  0.87318  0.69726  0.64988  1.0000
  C   C4307     1.0  0.86038  0.69937  0.64334  1.0000
  C   C4308     1.0  0.85897  0.68760  0.63700  1.0000
  C   C4309     1.0  0.87045  0.67376  0.63710  1.0000
  C   C4310     1.0  0.88348  0.67188  0.64316  1.0000
  C   C4311     1.0  0.88484  0.68359  0.64954  1.0000
  H   H6848     1.0  0.85134  0.70996  0.64354  1.0000
  H   H6849     1.0  0.84887  0.68912  0.63233  1.0000
  H   H6850     1.0  0.89246  0.66124  0.64310  1.0000
  H   H6851     1.0  0.89491  0.68204  0.65421  1.0000
  H   H6852     1.0  0.84827  0.66484  0.48924  1.0000
  C   C4312     1.0  0.67914  0.51465  0.56566  1.0000
  H   H6853     1.0  0.55369  0.56911  0.60965  1.0000
  H   H6854     1.0  0.91683  0.63137  0.51159  1.0000
  S   S1752     1.0  0.58051  0.65570  0.48190  1.0000
  H   H6855     1.0  0.81609  0.51579  0.48761  1.0000
  C   C4313     1.0  0.84603  0.67120  0.47748  1.0000
  H   H6856     1.0  0.85893  0.63292  0.70528  1.0000
  H   H6857     1.0  0.55250  0.54943  0.61116  1.0000
  H   H6858     1.0  0.64132  0.61302  0.69586  1.0000
  H   H6859     1.0  0.83891  0.57974  0.48348  1.0000
  S   S1753     1.0  0.84265  0.51269  0.50019  1.0000
  C   C4314     1.0  0.96983  0.72782  0.68069  1.0000
  C   C4315     1.0  0.51339  0.62197  0.61493  1.0000
  C   C4316     1.0  0.50256  0.61947  0.62914  1.0000
  H   H6860     1.0  0.64271  0.53543  0.47272  1.0000
  H   H6861     1.0  0.81358  0.58904  0.70502  1.0000
  C   C4317     1.0  0.50245  0.60642  0.60497  1.0000
  C   C4318     1.0  0.51313  0.61566  0.60277  1.0000
  H   H6862     1.0  0.50268  0.62441  0.63855  1.0000
  H   H6863     1.0  0.59433  0.56079  0.51217  1.0000
  H   H6864     1.0  0.50240  0.60143  0.59557  1.0000
  H   H6865     1.0  0.52113  0.61796  0.59163  1.0000
  C   C4319     1.0  0.58823  0.55947  0.59802  1.0000
  C   C4320     1.0  0.58584  0.56214  0.58298  1.0000
  C   C4321     1.0  0.58677  0.54946  0.57669  1.0000
  C   C4322     1.0  0.58969  0.53419  0.58561  1.0000
  C   C4323     1.0  0.59164  0.53159  0.60079  1.0000
  C   C4324     1.0  0.59104  0.54422  0.60695  1.0000
  H   H6866     1.0  0.58361  0.57393  0.57609  1.0000
  H   H6867     1.0  0.58522  0.55143  0.56497  1.0000
  H   H6868     1.0  0.59398  0.51978  0.60764  1.0000
  H   H6869     1.0  0.59285  0.54215  0.61860  1.0000
  C   C4325     1.0  0.56222  0.62315  0.52691  1.0000
  C   C4326     1.0  0.55616  0.62553  0.51377  1.0000
  C   C4327     1.0  0.56159  0.63568  0.49988  1.0000
  C   C4328     1.0  0.57336  0.64311  0.49905  1.0000
  C   C4329     1.0  0.57962  0.64042  0.51209  1.0000
  C   C4330     1.0  0.57391  0.63063  0.52608  1.0000
  H   H6870     1.0  0.54722  0.61961  0.51437  1.0000
  H   H6871     1.0  0.55693  0.63753  0.48973  1.0000
  H   H6872     1.0  0.58875  0.64615  0.51145  1.0000
  H   H6873     1.0  0.57864  0.62885  0.53617  1.0000
  C   C4331     1.0  0.63165  0.63573  0.59718  1.0000
  C   C4332     1.0  0.62429  0.62435  0.59673  1.0000
  C   C4333     1.0  0.61326  0.62817  0.58751  1.0000
  C   C4334     1.0  0.60981  0.64330  0.57847  1.0000
  C   C4335     1.0  0.61763  0.65449  0.57845  1.0000
  C   C4336     1.0  0.62842  0.65076  0.58792  1.0000
  H   H6874     1.0  0.62681  0.61270  0.60385  1.0000
  H   H6875     1.0  0.60734  0.61945  0.58749  1.0000
  H   H6876     1.0  0.61503  0.66618  0.57140  1.0000
  H   H6877     1.0  0.63427  0.65951  0.58802  1.0000
  H   H6878     1.0  0.79109  0.55508  0.70203  1.0000
  H   H6879     1.0  0.86048  0.53879  0.48477  1.0000
  H   H6880     1.0  0.63250  0.71504  0.61623  1.0000
  C   C4337     1.0  0.69179  0.48723  0.57222  1.0000
  C   C4338     1.0  0.69478  0.63458  0.64925  1.0000
  C   C4339     1.0  0.68893  0.62399  0.64525  1.0000
  C   C4340     1.0  0.69486  0.60788  0.64969  1.0000
  C   C4341     1.0  0.70700  0.60230  0.65770  1.0000
  C   C4342     1.0  0.71334  0.61290  0.66114  1.0000
  C   C4343     1.0  0.70706  0.62903  0.65710  1.0000
  H   H6881     1.0  0.67959  0.62819  0.63901  1.0000
  H   H6882     1.0  0.68999  0.59970  0.64696  1.0000
  H   H6883     1.0  0.72260  0.60863  0.66748  1.0000
  H   H6884     1.0  0.71151  0.63721  0.66032  1.0000
  C   C4344     1.0  0.61340  0.67348  0.67586  1.0000
  C   C4345     1.0  0.60180  0.67243  0.68964  1.0000
  C   C4346     1.0  0.62888  0.67175  0.67656  1.0000
  H   H6885     1.0  0.58980  0.67381  0.68913  1.0000
  H   H6886     1.0  0.63788  0.67263  0.66599  1.0000
  C   C4347     1.0  0.87960  0.64894  0.68508  1.0000
  H   H6887     1.0  0.50713  0.68431  0.51400  1.0000
  H   H6888     1.0  0.75924  0.51153  0.63657  1.0000
  C   C4348     1.0  0.67203  0.49115  0.47565  1.0000
  H   H6889     1.0  0.63094  0.72910  0.72020  1.0000
  H   H6890     1.0  0.52439  0.64186  0.52514  1.0000
  N   N426      1.0  0.52300  0.66560  0.52570  1.0000
  C   C4349     1.0  0.52162  0.65395  0.51802  1.0000
  H   H6891     1.0  0.66710  0.48914  0.50669  1.0000
  H   H6892     1.0  0.83148  0.54753  0.49166  1.0000
  H   H6893     1.0  0.75464  0.56580  0.71805  1.0000
  H   H6894     1.0  0.67138  0.49582  0.56234  1.0000
  C   C4350     1.0  0.70210  0.50686  0.57674  1.0000
  S   S1754     1.0  0.50956  0.70374  0.47954  1.0000
  C   C4351     1.0  0.52685  0.57683  0.63003  1.0000
  C   C4352     1.0  0.79751  0.51075  0.50746  1.0000
  H   H6895     1.0  0.52474  0.65338  0.71798  1.0000
  H   H6896     1.0  0.59912  0.55403  0.53090  1.0000
  H   H6897     1.0  0.83962  0.57377  0.51164  1.0000
  H   H6898     1.0  0.61519  0.57595  0.50275  1.0000
  H   H6899     1.0  0.52024  0.69055  0.52117  1.0000
  S   S1755     1.0  0.48974  0.48643  0.59706  1.0000
  H   H6900     1.0  0.60345  0.50264  0.49715  1.0000
  C   C4353     1.0  0.79298  0.50676  0.52373  1.0000
  N   N427      1.0  0.63827  0.55603  0.59003  1.0000
  C   C4354     1.0  0.63372  0.57330  0.58640  1.0000
  C   C4355     1.0  0.63161  0.54998  0.60661  1.0000
  C   C4356     1.0  0.65549  0.55097  0.58695  1.0000
  C   C4357     1.0  0.63223  0.54984  0.58015  1.0000
  H   H6901     1.0  0.63856  0.57827  0.57397  1.0000
  H   H6902     1.0  0.63803  0.57840  0.59369  1.0000
  H   H6903     1.0  0.62078  0.57749  0.58860  1.0000
  H   H6904     1.0  0.63606  0.55427  0.61441  1.0000
  H   H6905     1.0  0.61865  0.55378  0.60937  1.0000
  H   H6906     1.0  0.63459  0.53696  0.60966  1.0000
  H   H6907     1.0  0.65930  0.53797  0.58949  1.0000
  H   H6908     1.0  0.77997  0.49716  0.65039  1.0000
  H   H6909     1.0  0.66090  0.55520  0.57448  1.0000
  H   H6910     1.0  0.63539  0.53682  0.58260  1.0000
  H   H6911     1.0  0.63715  0.55403  0.56755  1.0000
  H   H6912     1.0  0.61931  0.55346  0.58207  1.0000
  H   H6913     1.0  0.60627  0.69821  0.71478  1.0000
  H   H6914     1.0  0.92572  0.60285  0.52281  1.0000
  Fe  Fe882     1.0  0.90904  0.59983  0.47669  1.0000
  H   H6915     1.0  0.90258  0.66883  0.57489  1.0000
  S   S1756     1.0  0.90351  0.71822  0.67948  1.0000
  H   H6916     1.0  0.84712  0.48126  0.51801  1.0000
  S   S1757     1.0  0.63656  0.50067  0.56553  1.0000
  H   H6917     1.0  0.60972  0.71491  0.69949  1.0000
  N   N428      1.0  0.53138  0.56376  0.62194  1.0000
  C   C4358     1.0  0.62209  0.50795  0.47747  1.0000
  H   H6918     1.0  0.57289  0.48683  0.55691  1.0000
  H   H6919     1.0  0.51457  0.65289  0.54877  1.0000
  H   H6920     1.0  0.52831  0.62109  0.71222  1.0000
  C   C4359     1.0  0.79957  0.55755  0.70721  1.0000
  H   H6921     1.0  0.92556  0.59631  0.54323  1.0000
  H   H6922     1.0  0.74060  0.49403  0.50968  1.0000
  H   H6923     1.0  0.72854  0.49165  0.55237  1.0000
  H   H6924     1.0  0.79516  0.55488  0.72009  1.0000
  Fe  Fe883     1.0  0.62943  0.52774  0.52619  1.0000
  H   H6925     1.0  0.84872  0.55448  0.52070  1.0000
  H   H6926     1.0  0.84152  0.65824  0.68262  1.0000
  H   H6927     1.0  0.51209  0.55351  0.63609  1.0000
  C   C4360     1.0  0.82345  0.51075  0.50921  1.0000
  C   C4361     1.0  0.59254  0.58230  0.53780  1.0000
  S   S1758     1.0  0.90670  0.68085  0.68065  1.0000
  H   H6928     1.0  0.66212  0.64542  0.67624  1.0000
  H   H6929     1.0  0.91950  0.68607  0.57430  1.0000
  H   H6930     1.0  0.88620  0.64930  0.69346  1.0000
  Fe  Fe884     1.0  0.75170  0.51067  0.58797  1.0000
  S   S1759     1.0  0.91059  0.69104  0.71112  1.0000
  C   C4362     1.0  0.80429  0.71764  0.58347  1.0000
  H   H6931     1.0  0.53087  0.58741  0.62228  1.0000
  S   S1760     1.0  0.61661  0.50856  0.53830  1.0000
  N   N429      1.0  0.66051  0.62362  0.69284  1.0000
  C   C4363     1.0  0.67758  0.61876  0.69154  1.0000
  H   H6932     1.0  0.86559  0.67248  0.70008  1.0000
  H   H6933     1.0  0.86296  0.64579  0.71455  1.0000
  C   C4364     1.0  0.71360  0.50497  0.52874  1.0000
  H   H6934     1.0  0.54744  0.61287  0.71617  1.0000
  C   C4365     1.0  0.63408  0.52834  0.47798  1.0000
  C   C4366     1.0  0.77644  0.48614  0.65126  1.0000
  C   C4367     1.0  0.48763  0.53177  0.64065  1.0000
  S   S1761     1.0  0.74688  0.48758  0.60235  1.0000
  C   C4368     1.0  0.61313  0.52069  0.49930  1.0000
  H   H6935     1.0  0.54230  0.65053  0.53536  1.0000
  H   H6936     1.0  0.71040  0.50996  0.58108  1.0000
  C   C4369     1.0  0.86089  0.54353  0.49456  1.0000
  N   N430      1.0  0.72962  0.50522  0.52901  1.0000
  H   H6937     1.0  0.70564  0.50521  0.54042  1.0000
  H   H6938     1.0  0.76763  0.48409  0.66238  1.0000
  N   N431      1.0  0.58905  0.65371  0.62901  1.0000
  C   C4370     1.0  0.57598  0.64558  0.63577  1.0000
  C   C4371     1.0  0.58661  0.66665  0.63680  1.0000
  C   C4372     1.0  0.58975  0.66005  0.61219  1.0000
  C   C4373     1.0  0.60388  0.64254  0.63125  1.0000
  H   H6939     1.0  0.57753  0.63575  0.63009  1.0000
  H   H6940     1.0  0.56461  0.65364  0.63419  1.0000
  H   H6941     1.0  0.57508  0.64063  0.64847  1.0000
  H   H6942     1.0  0.58634  0.66230  0.64948  1.0000
  H   H6943     1.0  0.59622  0.67309  0.63184  1.0000
  H   H6944     1.0  0.57547  0.67527  0.63551  1.0000
  H   H6945     1.0  0.59972  0.66594  0.60658  1.0000
  H   H6946     1.0  0.57887  0.66872  0.61000  1.0000
  H   H6947     1.0  0.59128  0.65062  0.60603  1.0000
  H   H6948     1.0  0.60392  0.63767  0.64380  1.0000
  H   H6949     1.0  0.61401  0.64823  0.62609  1.0000
  H   H6950     1.0  0.60614  0.63257  0.62557  1.0000
  N   N432      1.0  0.75222  0.62753  0.62411  1.0000
  C   C4374     1.0  0.75025  0.64385  0.61506  1.0000
  C   C4375     1.0  0.76764  0.61838  0.61758  1.0000
  C   C4376     1.0  0.73971  0.62064  0.62326  1.0000
  C   C4377     1.0  0.75131  0.62731  0.64054  1.0000
  H   H6951     1.0  0.73872  0.65110  0.61967  1.0000
  H   H6952     1.0  0.75091  0.64446  0.60259  1.0000
  H   H6953     1.0  0.75950  0.64940  0.61547  1.0000
  H   H6954     1.0  0.76874  0.61812  0.60525  1.0000
  H   H6955     1.0  0.77732  0.62341  0.61787  1.0000
  H   H6956     1.0  0.76967  0.60605  0.62427  1.0000
  H   H6957     1.0  0.74048  0.60849  0.63037  1.0000
  H   H6958     1.0  0.74033  0.62018  0.61108  1.0000
  H   H6959     1.0  0.72790  0.62755  0.62764  1.0000
  H   H6960     1.0  0.75260  0.61520  0.64779  1.0000
  H   H6961     1.0  0.73992  0.63425  0.64581  1.0000
  H   H6962     1.0  0.76075  0.63218  0.64164  1.0000
  Fe  Fe885     1.0  0.49113  0.48833  0.62048  1.0000
  H   H6963     1.0  0.58797  0.58912  0.50074  1.0000
  H   H6964     1.0  0.50867  0.67152  0.48252  1.0000
  C   C4378     1.0  0.49206  0.60339  0.61936  1.0000
  H   H6965     1.0  0.62014  0.56864  0.52138  1.0000
  H   H6966     1.0  0.54066  0.67094  0.53351  1.0000
  C   C4379     1.0  0.59196  0.56376  0.52374  1.0000
  S   S1762     1.0  0.49566  0.61758  0.72165  1.0000
  H   H6967     1.0  0.86038  0.53384  0.50511  1.0000
  H   H6968     1.0  0.49185  0.50606  0.71491  1.0000
  H   H6969     1.0  0.48880  0.49089  0.70786  1.0000
  N   N433      1.0  0.77010  0.48720  0.63774  1.0000
  H   H6970     1.0  0.68058  0.61065  0.70237  1.0000
  C   C4380     1.0  0.63281  0.66887  0.69095  1.0000
  H   H6971     1.0  0.52822  0.55927  0.60131  1.0000
  H   H6972     1.0  0.93166  0.63469  0.51873  1.0000
  S   S1763     1.0  0.74189  0.53155  0.59888  1.0000
  S   S1764     1.0  0.91036  0.64191  0.47753  1.0000
  N   N434      1.0  0.80133  0.57392  0.70131  1.0000
  Fe  Fe886     1.0  0.73961  0.48569  0.58171  1.0000
  Fe  Fe887     1.0  0.89250  0.71269  0.70500  1.0000
  H   H6973     1.0  0.82272  0.56228  0.50292  1.0000
  C   C4381     1.0  0.73992  0.50484  0.51340  1.0000
  H   H6974     1.0  0.65759  0.64150  0.70520  1.0000
  C   C4382     1.0  0.83283  0.55233  0.50102  1.0000
  H   H6975     1.0  0.86478  0.48396  0.49182  1.0000
  C   C4383     1.0  0.72930  0.51965  0.53355  1.0000
  C   C4384     1.0  0.62860  0.72343  0.71203  1.0000
  C   C4385     1.0  0.97118  0.70557  0.67033  1.0000
  C   C4386     1.0  0.88415  0.69419  0.59879  1.0000
  H   H6976     1.0  0.59684  0.66829  0.71476  1.0000
  C   C4387     1.0  0.62424  0.52987  0.49250  1.0000
  N   N435      1.0  0.59575  0.57892  0.52219  1.0000
  C   C4388     1.0  0.49191  0.61012  0.63138  1.0000
  H   H6977     1.0  0.78124  0.58352  0.71744  1.0000
  H   H6978     1.0  0.66053  0.55542  0.59416  1.0000
  H   H6979     1.0  0.90900  0.67712  0.61020  1.0000
  C   C4389     1.0  0.95391  0.72831  0.68730  1.0000
  H   H6980     1.0  0.65531  0.62279  0.71746  1.0000
  C   C4390     1.0  0.61203  0.50978  0.49178  1.0000
  H   H6981     1.0  0.88442  0.66881  0.58892  1.0000
  H   H6982     1.0  0.91184  0.64510  0.52387  1.0000
  H   H6983     1.0  0.62562  0.69866  0.70350  1.0000
  H   H6984     1.0  0.58013  0.58247  0.54398  1.0000
  C   C4391     1.0  0.62132  0.66745  0.70474  1.0000
  C   C4392     1.0  0.67987  0.49895  0.56640  1.0000
  H   H6985     1.0  0.87531  0.68745  0.60622  1.0000
  H   H6986     1.0  0.88742  0.69967  0.60650  1.0000
  H   H6987     1.0  0.72490  0.53030  0.52516  1.0000
  C   C4393     1.0  0.89261  0.67636  0.58145  1.0000
  H   H6988     1.0  0.90360  0.70260  0.57145  1.0000
  N   N436      1.0  0.89782  0.68395  0.59081  1.0000
  Fe  Fe888     1.0  0.61437  0.51658  0.55983  1.0000
  N   N437      1.0  0.86264  0.65495  0.69030  1.0000
  S   S1765     1.0  0.65304  0.51293  0.52869  1.0000
  C   C4394     1.0  0.58603  0.59140  0.51253  1.0000
  H   H6989     1.0  0.64021  0.63484  0.70767  1.0000
  C   C4395     1.0  0.81271  0.51274  0.50019  1.0000
  H   H6990     1.0  0.53190  0.57367  0.64050  1.0000
  C   C4396     1.0  0.84923  0.56343  0.50957  1.0000
  N   N438      1.0  0.91635  0.62096  0.53583  1.0000
  H   H6991     1.0  0.91067  0.63604  0.55185  1.0000
  H   H6992     1.0  0.89154  0.62983  0.54209  1.0000
  H   H6993     1.0  0.85817  0.66142  0.66729  1.0000
  C   C4397     1.0  0.60577  0.66934  0.70412  1.0000
  H   H6994     1.0  0.74119  0.52017  0.53402  1.0000
  H   H6995     1.0  0.52812  0.54028  0.62670  1.0000
  C   C4398     1.0  0.90008  0.61920  0.53898  1.0000
  S   S1766     1.0  0.74236  0.50963  0.56829  1.0000
  H   H6996     1.0  0.53519  0.72726  0.48159  1.0000
  H   H6997     1.0  0.59040  0.48594  0.57357  1.0000
  C   C4399     1.0  0.52488  0.56876  0.60782  1.0000
  C   C4400     1.0  0.81669  0.71622  0.57053  1.0000
  H   H6998     1.0  0.57945  0.56387  0.52938  1.0000
  C   C4401     1.0  0.78593  0.58462  0.70470  1.0000
  C   C4402     1.0  0.95526  0.70607  0.67696  1.0000
  H   H6999     1.0  0.75165  0.50206  0.62657  1.0000
  H   H7000     1.0  0.83192  0.54295  0.51183  1.0000
  H   H7001     1.0  0.52974  0.54618  0.64324  1.0000
  C   C4403     1.0  0.85689  0.64541  0.70572  1.0000
  H   H7002     1.0  0.80029  0.50168  0.54534  1.0000
  H   H7003     1.0  0.80917  0.58910  0.67945  1.0000
  C   C4404     1.0  0.90544  0.67183  0.60252  1.0000
  C   C4405     1.0  0.65311  0.63098  0.70638  1.0000
  H   H7004     1.0  0.84702  0.67643  0.69514  1.0000
  H   H7005     1.0  0.78657  0.50044  0.62213  1.0000
  H   H7006     1.0  0.88443  0.65603  0.67366  1.0000
  H   H7007     1.0  0.88226  0.63663  0.68387  1.0000
  C   C4406     1.0  0.61243  0.57823  0.51466  1.0000
  S   S1767     1.0  0.77385  0.50430  0.53232  1.0000
  C   C4407     1.0  0.85970  0.67141  0.69146  1.0000
  H   H7008     1.0  0.89740  0.61720  0.52865  1.0000
  H   H7009     1.0  0.66490  0.50218  0.47920  1.0000
  C   C4408     1.0  0.97386  0.62657  0.49339  1.0000
  H   H7010     1.0  0.64479  0.66774  0.69137  1.0000
  C   C4409     1.0  0.54861  0.55916  0.61745  1.0000
  H   H7011     1.0  0.61576  0.58939  0.51356  1.0000
  C   C4410     1.0  0.91926  0.63360  0.52193  1.0000
  S   S1768     1.0  0.94628  0.69243  0.67450  1.0000
  Fe  Fe889     1.0  0.92786  0.61942  0.48303  1.0000
  H   H7012     1.0  0.89772  0.60921  0.54886  1.0000
  C   C4411     1.0  0.51924  0.68141  0.51584  1.0000
  C   C4412     1.0  0.94667  0.71745  0.68547  1.0000
  H   H7013     1.0  0.91601  0.66409  0.59691  1.0000
  C   C4413     1.0  0.80373  0.50477  0.53277  1.0000
  H   H7014     1.0  0.83710  0.48426  0.49452  1.0000
  N   N439      1.0  0.84789  0.55717  0.49687  1.0000
  Fe  Fe890     1.0  0.76685  0.49801  0.55854  1.0000
  H   H7015     1.0  0.89742  0.66422  0.61020  1.0000
  H   H7016     1.0  0.74666  0.49843  0.64747  1.0000
  H   H7017     1.0  0.52909  0.57910  0.59975  1.0000
  H   H7018     1.0  0.52979  0.65430  0.50639  1.0000
  H   H7019     1.0  0.63998  0.71659  0.70657  1.0000
  H   H7020     1.0  0.78659  0.59705  0.69947  1.0000
  H   H7021     1.0  0.93096  0.62640  0.54739  1.0000
  H   H7022     1.0  0.51187  0.57210  0.61084  1.0000
  C   C4414     1.0  0.91882  0.62492  0.54941  1.0000
  H   H7023     1.0  0.82558  0.72595  0.54635  1.0000
  C   C4415     1.0  0.97846  0.71643  0.67219  1.0000
  C   C4416     1.0  0.53913  0.66232  0.52785  1.0000
  H   H7024     1.0  0.65655  0.60092  0.70560  1.0000
  C   C4417     1.0  0.49697  0.67792  0.48636  1.0000
  S   S1769     1.0  0.94813  0.61646  0.49410  1.0000
  H   H7025     1.0  0.49621  0.59857  0.70093  1.0000
  S   S1770     1.0  0.62650  0.54240  0.50271  1.0000
  H   H7026     1.0  0.51393  0.58027  0.63399  1.0000
  C   C4418     1.0  0.52509  0.55033  0.63246  1.0000
  H   H7027     1.0  0.59466  0.59396  0.53701  1.0000
  S   S1771     1.0  0.88592  0.65752  0.72083  1.0000
  H   H7028     1.0  0.54780  0.66273  0.51651  1.0000
  Fe  Fe891     1.0  0.64760  0.52065  0.55114  1.0000
  C   C4419     1.0  0.81897  0.50679  0.52550  1.0000
  H   H7029     1.0  0.49372  0.53904  0.63066  1.0000
  H   H7030     1.0  0.57336  0.59245  0.51803  1.0000
  H   H7031     1.0  0.91674  0.61562  0.56011  1.0000
  H   H7032     1.0  0.82726  0.50523  0.53251  1.0000
  Fe  Fe892     1.0  0.92050  0.69542  0.68524  1.0000
  S   S1772     1.0  0.49375  0.51173  0.62165  1.0000
  H   H7033     1.0  0.58875  0.60299  0.51089  1.0000
  H   H7034     1.0  0.91304  0.69940  0.58720  1.0000
  H   H7035     1.0  0.76516  0.48051  0.71916  1.0000
  S   S1773     1.0  0.77664  0.50125  0.57709  1.0000
  H   H7036     1.0  0.80767  0.57458  0.72198  1.0000
  H   H7037     1.0  0.60527  0.52209  0.51033  1.0000
  C   C4420     1.0  0.96193  0.62833  0.48576  1.0000
  Fe  Fe893     1.0  0.84660  0.51825  0.47408  1.0000
  H   H7038     1.0  0.75207  0.50512  0.51333  1.0000
  C   C4421     1.0  0.73564  0.49142  0.54041  1.0000
  C   C4422     1.0  0.53821  0.62381  0.71510  1.0000
  H   H7039     1.0  0.81086  0.54912  0.70447  1.0000
  H   H7040     1.0  0.81923  0.56887  0.68117  1.0000
  H   H7041     1.0  0.68337  0.61254  0.68187  1.0000
  H   H7042     1.0  0.97353  0.48592  0.47610  1.0000
  H   H7043     1.0  0.64440  0.63907  0.67909  1.0000
  H   H7044     1.0  0.54293  0.63257  0.70502  1.0000
  H   H7045     1.0  0.51273  0.67333  0.54721  1.0000
  H   H7046     1.0  0.97426  0.61823  0.50436  1.0000
  C   C4423     1.0  0.64332  0.72431  0.59257  1.0000
  C   C4424     1.0  0.98538  0.63546  0.48685  1.0000
  H   H7047     1.0  0.82387  0.56892  0.70671  1.0000
  S   S1774     1.0  0.90773  0.57519  0.47787  1.0000
  S   S1775     1.0  0.76022  0.53463  0.71305  1.0000
  C   C4425     1.0  0.61462  0.70602  0.70898  1.0000
  N   N440      1.0  0.61736  0.71332  0.72021  1.0000
  H   H7048     1.0  0.74792  0.49594  0.71859  1.0000
  H   H7049     1.0  0.72159  0.52033  0.54527  1.0000
  H   H7050     1.0  0.49969  0.66709  0.53990  1.0000
  C   C4426     1.0  0.49414  0.69387  0.48598  1.0000
  C   C4427     1.0  0.63362  0.72546  0.60721  1.0000
  H   H7051     1.0  0.87566  0.65599  0.47670  1.0000
  H   H7052     1.0  0.84786  0.68322  0.47544  1.0000
  H   H7053     1.0  0.62379  0.48415  0.52324  1.0000
  H   H7054     1.0  0.73575  0.51507  0.50446  1.0000
  C   C4428     1.0  0.81591  0.72704  0.55631  1.0000
  H   H7055     1.0  0.77758  0.49157  0.61278  1.0000
  H   H7056     1.0  0.87244  0.54664  0.49182  1.0000
  H   H7057     1.0  0.74784  0.49092  0.54070  1.0000
  C   C4429     1.0  0.79103  0.72973  0.58207  1.0000
  H   H7058     1.0  0.83352  0.67213  0.47792  1.0000
  H   H7059     1.0  0.73553  0.48029  0.53775  1.0000
  H   H7060     1.0  0.90229  0.54752  0.47357  1.0000
  C   C4430     1.0  0.98500  0.64624  0.47264  1.0000
  H   H7061     1.0  0.84809  0.56490  0.47239  1.0000
  H   H7062     1.0  0.97853  0.68741  0.93686  1.0000
  C   C4431     1.0  0.54888  0.51058  0.93832  1.0000
  H   H7063     1.0  0.55091  0.48802  0.92379  1.0000
  H   H7064     1.0  0.93664  0.58931  0.81899  1.0000
  C   C4432     1.0  0.73022  0.69917  0.95066  1.0000
  H   H7065     1.0  0.51014  0.59662  0.81773  1.0000
  S   S1776     1.0  0.58441  0.48103  0.92060  1.0000
  Fe  Fe894     1.0  0.57262  0.66685  0.75937  1.0000
  S   S1777     1.0  0.57585  0.66968  0.78180  1.0000
  S   S1778     1.0  0.54911  0.67008  0.75434  1.0000
  H   H7066     1.0  0.75647  0.69156  0.92899  1.0000
  S   S1779     1.0  0.61309  0.66650  0.76463  1.0000
  C   C4433     1.0  0.94356  0.56208  0.80964  1.0000
  Fe  Fe895     1.0  0.59716  0.65036  0.77803  1.0000
  S   S1780     1.0  0.60509  0.63003  0.79666  1.0000
  Fe  Fe896     1.0  0.59149  0.68555  0.76626  1.0000
  S   S1781     1.0  0.59373  0.70840  0.76924  1.0000
  S   S1782     1.0  0.59277  0.64625  0.75666  1.0000
  H   H7067     1.0  0.51780  0.51389  0.94493  1.0000
  Fe  Fe897     1.0  0.88468  0.57997  0.82489  1.0000
  S   S1783     1.0  0.88816  0.60253  0.82719  1.0000
  H   H7068     1.0  0.59622  0.51678  0.95250  1.0000
  Fe  Fe898     1.0  0.85862  0.59688  0.80783  1.0000
  S   S1784     1.0  0.86019  0.62081  0.80852  1.0000
  S   S1785     1.0  0.84101  0.59490  0.79602  1.0000
  Fe  Fe899     1.0  0.88608  0.61133  0.80233  1.0000
  Fe  Fe900     1.0  0.50936  0.48803  0.86003  1.0000
  Fe  Fe901     1.0  0.86212  0.60985  0.83328  1.0000
  S   S1786     1.0  0.84976  0.62012  0.85445  1.0000
  S   S1787     1.0  0.88437  0.58829  0.79948  1.0000
  S   S1788     1.0  0.85860  0.58648  0.83311  1.0000
  S   S1789     1.0  0.90098  0.55869  0.83580  1.0000
  C   C4434     1.0  0.92424  0.57600  0.79444  1.0000
  C   C4435     1.0  0.87785  0.67757  0.77141  1.0000
  H   H7069     1.0  0.51759  0.58131  0.79722  1.0000
  H   H7070     1.0  0.91189  0.65767  0.73329  1.0000
  H   H7071     1.0  0.88341  0.66669  0.85906  1.0000
  N   N441      1.0  0.73104  0.57597  0.79209  1.0000
  H   H7072     1.0  0.86462  0.67965  0.96744  1.0000
  H   H7073     1.0  0.74067  0.55405  0.80578  1.0000
  H   H7074     1.0  0.84658  0.70108  0.95312  1.0000
  N   N442      1.0  0.53303  0.62971  0.72961  1.0000
  Fe  Fe902     1.0  0.83496  0.69839  0.90222  1.0000
  S   S1790     1.0  0.81722  0.69102  0.89463  1.0000
  S   S1791     1.0  0.84963  0.68242  0.91894  1.0000
  Fe  Fe903     1.0  0.82830  0.70251  0.87046  1.0000
  S   S1792     1.0  0.83618  0.69329  0.84838  1.0000
  Fe  Fe904     1.0  0.80288  0.71524  0.89604  1.0000
  H   H7075     1.0  0.87327  0.70067  0.73610  1.0000
  S   S1793     1.0  0.84711  0.70789  0.87802  1.0000
  C   C4436     1.0  0.89143  0.64821  0.73866  1.0000
  H   H7076     1.0  0.68787  0.64940  0.84348  1.0000
  C   C4437     1.0  0.56462  0.72120  0.76287  1.0000
  S   S1794     1.0  0.66303  0.70175  0.94061  1.0000
  H   H7077     1.0  0.86090  0.49565  0.79447  1.0000
  Fe  Fe905     1.0  0.70371  0.69768  0.91202  1.0000
  S   S1795     1.0  0.69555  0.67687  0.92865  1.0000
  S   S1796     1.0  0.72686  0.69539  0.89476  1.0000
  Fe  Fe906     1.0  0.67260  0.68794  0.92174  1.0000
  S   S1797     1.0  0.65773  0.67464  0.91684  1.0000
  S   S1798     1.0  0.68154  0.70744  0.90342  1.0000
  S   S1799     1.0  0.69685  0.71195  0.93011  1.0000
  Fe  Fe907     1.0  0.66154  0.62008  0.84558  1.0000
  S   S1800     1.0  0.65356  0.62185  0.87062  1.0000
  S   S1801     1.0  0.65349  0.64117  0.82771  1.0000
  Fe  Fe908     1.0  0.68069  0.58690  0.85319  1.0000
  S   S1802     1.0  0.67454  0.58587  0.87888  1.0000
  S   S1803     1.0  0.69388  0.56570  0.84329  1.0000
  Fe  Fe909     1.0  0.65033  0.59738  0.87523  1.0000
  S   S1804     1.0  0.62894  0.58948  0.89100  1.0000
  Fe  Fe910     1.0  0.67841  0.61037  0.87198  1.0000
  S   S1805     1.0  0.69296  0.61896  0.88262  1.0000
  S   S1806     1.0  0.65610  0.59663  0.85003  1.0000
  S   S1807     1.0  0.68677  0.61042  0.84641  1.0000
  Fe  Fe911     1.0  0.61438  0.50728  0.90221  1.0000
  S   S1808     1.0  0.63374  0.51977  0.88880  1.0000
  S   S1809     1.0  0.59107  0.51589  0.91715  1.0000
  H   H7078     1.0  0.56396  0.70946  0.76318  1.0000
  Fe  Fe912     1.0  0.77922  0.53508  0.81800  1.0000
  S   S1810     1.0  0.79868  0.51375  0.81908  1.0000
  S   S1811     1.0  0.76670  0.54677  0.83812  1.0000
  Fe  Fe913     1.0  0.78469  0.54141  0.78281  1.0000
  S   S1812     1.0  0.80488  0.52076  0.78060  1.0000
  S   S1813     1.0  0.77519  0.55986  0.76357  1.0000
  Fe  Fe914     1.0  0.78966  0.50816  0.80129  1.0000
  Fe  Fe915     1.0  0.81239  0.52782  0.79848  1.0000
  S   S1814     1.0  0.83728  0.52637  0.79907  1.0000
  S   S1815     1.0  0.76876  0.52829  0.80210  1.0000
  S   S1816     1.0  0.79361  0.54971  0.79878  1.0000
  H   H7079     1.0  0.54280  0.63751  0.74407  1.0000
  C   C4438     1.0  0.91395  0.52742  0.83946  1.0000
  H   H7080     1.0  0.91889  0.64440  0.75886  1.0000
  C   C4439     1.0  0.85610  0.65866  0.89231  1.0000
  C   C4440     1.0  0.86398  0.48660  0.80481  1.0000
  H   H7081     1.0  0.85828  0.70597  0.76871  1.0000
  C   C4441     1.0  0.71386  0.55987  0.84325  1.0000
  C   C4442     1.0  0.72116  0.56856  0.84823  1.0000
  C   C4443     1.0  0.73737  0.56415  0.84715  1.0000
  C   C4444     1.0  0.74628  0.55113  0.84101  1.0000
  C   C4445     1.0  0.73886  0.54214  0.83656  1.0000
  C   C4446     1.0  0.72268  0.54656  0.83761  1.0000
  H   H7082     1.0  0.71439  0.57880  0.85270  1.0000
  H   H7083     1.0  0.74306  0.57106  0.85074  1.0000
  H   H7084     1.0  0.74563  0.53190  0.83212  1.0000
  H   H7085     1.0  0.71706  0.53976  0.83381  1.0000
  C   C4447     1.0  0.62965  0.57024  0.89041  1.0000
  C   C4448     1.0  0.64114  0.56313  0.87929  1.0000
  C   C4449     1.0  0.64170  0.54791  0.87852  1.0000
  C   C4450     1.0  0.63117  0.53942  0.88923  1.0000
  C   C4451     1.0  0.61950  0.54652  0.90031  1.0000
  C   C4452     1.0  0.61866  0.56201  0.90080  1.0000
  H   H7086     1.0  0.64964  0.56932  0.87125  1.0000
  H   H7087     1.0  0.65038  0.54266  0.86961  1.0000
  H   H7088     1.0  0.61135  0.54000  0.90864  1.0000
  H   H7089     1.0  0.60973  0.56747  0.90945  1.0000
  C   C4453     1.0  0.66779  0.65840  0.90852  1.0000
  C   C4454     1.0  0.65928  0.64887  0.90633  1.0000
  C   C4455     1.0  0.66694  0.63651  0.89869  1.0000
  C   C4456     1.0  0.68317  0.63357  0.89330  1.0000
  C   C4457     1.0  0.69171  0.64288  0.89579  1.0000
  C   C4458     1.0  0.68405  0.65532  0.90331  1.0000
  H   H7090     1.0  0.64672  0.65116  0.91042  1.0000
  H   H7091     1.0  0.66029  0.62922  0.89708  1.0000
  H   H7092     1.0  0.70428  0.64063  0.89168  1.0000
  H   H7093     1.0  0.69070  0.66265  0.90487  1.0000
  C   C4459     1.0  0.76376  0.71534  0.90284  1.0000
  C   C4460     1.0  0.76821  0.70441  0.89345  1.0000
  C   C4461     1.0  0.75678  0.69859  0.89066  1.0000
  C   C4462     1.0  0.74094  0.70362  0.89732  1.0000
  C   C4463     1.0  0.53741  0.48820  0.87867  1.0000
  H   H7094     1.0  0.87571  0.70697  0.77350  1.0000
  H   H7095     1.0  0.78046  0.70022  0.88861  1.0000
  H   H7096     1.0  0.76025  0.68993  0.88362  1.0000
  H   H7097     1.0  0.60562  0.48466  0.85266  1.0000
  H   H7098     1.0  0.76018  0.57545  0.73826  1.0000
  C   C4464     1.0  0.86139  0.69222  0.92332  1.0000
  C   C4465     1.0  0.87186  0.68393  0.93295  1.0000
  C   C4466     1.0  0.88076  0.69178  0.93714  1.0000
  C   C4467     1.0  0.87914  0.70797  0.93182  1.0000
  C   C4468     1.0  0.55147  0.48157  0.88364  1.0000
  C   C4469     1.0  0.86012  0.70832  0.91761  1.0000
  H   H7099     1.0  0.87305  0.67145  0.93724  1.0000
  H   H7100     1.0  0.88895  0.68528  0.94438  1.0000
  H   H7101     1.0  0.60191  0.62719  0.85985  1.0000
  H   H7102     1.0  0.51640  0.64882  0.73846  1.0000
  H   H7103     1.0  0.91810  0.58760  0.78858  1.0000
  C   C4470     1.0  0.86895  0.71616  0.92188  1.0000
  H   H7104     1.0  0.74757  0.50606  0.74773  1.0000
  C   C4471     1.0  0.91409  0.51110  0.82253  1.0000
  C   C4472     1.0  0.90604  0.52427  0.81339  1.0000
  C   C4473     1.0  0.90169  0.53892  0.81745  1.0000
  C   C4474     1.0  0.90564  0.54051  0.83052  1.0000
  C   C4475     1.0  0.76365  0.54159  0.72754  1.0000
  C   C4476     1.0  0.91807  0.51274  0.83555  1.0000
  H   H7105     1.0  0.90313  0.52316  0.80316  1.0000
  H   H7106     1.0  0.89536  0.54896  0.81044  1.0000
  H   H7107     1.0  0.92422  0.50268  0.84269  1.0000
  C   C4477     1.0  0.84194  0.57577  0.79505  1.0000
  C   C4478     1.0  0.83197  0.57324  0.78733  1.0000
  C   C4479     1.0  0.83114  0.55800  0.78792  1.0000
  C   C4480     1.0  0.84022  0.54523  0.79628  1.0000
  C   C4481     1.0  0.85068  0.54772  0.80350  1.0000
  C   C4482     1.0  0.85156  0.56301  0.80288  1.0000
  H   H7108     1.0  0.82463  0.58311  0.78116  1.0000
  H   H7109     1.0  0.82340  0.55614  0.78193  1.0000
  H   H7110     1.0  0.85765  0.53793  0.81011  1.0000
  H   H7111     1.0  0.85927  0.56492  0.80888  1.0000
  C   C4483     1.0  0.84560  0.64053  0.85235  1.0000
  C   C4484     1.0  0.83709  0.64702  0.86525  1.0000
  C   C4485     1.0  0.83390  0.66323  0.86408  1.0000
  C   C4486     1.0  0.83922  0.67304  0.84999  1.0000
  C   C4487     1.0  0.84762  0.66658  0.83704  1.0000
  C   C4488     1.0  0.85084  0.65035  0.83822  1.0000
  H   H7112     1.0  0.83290  0.63946  0.87617  1.0000
  H   H7113     1.0  0.82724  0.66813  0.87405  1.0000
  H   H7114     1.0  0.85175  0.67413  0.82611  1.0000
  H   H7115     1.0  0.85742  0.64543  0.82823  1.0000
  H   H7116     1.0  0.51813  0.57975  0.83108  1.0000
  H   H7117     1.0  0.90155  0.69258  0.76125  1.0000
  H   H7118     1.0  0.88380  0.66648  0.76745  1.0000
  C   C4489     1.0  0.87485  0.50419  0.81184  1.0000
  S   S1817     1.0  0.55888  0.51701  0.89710  1.0000
  H   H7119     1.0  0.60185  0.59403  0.87901  1.0000
  Fe  Fe916     1.0  0.49900  0.51042  0.83155  1.0000
  C   C4490     1.0  0.90462  0.65039  0.74194  1.0000
  N   N443      1.0  0.75123  0.48398  0.74163  1.0000
  C   C4491     1.0  0.66322  0.67143  0.86866  1.0000
  C   C4492     1.0  0.61933  0.63342  0.80403  1.0000
  C   C4493     1.0  0.63035  0.62073  0.81000  1.0000
  C   C4494     1.0  0.64119  0.62311  0.81683  1.0000
  C   C4495     1.0  0.64091  0.63817  0.81793  1.0000
  C   C4496     1.0  0.63015  0.65092  0.81157  1.0000
  C   C4497     1.0  0.61936  0.64855  0.80463  1.0000
  H   H7120     1.0  0.63056  0.60906  0.80923  1.0000
  H   H7121     1.0  0.64988  0.61332  0.82105  1.0000
  H   H7122     1.0  0.62995  0.66261  0.81228  1.0000
  H   H7123     1.0  0.61083  0.65840  0.80010  1.0000
  C   C4498     1.0  0.52119  0.63259  0.77993  1.0000
  C   C4499     1.0  0.53671  0.63001  0.78114  1.0000
  C   C4500     1.0  0.54529  0.64170  0.77380  1.0000
  C   C4501     1.0  0.53834  0.65593  0.76521  1.0000
  C   C4502     1.0  0.52272  0.65861  0.76437  1.0000
  C   C4503     1.0  0.51414  0.64703  0.77182  1.0000
  H   H7124     1.0  0.54221  0.61888  0.78745  1.0000
  H   H7125     1.0  0.55736  0.63958  0.77449  1.0000
  H   H7126     1.0  0.51726  0.66968  0.75789  1.0000
  H   H7127     1.0  0.91527  0.57017  0.80324  1.0000
  S   S1818     1.0  0.61957  0.48433  0.91905  1.0000
  C   C4504     1.0  0.54634  0.63333  0.73302  1.0000
  S   S1819     1.0  0.49592  0.51296  0.85595  1.0000
  H   H7128     1.0  0.53128  0.52472  0.88493  1.0000
  H   H7129     1.0  0.86435  0.50617  0.82140  1.0000
  C   C4505     1.0  0.55102  0.50601  0.88950  1.0000
  H   H7130     1.0  0.66532  0.66621  0.83274  1.0000
  H   H7131     1.0  0.87889  0.62372  0.77284  1.0000
  S   S1820     1.0  0.62684  0.66326  0.72254  1.0000
  H   H7132     1.0  0.68694  0.67784  0.83266  1.0000
  S   S1821     1.0  0.51107  0.61736  0.78756  1.0000
  H   H7133     1.0  0.87898  0.67980  0.74109  1.0000
  S   S1822     1.0  0.69348  0.68187  0.96956  1.0000
  H   H7134     1.0  0.56917  0.48525  0.89275  1.0000
  N   N444      1.0  0.50240  0.57585  0.81969  1.0000
  N   N445      1.0  0.87212  0.65900  0.88298  1.0000
  C   C4506     1.0  0.89606  0.69176  0.75218  1.0000
  H   H7135     1.0  0.53267  0.48294  0.93442  1.0000
  H   H7136     1.0  0.92188  0.59923  0.80796  1.0000
  Fe  Fe917     1.0  0.58166  0.50442  0.90411  1.0000
  H   H7137     1.0  0.83051  0.71319  0.96366  1.0000
  S   S1823     1.0  0.92458  0.70350  0.95926  1.0000
  H   H7138     1.0  0.74027  0.49763  0.78650  1.0000
  C   C4507     1.0  0.71578  0.57842  0.80322  1.0000
  H   H7139     1.0  0.88312  0.67775  0.78092  1.0000
  C   C4508     1.0  0.74311  0.56589  0.80056  1.0000
  H   H7140     1.0  0.65258  0.65968  0.85075  1.0000
  H   H7141     1.0  0.62585  0.70599  0.74140  1.0000
  C   C4509     1.0  0.77027  0.53102  0.73956  1.0000
  S   S1824     1.0  0.90415  0.62411  0.78573  1.0000
  C   C4510     1.0  0.73249  0.67741  0.93942  1.0000
  H   H7142     1.0  0.68948  0.67990  0.85070  1.0000
  H   H7143     1.0  0.51732  0.49471  0.95701  1.0000
  S   S1825     1.0  0.77757  0.72166  0.90810  1.0000
  H   H7144     1.0  0.74547  0.66068  0.96349  1.0000
  Fe  Fe918     1.0  0.68679  0.69207  0.94622  1.0000
  Fe  Fe919     1.0  0.59529  0.49205  0.93282  1.0000
  C   C4511     1.0  0.77028  0.55254  0.75022  1.0000
  C   C4512     1.0  0.94772  0.58528  0.78971  1.0000
  S   S1826     1.0  0.60451  0.49800  0.88769  1.0000
  H   H7145     1.0  0.91703  0.52859  0.84958  1.0000
  Fe  Fe920     1.0  0.89948  0.70621  0.95890  1.0000
  H   H7146     1.0  0.71779  0.69906  0.95657  1.0000
  H   H7147     1.0  0.88234  0.63755  0.89706  1.0000
  H   H7148     1.0  0.86014  0.68959  0.75027  1.0000
  H   H7149     1.0  0.76445  0.49889  0.72334  1.0000
  H   H7150     1.0  0.95378  0.57828  0.78068  1.0000
  H   H7151     1.0  0.87189  0.68098  0.88748  1.0000
  H   H7152     1.0  0.65535  0.68325  0.86784  1.0000
  S   S1827     1.0  0.81247  0.72625  0.87119  1.0000
  H   H7153     1.0  0.58508  0.60822  0.87377  1.0000
  H   H7154     1.0  0.87687  0.63525  0.88058  1.0000
  H   H7155     1.0  0.75491  0.56437  0.79271  1.0000
  H   H7156     1.0  0.69089  0.65164  0.86125  1.0000
  C   C4513     1.0  0.87893  0.66876  0.88856  1.0000
  C   C4514     1.0  0.76316  0.56306  0.73854  1.0000
  H   H7157     1.0  0.53608  0.60682  0.74474  1.0000
  H   H7158     1.0  0.90209  0.48832  0.79770  1.0000
  H   H7159     1.0  0.84844  0.67058  0.89101  1.0000
  C   C4515     1.0  0.55832  0.49046  0.88896  1.0000
  N   N446      1.0  0.68702  0.52695  0.88374  1.0000
  C   C4516     1.0  0.67983  0.54384  0.88111  1.0000
  C   C4517     1.0  0.69271  0.52206  0.89833  1.0000
  C   C4518     1.0  0.70025  0.52390  0.87051  1.0000
  C   C4519     1.0  0.67529  0.51804  0.88501  1.0000
  H   H7160     1.0  0.68842  0.55091  0.87989  1.0000
  H   H7161     1.0  0.66980  0.54670  0.89085  1.0000
  H   H7162     1.0  0.67541  0.54793  0.87019  1.0000
  H   H7163     1.0  0.68294  0.52415  0.90853  1.0000
  H   H7164     1.0  0.69835  0.50939  0.90063  1.0000
  H   H7165     1.0  0.70146  0.52868  0.89783  1.0000
  H   H7166     1.0  0.70583  0.51123  0.87187  1.0000
  H   H7167     1.0  0.70941  0.53028  0.86937  1.0000
  H   H7168     1.0  0.69637  0.52790  0.85927  1.0000
  H   H7169     1.0  0.66480  0.52058  0.89446  1.0000
  H   H7170     1.0  0.68011  0.50520  0.88759  1.0000
  H   H7171     1.0  0.67112  0.52097  0.87403  1.0000
  N   N447      1.0  0.80413  0.56667  0.83669  1.0000
  C   C4520     1.0  0.79218  0.56710  0.85137  1.0000
  C   C4521     1.0  0.81028  0.55031  0.83492  1.0000
  C   C4522     1.0  0.81702  0.57332  0.83703  1.0000
  C   C4523     1.0  0.79701  0.57596  0.82340  1.0000
  H   H7172     1.0  0.78723  0.57928  0.85306  1.0000
  H   H7173     1.0  0.79714  0.56016  0.86164  1.0000
  H   H7174     1.0  0.78228  0.56215  0.85148  1.0000
  H   H7175     1.0  0.81919  0.54958  0.82387  1.0000
  H   H7176     1.0  0.81589  0.54294  0.84464  1.0000
  H   H7177     1.0  0.80083  0.54493  0.83468  1.0000
  H   H7178     1.0  0.81283  0.58569  0.83827  1.0000
  H   H7179     1.0  0.82619  0.57327  0.82610  1.0000
  H   H7180     1.0  0.82278  0.56657  0.84684  1.0000
  H   H7181     1.0  0.79240  0.58841  0.82423  1.0000
  H   H7182     1.0  0.78717  0.57130  0.82288  1.0000
  H   H7183     1.0  0.80570  0.57575  0.81213  1.0000
  N   N448      1.0  0.87937  0.69135  0.75841  1.0000
  C   C4524     1.0  0.87095  0.70579  0.76405  1.0000
  C   C4525     1.0  0.87263  0.69030  0.74594  1.0000
  H   H7184     1.0  0.76313  0.50346  0.79150  1.0000
  C   C4526     1.0  0.54836  0.48478  0.95455  1.0000
  H   H7185     1.0  0.72693  0.55675  0.78570  1.0000
  H   H7186     1.0  0.56089  0.50647  0.93176  1.0000
  H   H7187     1.0  0.71618  0.58387  0.81254  1.0000
  H   H7188     1.0  0.61865  0.62224  0.84483  1.0000
  H   H7189     1.0  0.89758  0.70204  0.74233  1.0000
  N   N449      1.0  0.60476  0.60486  0.85461  1.0000
  C   C4527     1.0  0.59516  0.61122  0.84275  1.0000
  C   C4528     1.0  0.61129  0.61735  0.85609  1.0000
  C   C4529     1.0  0.61766  0.59197  0.84985  1.0000
  C   C4530     1.0  0.59496  0.59884  0.86979  1.0000
  H   H7190     1.0  0.59006  0.60212  0.84129  1.0000
  H   H7191     1.0  0.60220  0.61578  0.83114  1.0000
  H   H7192     1.0  0.73228  0.68527  0.92774  1.0000
  H   H7193     1.0  0.61876  0.61289  0.86481  1.0000
  Fe  Fe921     1.0  0.49099  0.62082  0.77632  1.0000
  H   H7194     1.0  0.51030  0.64168  0.72521  1.0000
  H   H7195     1.0  0.51714  0.61433  0.74027  1.0000
  H   H7196     1.0  0.62544  0.59610  0.83855  1.0000
  H   H7197     1.0  0.61321  0.58235  0.84854  1.0000
  H   H7198     1.0  0.52239  0.62188  0.75366  1.0000
  H   H7199     1.0  0.59001  0.58925  0.86916  1.0000
  S   S1828     1.0  0.88914  0.71836  0.93790  1.0000
  C   C4531     1.0  0.53698  0.51269  0.88450  1.0000
  H   H7200     1.0  0.85224  0.71483  0.91001  1.0000
  H   H7201     1.0  0.76301  0.67229  0.93970  1.0000
  C   C4532     1.0  0.88224  0.63853  0.74982  1.0000
  H   H7202     1.0  0.86711  0.65821  0.86167  1.0000
  H   H7203     1.0  0.74683  0.58962  0.77588  1.0000
  H   H7204     1.0  0.72103  0.57560  0.77359  1.0000
  H   H7205     1.0  0.72649  0.59914  0.77786  1.0000
  H   H7206     1.0  0.54965  0.48853  0.96460  1.0000
  H   H7207     1.0  0.67521  0.64330  0.86174  1.0000
  N   N450      1.0  0.73933  0.68336  0.94884  1.0000
  C   C4533     1.0  0.92815  0.58749  0.81340  1.0000
  C   C4534     1.0  0.53021  0.50382  0.87901  1.0000
  H   H7208     1.0  0.87203  0.63679  0.74734  1.0000
  C   C4535     1.0  0.88610  0.63113  0.76428  1.0000
  H   H7209     1.0  0.93484  0.55615  0.81882  1.0000
  H   H7210     1.0  0.62523  0.48184  0.85494  1.0000
  C   C4536     1.0  0.68060  0.68002  0.84442  1.0000
  H   H7211     1.0  0.65141  0.68025  0.84302  1.0000
  H   H7212     1.0  0.95675  0.58680  0.79482  1.0000
  Fe  Fe922     1.0  0.67395  0.72039  0.92269  1.0000
  H   H7213     1.0  0.63501  0.69345  0.72766  1.0000
  C   C4537     1.0  0.73886  0.67277  0.96439  1.0000
  C   C4538     1.0  0.59296  0.49617  0.97038  1.0000
  H   H7214     1.0  0.61567  0.69316  0.73888  1.0000
  C   C4539     1.0  0.73534  0.59117  0.78436  1.0000
  H   H7215     1.0  0.77906  0.52829  0.75994  1.0000
  H   H7216     1.0  0.72026  0.67642  0.94517  1.0000
  C   C4540     1.0  0.62383  0.70099  0.73254  1.0000
  H   H7217     1.0  0.51932  0.50899  0.87528  1.0000
  H   H7218     1.0  0.65596  0.66279  0.87549  1.0000
  H   H7219     1.0  0.91941  0.58195  0.82287  1.0000
  N   N451      1.0  0.67131  0.66816  0.85312  1.0000
  H   H7220     1.0  0.87925  0.66423  0.90112  1.0000
  H   H7221     1.0  0.61548  0.48168  0.82519  1.0000
  C   C4541     1.0  0.68180  0.65248  0.85493  1.0000
  H   H7222     1.0  0.73025  0.70747  0.93920  1.0000
  C   C4542     1.0  0.52425  0.50394  0.95258  1.0000
  H   H7223     1.0  0.76112  0.68903  0.94738  1.0000
  H   H7224     1.0  0.62500  0.58686  0.85865  1.0000
  N   N452      1.0  0.54017  0.49794  0.94402  1.0000
  C   C4543     1.0  0.88177  0.64291  0.88467  1.0000
  H   H7225     1.0  0.71216  0.56716  0.80917  1.0000
  C   C4544     1.0  0.77367  0.53649  0.75086  1.0000
  H   H7226     1.0  0.92968  0.56877  0.78553  1.0000
  S   S1829     1.0  0.81967  0.72151  0.90586  1.0000
  H   H7227     1.0  0.73634  0.59714  0.79299  1.0000
  C   C4545     1.0  0.89931  0.63322  0.76758  1.0000
  H   H7228     1.0  0.77127  0.48495  0.74896  1.0000
  H   H7229     1.0  0.74136  0.56625  0.77173  1.0000
  H   H7230     1.0  0.67169  0.67086  0.87560  1.0000
  H   H7231     1.0  0.50532  0.54991  0.78109  1.0000
  N   N453      1.0  0.87794  0.48850  0.80861  1.0000
  H   H7232     1.0  0.56859  0.72330  0.81535  1.0000
  C   C4546     1.0  0.74924  0.48818  0.79082  1.0000
  S   S1830     1.0  0.50651  0.52815  0.81017  1.0000
  Fe  Fe923     1.0  0.60694  0.66423  0.74354  1.0000
  H   H7233     1.0  0.74372  0.57083  0.81015  1.0000
  C   C4547     1.0  0.57794  0.72386  0.76543  1.0000
  H   H7234     1.0  0.58538  0.62107  0.84587  1.0000
  H   H7235     1.0  0.70636  0.58613  0.79733  1.0000
  N   N454      1.0  0.93595  0.57770  0.80179  1.0000
  S   S1831     1.0  0.91873  0.49275  0.81752  1.0000
  C   C4548     1.0  0.75569  0.68407  0.94094  1.0000
  C   C4549     1.0  0.52692  0.61765  0.74263  1.0000
  C   C4550     1.0  0.49902  0.56184  0.83171  1.0000
  S   S1832     1.0  0.58643  0.68447  0.74416  1.0000
  H   H7236     1.0  0.90279  0.68106  0.74777  1.0000
  H   H7237     1.0  0.94945  0.55431  0.80127  1.0000
  C   C4551     1.0  0.90861  0.64282  0.75637  1.0000
  C   C4552     1.0  0.53913  0.49251  0.93063  1.0000
  H   H7238     1.0  0.50202  0.64936  0.77139  1.0000
  H   H7239     1.0  0.95242  0.56287  0.81542  1.0000
  H   H7240     1.0  0.55037  0.72296  0.82936  1.0000
  C   C4553     1.0  0.89140  0.48679  0.79526  1.0000
  H   H7241     1.0  0.55606  0.62286  0.73435  1.0000
  H   H7242     1.0  0.86539  0.67701  0.77656  1.0000
  C   C4554     1.0  0.73001  0.56834  0.78025  1.0000
  H   H7243     1.0  0.52458  0.50815  0.96275  1.0000
  H   H7244     1.0  0.88488  0.50579  0.81541  1.0000
  H   H7245     1.0  0.89105  0.66929  0.88187  1.0000
  H   H7246     1.0  0.94217  0.59711  0.78367  1.0000
  H   H7247     1.0  0.85070  0.65113  0.88869  1.0000
  H   H7248     1.0  0.74446  0.72926  0.91625  1.0000
  H   H7249     1.0  0.89394  0.64269  0.87775  1.0000
  H   H7250     1.0  0.86383  0.67753  0.86476  1.0000
  H   H7251     1.0  0.88908  0.49567  0.78457  1.0000
  C   C4555     1.0  0.97699  0.67721  0.94610  1.0000
  H   H7252     1.0  0.95214  0.68180  0.94812  1.0000
  C   C4556     1.0  0.65964  0.66866  0.84453  1.0000
  H   H7253     1.0  0.85593  0.65420  0.90496  1.0000
  C   C4557     1.0  0.87163  0.66565  0.86640  1.0000
  C   C4558     1.0  0.52058  0.64403  0.72772  1.0000
  H   H7254     1.0  0.67306  0.69201  0.84283  1.0000
  C   C4559     1.0  0.59654  0.51093  0.96447  1.0000
  C   C4560     1.0  0.51496  0.57101  0.80662  1.0000
  S   S1833     1.0  0.51440  0.48643  0.83506  1.0000
  C   C4561     1.0  0.76213  0.49150  0.79373  1.0000
  C   C4562     1.0  0.95991  0.66114  0.96473  1.0000
  C   C4563     1.0  0.73654  0.71488  0.90630  1.0000
  S   S1834     1.0  0.79004  0.48294  0.80314  1.0000
  C   C4564     1.0  0.74790  0.72074  0.90905  1.0000
  H   H7255     1.0  0.87197  0.71639  0.75447  1.0000
  C   C4565     1.0  0.76001  0.55762  0.72711  1.0000
  C   C4566     1.0  0.97287  0.65091  0.96998  1.0000
  C   C4567     1.0  0.74104  0.49706  0.74873  1.0000
  H   H7256     1.0  0.73923  0.66563  0.93753  1.0000
  H   H7257     1.0  0.53313  0.50219  0.92238  1.0000
  C   C4568     1.0  0.49383  0.55186  0.78868  1.0000
  H   H7258     1.0  0.77309  0.51861  0.73996  1.0000
  C   C4569     1.0  0.96202  0.67414  0.95257  1.0000
  H   H7259     1.0  0.72440  0.71909  0.91116  1.0000
  H   H7260     1.0  0.54316  0.52067  0.93020  1.0000
  H   H7261     1.0  0.73503  0.70401  0.95773  1.0000
  C   C4570     1.0  0.50743  0.58598  0.82654  1.0000
  S   S1835     1.0  0.58674  0.48722  0.95910  1.0000
  H   H7262     1.0  0.49815  0.58999  0.83631  1.0000
  H   H7263     1.0  0.52594  0.56450  0.81053  1.0000
  S   S1836     1.0  0.49162  0.60136  0.76560  1.0000
  H   H7264     1.0  0.51164  0.56315  0.80136  1.0000
  H   H7265     1.0  0.86525  0.70725  0.96413  1.0000
  H   H7266     1.0  0.55007  0.51489  0.94806  1.0000
  H   H7267     1.0  0.50957  0.55478  0.83618  1.0000
  H   H7268     1.0  0.49032  0.59525  0.80478  1.0000
  H   H7269     1.0  0.85357  0.48794  0.81459  1.0000
  C   C4571     1.0  0.83801  0.70118  0.96448  1.0000
  H   H7270     1.0  0.73609  0.49291  0.76133  1.0000
  H   H7271     1.0  0.70990  0.72930  0.88449  1.0000
  H   H7272     1.0  0.60248  0.52993  0.96964  1.0000
  H   H7273     1.0  0.49508  0.55401  0.82696  1.0000
  H   H7274     1.0  0.87270  0.51357  0.80140  1.0000
  H   H7275     1.0  0.83052  0.69300  0.96568  1.0000
  C   C4572     1.0  0.75749  0.49006  0.72494  1.0000
  C   C4573     1.0  0.48818  0.58460  0.81385  1.0000
  H   H7276     1.0  0.48963  0.56502  0.84178  1.0000
  H   H7277     1.0  0.59370  0.71556  0.73362  1.0000
  H   H7278     1.0  0.72662  0.67208  0.97064  1.0000
  H   H7279     1.0  0.73105  0.50299  0.74299  1.0000
  H   H7280     1.0  0.86773  0.72866  0.91757  1.0000
  C   C4574     1.0  0.49091  0.54209  0.80345  1.0000
  H   H7281     1.0  0.55103  0.64270  0.72367  1.0000
  H   H7282     1.0  0.60407  0.72832  0.73603  1.0000
  C   C4575     1.0  0.60245  0.72283  0.72732  1.0000
  H   H7283     1.0  0.66903  0.70991  0.97201  1.0000
  H   H7284     1.0  0.74394  0.67689  0.97182  1.0000
  H   H7285     1.0  0.97272  0.69064  0.97187  1.0000
  H   H7286     1.0  0.88424  0.90611  0.11823  1.0000
  C   C4576     1.0  0.88919  0.75540  0.00858  1.0000
  H   H7287     1.0  0.90193  0.92892  0.08009  1.0000
  H   H7288     1.0  0.90924  0.89458  0.08134  1.0000
  C   C4577     1.0  0.82458  0.77789  0.11565  1.0000
  C   C4578     1.0  0.90066  0.92077  0.09171  1.0000
  S   S1837     1.0  0.85333  0.81406  0.11351  1.0000
  Fe  Fe924     1.0  0.81881  0.85048  0.11553  1.0000
  S   S1838     1.0  0.83085  0.84296  0.09308  1.0000
  S   S1839     1.0  0.79963  0.87166  0.11959  1.0000
  Fe  Fe925     1.0  0.83029  0.81853  0.10699  1.0000
  S   S1840     1.0  0.82537  0.80480  0.09256  1.0000
  Fe  Fe926     1.0  0.85311  0.83884  0.10068  1.0000
  S   S1841     1.0  0.87458  0.84401  0.08289  1.0000
  S   S1842     1.0  0.84131  0.84911  0.12164  1.0000
  Fe  Fe927     1.0  0.88883  0.92339  0.04097  1.0000
  S   S1843     1.0  0.89164  0.93562  0.01581  1.0000
  S   S1844     1.0  0.86696  0.91650  0.05649  1.0000
  Fe  Fe928     1.0  0.92076  0.92538  0.04280  1.0000
  S   S1845     1.0  0.92682  0.93756  0.01774  1.0000
  S   S1846     1.0  0.93654  0.91730  0.05961  1.0000
  Fe  Fe929     1.0  0.90212  0.95157  0.02251  1.0000
  S   S1847     1.0  0.98001  0.95679  0.09284  1.0000
  Fe  Fe930     1.0  0.91588  0.92051  0.01329  1.0000
  S   S1848     1.0  0.92675  0.90651  0.99480  1.0000
  S   S1849     1.0  0.89703  0.94076  0.04797  1.0000
  S   S1850     1.0  0.91226  0.90696  0.03795  1.0000
  N   N455      1.0  0.64794  0.87938  0.19254  1.0000
  H   H7289     1.0  0.65911  0.97520  0.02694  1.0000
  H   H7290     1.0  0.51947  0.79687  0.15932  1.0000
  S   S1851     1.0  0.90793  0.81593  0.01021  1.0000
  Fe  Fe931     1.0  0.89613  0.80318  0.00100  1.0000
  S   S1852     1.0  0.88859  0.87052  0.20763  1.0000
  C   C4579     1.0  0.64980  0.86705  0.18417  1.0000
  S   S1853     1.0  0.88500  0.85849  0.00462  1.0000
  H   H7291     1.0  0.96560  0.97334  0.18904  1.0000
  H   H7292     1.0  0.85714  0.77670  0.05111  1.0000
  C   C4580     1.0  0.62196  0.78361  0.10915  1.0000
  C   C4581     1.0  0.76299  0.90498  0.09404  1.0000
  H   H7293     1.0  0.61920  0.75663  0.10480  1.0000
  S   S1854     1.0  0.95303  0.94457  0.16301  1.0000
  H   H7294     1.0  0.95820  0.89865  0.15107  1.0000
  Fe  Fe932     1.0  0.96417  0.94899  0.13746  1.0000
  Fe  Fe933     1.0  0.53890  0.80137  0.18529  1.0000
  S   S1855     1.0  0.55813  0.79472  0.19824  1.0000
  S   S1856     1.0  0.53965  0.81643  0.16111  1.0000
  H   H7295     1.0  0.97002  0.91261  0.17065  1.0000
  Fe  Fe934     1.0  0.53934  0.80176  0.21837  1.0000
  C   C4582     1.0  0.70753  0.74168  0.08249  1.0000
  H   H7296     1.0  0.95648  0.83543  0.02559  1.0000
  H   H7297     1.0  0.63308  0.77484  0.10692  1.0000
  Fe  Fe935     1.0  0.55101  0.77153  0.20667  1.0000
  C   C4583     1.0  0.64829  0.89448  0.18123  1.0000
  S   S1857     1.0  0.52064  0.81032  0.20471  1.0000
  S   S1858     1.0  0.53313  0.77774  0.19212  1.0000
  Fe  Fe936     1.0  0.71118  0.88423  0.13449  1.0000
  S   S1859     1.0  0.69095  0.87985  0.15426  1.0000
  S   S1860     1.0  0.73083  0.86459  0.12725  1.0000
  Fe  Fe937     1.0  0.69616  0.91821  0.12448  1.0000
  S   S1861     1.0  0.67428  0.91709  0.14336  1.0000
  S   S1862     1.0  0.70384  0.93826  0.10575  1.0000
  Fe  Fe938     1.0  0.69068  0.90277  0.15884  1.0000
  Fe  Fe939     1.0  0.67582  0.89424  0.13770  1.0000
  S   S1863     1.0  0.65494  0.88430  0.14082  1.0000
  S   S1864     1.0  0.71251  0.90589  0.14060  1.0000
  S   S1865     1.0  0.69611  0.89663  0.11730  1.0000
  H   H7298     1.0  0.59065  0.78977  0.12002  1.0000
  H   H7299     1.0  0.51213  0.82510  0.14804  1.0000
  Fe  Fe940     1.0  0.62958  0.83134  0.06724  1.0000
  S   S1866     1.0  0.62485  0.85736  0.05823  1.0000
  S   S1867     1.0  0.64125  0.81435  0.05147  1.0000
  Fe  Fe941     1.0  0.61287  0.83390  0.10028  1.0000
  S   S1868     1.0  0.60653  0.86014  0.09442  1.0000
  S   S1869     1.0  0.60889  0.81789  0.12399  1.0000
  Fe  Fe942     1.0  0.60079  0.85724  0.07313  1.0000
  S   S1870     1.0  0.57898  0.87168  0.06487  1.0000
  Fe  Fe943     1.0  0.63106  0.85823  0.08002  1.0000
  S   S1871     1.0  0.64707  0.87378  0.07838  1.0000
  S   S1872     1.0  0.60493  0.83112  0.08040  1.0000
  S   S1873     1.0  0.63797  0.83219  0.08766  1.0000
  H   H7300     1.0  0.62618  0.77650  0.08135  1.0000
  S   S1874     1.0  0.53126  0.89477  0.00090  1.0000
  H   H7301     1.0  0.75593  0.89469  0.07271  1.0000
  H   H7302     1.0  0.89492  0.80481  0.20843  1.0000
  H   H7303     1.0  0.66108  0.86586  0.17540  1.0000
  H   H7304     1.0  0.56592  0.91488  0.99662  1.0000
  C   C4584     1.0  0.81637  0.77884  0.09242  1.0000
  Fe  Fe944     1.0  0.83950  0.82465  0.13410  1.0000
  Fe  Fe945     1.0  0.55290  0.87886  0.99052  1.0000
  S   S1875     1.0  0.57237  0.86220  0.00131  1.0000
  H   H7305     1.0  0.76157  0.91306  0.06382  1.0000
  H   H7306     1.0  0.73539  0.73360  0.06324  1.0000
  C   C4585     1.0  0.48986  0.77247  0.19929  1.0000
  H   H7307     1.0  0.86809  0.73374  0.05406  1.0000
  H   H7308     1.0  0.73062  0.74726  0.04604  1.0000
  H   H7309     1.0  0.93065  0.84168  0.05507  1.0000
  Fe  Fe946     1.0  0.95517  0.96049  0.10610  1.0000
  H   H7310     1.0  0.57111  0.80716  0.21980  1.0000
  H   H7311     1.0  0.82423  0.75638  0.13305  1.0000
  C   C4586     1.0  0.80038  0.84513  0.16086  1.0000
  H   H7312     1.0  0.87523  0.92804  0.07982  1.0000
  H   H7313     1.0  0.61801  0.78253  0.12199  1.0000
  H   H7314     1.0  0.62460  0.79543  0.10408  1.0000
  H   H7315     1.0  0.88997  0.89239  0.08227  1.0000
  H   H7316     1.0  0.86675  0.91211  0.09182  1.0000
  H   H7317     1.0  0.79325  0.88026  0.17040  1.0000
  C   C4587     1.0  0.64960  0.79535  0.06044  1.0000
  C   C4588     1.0  0.65279  0.78301  0.05290  1.0000
  C   C4589     1.0  0.65863  0.76760  0.06032  1.0000
  C   C4590     1.0  0.66141  0.76457  0.07523  1.0000
  C   C4591     1.0  0.65876  0.77696  0.08252  1.0000
  C   C4592     1.0  0.65272  0.79229  0.07522  1.0000
  H   H7318     1.0  0.65043  0.78534  0.04144  1.0000
  H   H7319     1.0  0.66076  0.75808  0.05458  1.0000
  H   H7320     1.0  0.66119  0.77466  0.09394  1.0000
  H   H7321     1.0  0.65051  0.80174  0.08101  1.0000
  C   C4593     1.0  0.57681  0.86804  0.04779  1.0000
  C   C4594     1.0  0.56290  0.87504  0.04259  1.0000
  C   C4595     1.0  0.56130  0.87306  0.02849  1.0000
  C   C4596     1.0  0.57362  0.86408  0.01951  1.0000
  C   C4597     1.0  0.58738  0.85676  0.02490  1.0000
  C   C4598     1.0  0.58899  0.85875  0.03900  1.0000
  H   H7322     1.0  0.55335  0.88204  0.04948  1.0000
  H   H7323     1.0  0.55052  0.87844  0.02461  1.0000
  H   H7324     1.0  0.59692  0.84968  0.01809  1.0000
  H   H7325     1.0  0.59973  0.85322  0.04296  1.0000
  H   H7326     1.0  0.71458  0.76940  0.07789  1.0000
  H   H7327     1.0  0.90295  0.77147  0.18981  1.0000
  H   H7328     1.0  0.73927  0.89067  0.09935  1.0000
  S   S1876     1.0  0.81624  0.82643  0.12900  1.0000
  C   C4599     1.0  0.92543  0.86584  0.03102  1.0000
  S   S1877     1.0  0.91017  0.83519  0.20629  1.0000
  C   C4600     1.0  0.81391  0.76360  0.09842  1.0000
  H   H7329     1.0  0.70650  0.76772  0.04784  1.0000
  H   H7330     1.0  0.82997  0.77300  0.05992  1.0000
  H   H7331     1.0  0.95975  0.91223  0.99129  1.0000
  C   C4601     1.0  0.68897  0.95409  0.09993  1.0000
  C   C4602     1.0  0.67320  0.95397  0.10643  1.0000
  C   C4603     1.0  0.66157  0.96682  0.10161  1.0000
  H   H7332     1.0  0.64037  0.86979  0.17770  1.0000
  H   H7333     1.0  0.96394  0.87405  0.17086  1.0000
  C   C4604     1.0  0.69307  0.96702  0.08854  1.0000
  H   H7334     1.0  0.66994  0.94401  0.11516  1.0000
  H   H7335     1.0  0.64938  0.96671  0.10669  1.0000
  S   S1878     1.0  0.91610  0.79878  0.98081  1.0000
  H   H7336     1.0  0.70525  0.96710  0.08336  1.0000
  C   C4605     1.0  0.65170  0.88242  0.12346  1.0000
  C   C4606     1.0  0.64224  0.87244  0.12410  1.0000
  C   C4607     1.0  0.64043  0.86995  0.11030  1.0000
  C   C4608     1.0  0.64798  0.87757  0.09584  1.0000
  C   C4609     1.0  0.65717  0.88779  0.09524  1.0000
  C   C4610     1.0  0.65910  0.89016  0.10901  1.0000
  H   H7337     1.0  0.63649  0.86642  0.13526  1.0000
  H   H7338     1.0  0.63334  0.86202  0.11082  1.0000
  H   H7339     1.0  0.66296  0.89375  0.08406  1.0000
  H   H7340     1.0  0.66624  0.89803  0.10843  1.0000
  C   C4611     1.0  0.58951  0.81699  0.13331  1.0000
  C   C4612     1.0  0.57696  0.82750  0.12756  1.0000
  C   C4613     1.0  0.56156  0.82698  0.13586  1.0000
  C   C4614     1.0  0.55876  0.81591  0.14985  1.0000
  C   C4615     1.0  0.57132  0.80499  0.15516  1.0000
  C   C4616     1.0  0.58666  0.80560  0.14697  1.0000
  H   H7341     1.0  0.57911  0.83626  0.11692  1.0000
  H   H7342     1.0  0.55187  0.83540  0.13163  1.0000
  H   H7343     1.0  0.56925  0.79609  0.16562  1.0000
  H   H7344     1.0  0.59635  0.79728  0.15132  1.0000
  C   C4617     1.0  0.87467  0.91964  0.09134  1.0000
  C   C4618     1.0  0.88910  0.89955  0.10872  1.0000
  H   H7345     1.0  0.60448  0.76215  0.12122  1.0000
  C   C4619     1.0  0.86439  0.83559  0.15139  1.0000
  C   C4620     1.0  0.85385  0.82806  0.16329  1.0000
  N   N456      1.0  0.71437  0.75112  0.06748  1.0000
  H   H7346     1.0  0.90072  0.89216  0.11041  1.0000
  S   S1879     1.0  0.66812  0.74550  0.08516  1.0000
  Fe  Fe947     1.0  0.53830  0.91310  0.97974  1.0000
  H   H7347     1.0  0.85498  0.74076  0.04103  1.0000
  H   H7348     1.0  0.77291  0.91015  0.08633  1.0000
  C   C4621     1.0  0.92156  0.75256  0.99971  1.0000
  S   S1880     1.0  0.68419  0.90375  0.18417  1.0000
  N   N457      1.0  0.93308  0.84941  0.03026  1.0000
  H   H7349     1.0  0.97982  0.80337  0.00092  1.0000
  C   C4622     1.0  0.56642  0.96525  0.97695  1.0000
  H   H7350     1.0  0.73320  0.93317  0.08131  1.0000
  H   H7351     1.0  0.91722  0.77351  0.00807  1.0000
  H   H7352     1.0  0.71651  0.73511  0.08937  1.0000
  H   H7353     1.0  0.88733  0.81156  0.16877  1.0000
  S   S1881     1.0  0.98362  0.85773  0.99233  1.0000
  N   N458      1.0  0.74877  0.91107  0.08762  1.0000
  C   C4623     1.0  0.89700  0.90102  0.08103  1.0000
  C   C4624     1.0  0.89580  0.76675  0.01033  1.0000
  H   H7354     1.0  0.88130  0.89154  0.11025  1.0000
  N   N459      1.0  0.89035  0.91026  0.09322  1.0000
  H   H7355     1.0  0.76686  0.89203  0.09552  1.0000
  H   H7356     1.0  0.89290  0.79128  0.16807  1.0000
  C   C4625     1.0  0.60807  0.76507  0.10827  1.0000
  H   H7357     1.0  0.86907  0.92655  0.10050  1.0000
  S   S1882     1.0  0.82112  0.73470  0.04681  1.0000
  S   S1883     1.0  0.88575  0.85237  0.17439  1.0000
  H   H7358     1.0  0.72411  0.93320  0.17726  1.0000
  C   C4626     1.0  0.93644  0.93211  0.06838  1.0000
  C   C4627     1.0  0.92710  0.94711  0.06493  1.0000
  C   C4628     1.0  0.92685  0.95859  0.07255  1.0000
  C   C4629     1.0  0.93643  0.95529  0.08309  1.0000
  C   C4630     1.0  0.94604  0.94041  0.08617  1.0000
  C   C4631     1.0  0.94571  0.92874  0.07919  1.0000
  H   H7359     1.0  0.92007  0.94989  0.05644  1.0000
  H   H7360     1.0  0.90352  0.77742  0.20665  1.0000
  H   H7361     1.0  0.95370  0.93780  0.09400  1.0000
  H   H7362     1.0  0.95264  0.91710  0.08225  1.0000
  S   S1884     1.0  0.72464  0.93397  0.20834  1.0000
  C   C4632     1.0  0.94307  0.90446  0.18793  1.0000
  C   C4633     1.0  0.80725  0.85068  0.18201  1.0000
  C   C4634     1.0  0.89879  0.74284  0.00196  1.0000
  H   H7363     1.0  0.70827  0.92141  0.16752  1.0000
  C   C4635     1.0  0.74383  0.92818  0.08627  1.0000
  H   H7364     1.0  0.91608  0.84675  0.01954  1.0000
  H   H7365     1.0  0.63379  0.95845  0.06418  1.0000
  H   H7366     1.0  0.91266  0.91411  0.09290  1.0000
  H   H7367     1.0  0.73345  0.90589  0.10999  1.0000
  C   C4636     1.0  0.91469  0.89389  0.99658  1.0000
  C   C4637     1.0  0.91957  0.88257  0.98758  1.0000
  C   C4638     1.0  0.91040  0.87178  0.98980  1.0000
  C   C4639     1.0  0.89632  0.87233  0.00097  1.0000
  C   C4640     1.0  0.89135  0.88380  0.00978  1.0000
  C   C4641     1.0  0.90054  0.89451  0.00763  1.0000
  H   H7368     1.0  0.94424  0.83855  0.98105  1.0000
  H   H7369     1.0  0.91435  0.86300  0.98296  1.0000
  H   H7370     1.0  0.88045  0.88434  0.01842  1.0000
  H   H7371     1.0  0.89663  0.90320  0.01463  1.0000
  C   C4642     1.0  0.87205  0.86410  0.07510  1.0000
  C   C4643     1.0  0.88295  0.86973  0.06211  1.0000
  C   C4644     1.0  0.88110  0.88584  0.05589  1.0000
  C   C4645     1.0  0.86851  0.89631  0.06285  1.0000
  C   C4646     1.0  0.85741  0.89063  0.07560  1.0000
  C   C4647     1.0  0.85912  0.87452  0.08168  1.0000
  H   H7372     1.0  0.89273  0.86164  0.05683  1.0000
  H   H7373     1.0  0.88927  0.89012  0.04563  1.0000
  H   H7374     1.0  0.84753  0.89870  0.08088  1.0000
  H   H7375     1.0  0.85050  0.87021  0.09153  1.0000
  H   H7376     1.0  0.82875  0.78335  0.12230  1.0000
  C   C4648     1.0  0.78064  0.86902  0.12249  1.0000
  C   C4649     1.0  0.76791  0.87977  0.12891  1.0000
  C   C4650     1.0  0.75259  0.87831  0.13072  1.0000
  C   C4651     1.0  0.74993  0.86611  0.12606  1.0000
  C   C4652     1.0  0.76270  0.85519  0.11990  1.0000
  C   C4653     1.0  0.77804  0.85660  0.11816  1.0000
  H   H7377     1.0  0.76988  0.88933  0.13239  1.0000
  H   H7378     1.0  0.74287  0.88661  0.13573  1.0000
  H   H7379     1.0  0.76074  0.84568  0.11633  1.0000
  H   H7380     1.0  0.78783  0.84825  0.11319  1.0000
  H   H7381     1.0  0.59904  0.76300  0.10354  1.0000
  H   H7382     1.0  0.89603  0.92800  0.10066  1.0000
  H   H7383     1.0  0.88920  0.81961  0.19242  1.0000
  H   H7384     1.0  0.87306  0.76030  0.04785  1.0000
  H   H7385     1.0  0.89712  0.90872  0.06926  1.0000
  C   C4654     1.0  0.85576  0.73931  0.05328  1.0000
  H   H7386     1.0  0.91887  0.79021  0.17290  1.0000
  C   C4655     1.0  0.66635  0.93986  0.22132  1.0000
  H   H7387     1.0  0.97449  0.91488  0.04483  1.0000
  H   H7388     1.0  0.49194  0.83467  0.14902  1.0000
  H   H7389     1.0  0.63107  0.88979  0.21055  1.0000
  H   H7390     1.0  0.95447  0.85568  0.01615  1.0000
  C   C4656     1.0  0.93228  0.77831  0.21472  1.0000
  H   H7391     1.0  0.59267  0.90181  0.99969  1.0000
  N   N460      1.0  0.80415  0.85721  0.16621  1.0000
  C   C4657     1.0  0.50052  0.82343  0.14799  1.0000
  C   C4658     1.0  0.88894  0.80733  0.19871  1.0000
  H   H7392     1.0  0.79690  0.84688  0.19048  1.0000
  H   H7393     1.0  0.96924  0.90319  0.06393  1.0000
  H   H7394     1.0  0.63884  0.89777  0.17469  1.0000
  H   H7395     1.0  0.80965  0.75825  0.09179  1.0000
  C   C4659     1.0  0.54664  0.73318  0.21133  1.0000
  H   H7396     1.0  0.69821  0.74910  0.08978  1.0000
  H   H7397     1.0  0.72507  0.90819  0.09383  1.0000
  H   H7398     1.0  0.86569  0.83505  0.13944  1.0000
  N   N461      1.0  0.86388  0.83211  0.04685  1.0000
  C   C4660     1.0  0.85694  0.82245  0.06168  1.0000
  C   C4661     1.0  0.86095  0.82790  0.03363  1.0000
  C   C4662     1.0  0.88091  0.82929  0.04539  1.0000
  C   C4663     1.0  0.85680  0.84883  0.04668  1.0000
  H   H7399     1.0  0.84402  0.82449  0.06339  1.0000
  H   H7400     1.0  0.85920  0.82516  0.07187  1.0000
  H   H7401     1.0  0.86181  0.80975  0.06217  1.0000
  H   H7402     1.0  0.86584  0.83518  0.02228  1.0000
  H   H7403     1.0  0.86643  0.81543  0.03317  1.0000
  H   H7404     1.0  0.84822  0.82968  0.03444  1.0000
  H   H7405     1.0  0.88645  0.83656  0.03442  1.0000
  H   H7406     1.0  0.88667  0.81682  0.04534  1.0000
  H   H7407     1.0  0.88354  0.83226  0.05523  1.0000
  H   H7408     1.0  0.86191  0.85649  0.03572  1.0000
  H   H7409     1.0  0.85871  0.85237  0.05656  1.0000
  H   H7410     1.0  0.84396  0.85144  0.04766  1.0000
  H   H7411     1.0  0.81390  0.78522  0.08121  1.0000
  H   H7412     1.0  0.93278  0.85306  0.00621  1.0000
  C   C4664     1.0  0.70344  0.91651  0.21199  1.0000
  H   H7413     1.0  0.81720  0.84028  0.18206  1.0000
  C   C4665     1.0  0.97418  0.97202  0.21561  1.0000
  C   C4666     1.0  0.91497  0.74167  0.99714  1.0000
  C   C4667     1.0  0.92180  0.79034  0.22155  1.0000
  H   H7414     1.0  0.58579  0.93062  0.99301  1.0000
  H   H7415     1.0  0.61700  0.79673  0.08042  1.0000
  H   H7416     1.0  0.97076  0.92588  0.97773  1.0000
  H   H7417     1.0  0.84837  0.73096  0.06066  1.0000
  S   S1885     1.0  0.95163  0.80497  0.99209  1.0000
  H   H7418     1.0  0.74158  0.91188  0.06695  1.0000
  C   C4668     1.0  0.97565  0.84289  0.99110  1.0000
  C   C4669     1.0  0.69629  0.91151  0.19048  1.0000
  H   H7419     1.0  0.74078  0.93122  0.09789  1.0000
  H   H7420     1.0  0.76093  0.90765  0.10569  1.0000
  N   N462      1.0  0.69457  0.84709  0.11309  1.0000
  C   C4670     1.0  0.71081  0.84921  0.10876  1.0000
  C   C4671     1.0  0.68692  0.85491  0.09984  1.0000
  C   C4672     1.0  0.68590  0.85401  0.12670  1.0000
  C   C4673     1.0  0.69462  0.83023  0.11710  1.0000
  H   H7421     1.0  0.71698  0.84334  0.11846  1.0000
  H   H7422     1.0  0.71116  0.86181  0.10598  1.0000
  H   H7423     1.0  0.71770  0.84433  0.09840  1.0000
  H   H7424     1.0  0.67455  0.85375  0.10279  1.0000
  H   H7425     1.0  0.68679  0.86763  0.09640  1.0000
  H   H7426     1.0  0.69297  0.84989  0.08939  1.0000
  H   H7427     1.0  0.68531  0.86679  0.12395  1.0000
  H   H7428     1.0  0.69155  0.84870  0.13681  1.0000
  H   H7429     1.0  0.67364  0.85246  0.13048  1.0000
  H   H7430     1.0  0.70022  0.82398  0.12713  1.0000
  H   H7431     1.0  0.70111  0.82462  0.10711  1.0000
  H   H7432     1.0  0.68250  0.82828  0.12034  1.0000
  N   N463      1.0  0.61000  0.78138  0.10245  1.0000
  C   C4674     1.0  0.59499  0.79218  0.10714  1.0000
  C   C4675     1.0  0.61503  0.78464  0.08526  1.0000
  H   H7433     1.0  0.58578  0.79129  0.10185  1.0000
  H   H7434     1.0  0.59622  0.80453  0.10349  1.0000
  C   C4676     1.0  0.50771  0.79584  0.15899  1.0000
  H   H7435     1.0  0.60618  0.78342  0.07973  1.0000
  S   S1886     1.0  0.95796  0.93702  0.12250  1.0000
  N   N464      1.0  0.57240  0.83944  0.17883  1.0000
  C   C4677     1.0  0.57407  0.84693  0.16208  1.0000
  C   C4678     1.0  0.55656  0.83630  0.18528  1.0000
  C   C4679     1.0  0.57481  0.84995  0.18723  1.0000
  C   C4680     1.0  0.58418  0.82457  0.18069  1.0000
  H   H7436     1.0  0.58592  0.84941  0.15676  1.0000
  H   H7437     1.0  0.56533  0.85815  0.16014  1.0000
  H   H7438     1.0  0.57236  0.83925  0.15545  1.0000
  H   H7439     1.0  0.55491  0.83050  0.19789  1.0000
  H   H7440     1.0  0.54737  0.84725  0.18416  1.0000
  H   H7441     1.0  0.55429  0.82853  0.17910  1.0000
  H   H7442     1.0  0.58680  0.85222  0.18301  1.0000
  H   H7443     1.0  0.57320  0.84483  0.19997  1.0000
  H   H7444     1.0  0.56635  0.86142  0.18578  1.0000
  H   H7445     1.0  0.59626  0.82645  0.17564  1.0000
  H   H7446     1.0  0.58248  0.81626  0.17478  1.0000
  H   H7447     1.0  0.58347  0.81869  0.19316  1.0000
  C   C4681     1.0  0.91262  0.79849  0.18071  1.0000
  S   S1887     1.0  0.49659  0.88044  0.99421  1.0000
  C   C4682     1.0  0.97013  0.89991  0.17419  1.0000
  S   S1888     1.0  0.81393  0.73625  0.12066  1.0000
  C   C4683     1.0  0.97139  0.93368  0.20088  1.0000
  C   C4684     1.0  0.63286  0.88056  0.20405  1.0000
  N   N465      1.0  0.49589  0.81044  0.16078  1.0000
  Fe  Fe948     1.0  0.88814  0.84988  0.19899  1.0000
  C   C4685     1.0  0.96108  0.81961  0.99110  1.0000
  H   H7448     1.0  0.97397  0.89541  0.18544  1.0000
  H   H7449     1.0  0.91935  0.97003  0.07024  1.0000
  H   H7450     1.0  0.95391  0.84986  0.03660  1.0000
  H   H7451     1.0  0.70211  0.73297  0.08071  1.0000
  H   H7452     1.0  0.64289  0.92592  0.20802  1.0000
  H   H7453     1.0  0.92781  0.86917  0.04078  1.0000
  H   H7454     1.0  0.93803  0.90181  0.16136  1.0000
  C   C4686     1.0  0.95021  0.84748  0.02707  1.0000
  N   N466      1.0  0.57610  0.91631  0.01457  1.0000
  Fe  Fe949     1.0  0.51659  0.78603  0.21289  1.0000
  C   C4687     1.0  0.58163  0.93067  0.00563  1.0000
  C   C4688     1.0  0.58886  0.90249  0.01218  1.0000
  C   C4689     1.0  0.57128  0.91656  0.03133  1.0000
  C   C4690     1.0  0.56263  0.73294  0.20707  1.0000
  H   H7455     1.0  0.55292  0.92597  0.01031  1.0000
  H   H7456     1.0  0.57215  0.94135  0.00667  1.0000
  H   H7457     1.0  0.97916  0.89426  0.16524  1.0000
  H   H7458     1.0  0.59151  0.93196  0.00967  1.0000
  H   H7459     1.0  0.84794  0.76328  0.07836  1.0000
  C   C4691     1.0  0.92892  0.84537  0.01763  1.0000
  H   H7460     1.0  0.58512  0.89146  0.01884  1.0000
  C   C4692     1.0  0.96568  0.94235  0.17512  1.0000
  C   C4693     1.0  0.91201  0.76504  0.00632  1.0000
  C   C4694     1.0  0.73610  0.90359  0.09812  1.0000
  C   C4695     1.0  0.82178  0.78599  0.10096  1.0000
  C   C4696     1.0  0.82206  0.76262  0.12169  1.0000
  S   S1889     1.0  0.54057  0.87082  0.97721  1.0000
  H   H7461     1.0  0.50468  0.78581  0.16849  1.0000
  H   H7462     1.0  0.94195  0.78094  0.20518  1.0000
  H   H7463     1.0  0.75317  0.93425  0.07866  1.0000
  S   S1890     1.0  0.95901  0.97287  0.12221  1.0000
  C   C4697     1.0  0.75211  0.90752  0.07208  1.0000
  H   H7464     1.0  0.94687  0.90046  0.19919  1.0000
  H   H7465     1.0  0.65955  0.89395  0.17246  1.0000
  H   H7466     1.0  0.88212  0.84889  0.14569  1.0000
  C   C4698     1.0  0.70700  0.91989  0.17991  1.0000
  C   C4699     1.0  0.94970  0.90381  0.16066  1.0000
  H   H7467     1.0  0.63404  0.95461  0.20605  1.0000
  H   H7468     1.0  0.58115  0.91717  0.03585  1.0000
  C   C4700     1.0  0.72266  0.76143  0.07039  1.0000
  H   H7469     1.0  0.93055  0.88197  0.97908  1.0000
  C   C4701     1.0  0.81676  0.75545  0.11306  1.0000
  S   S1891     1.0  0.93634  0.96967  0.09246  1.0000
  S   S1892     1.0  0.84233  0.81783  0.15907  1.0000
  H   H7470     1.0  0.64329  0.96440  0.21425  1.0000
  H   H7471     1.0  0.82839  0.85206  0.15480  1.0000
  Fe  Fe950     1.0  0.98318  0.93414  0.11030  1.0000
  C   C4702     1.0  0.98215  0.82717  0.99658  1.0000
  C   C4703     1.0  0.87376  0.84338  0.15496  1.0000
  H   H7472     1.0  0.94385  0.87743  0.18118  1.0000
  H   H7473     1.0  0.55786  0.90505  0.01584  1.0000
  C   C4704     1.0  0.88764  0.79952  0.17604  1.0000
  H   H7474     1.0  0.87083  0.96151  0.03188  1.0000
  H   H7475     1.0  0.83260  0.76274  0.04492  1.0000
  C   C4705     1.0  0.69466  0.90972  0.20648  1.0000
  H   H7476     1.0  0.87665  0.75667  0.01162  1.0000
  H   H7477     1.0  0.92969  0.87404  0.02009  1.0000
  S   S1893     1.0  0.94318  0.74813  0.21132  1.0000
  C   C4706     1.0  0.95476  0.83533  0.98539  1.0000
  H   H7478     1.0  0.56609  0.97563  0.98063  1.0000
  C   C4707     1.0  0.87270  0.84368  0.17044  1.0000
  C   C4708     1.0  0.97487  0.81553  0.99655  1.0000
  C   C4709     1.0  0.71591  0.92661  0.18542  1.0000
  H   H7479     1.0  0.78986  0.84113  0.16869  1.0000
  S   S1894     1.0  0.88314  0.82483  0.98741  1.0000
  H   H7480     1.0  0.94953  0.93415  0.19606  1.0000
  H   H7481     1.0  0.89551  0.77474  0.97688  1.0000
  H   H7482     1.0  0.79800  0.84963  0.14896  1.0000
  H   H7483     1.0  0.49156  0.80429  0.18581  1.0000
  H   H7484     1.0  0.69331  0.76898  0.06639  1.0000
  N   N467      1.0  0.89655  0.79636  0.18819  1.0000
  H   H7485     1.0  0.87653  0.80668  0.20401  1.0000
  H   H7486     1.0  0.56719  0.90580  0.03843  1.0000
  H   H7487     1.0  0.94885  0.91667  0.15721  1.0000
  C   C4710     1.0  0.66085  0.87543  0.20070  1.0000
  H   H7488     1.0  0.64702  0.90407  0.18709  1.0000
  C   C4711     1.0  0.86576  0.97369  0.02783  1.0000
  H   H7489     1.0  0.65370  0.95691  0.19712  1.0000
  H   H7490     1.0  0.78833  0.87596  0.15460  1.0000
  C   C4712     1.0  0.89703  0.78013  0.19728  1.0000
  C   C4713     1.0  0.70180  0.76073  0.05942  1.0000
  C   C4714     1.0  0.72554  0.74063  0.05766  1.0000
  H   H7491     1.0  0.66249  0.92836  0.19899  1.0000
  H   H7492     1.0  0.93458  0.83307  0.01658  1.0000
  H   H7493     1.0  0.94140  0.91742  0.18465  1.0000
  C   C4715     1.0  0.63780  0.96381  0.05166  1.0000
  C   C4716     1.0  0.49487  0.81393  0.17590  1.0000
  H   H7494     1.0  0.50240  0.76835  0.19746  1.0000
  H   H7495     1.0  0.77999  0.86761  0.17437  1.0000
  H   H7496     1.0  0.50140  0.82118  0.13641  1.0000
  H   H7497     1.0  0.56158  0.92678  0.03357  1.0000
  H   H7498     1.0  0.69501  0.75332  0.05750  1.0000
  C   C4717     1.0  0.85182  0.75205  0.07437  1.0000
  S   S1895     1.0  0.79260  0.73743  0.08709  1.0000
  H   H7499     1.0  0.93341  0.82648  0.04498  1.0000
  H   H7500     1.0  0.84438  0.74404  0.08249  1.0000
  H   H7501     1.0  0.82153  0.87106  0.15926  1.0000
  H   H7502     1.0  0.54243  0.96447  0.98836  1.0000
  H   H7503     1.0  0.81033  0.85939  0.18638  1.0000
  H   H7504     1.0  0.89365  0.73431  0.00027  1.0000
  H   H7505     1.0  0.72794  0.76876  0.05931  1.0000
  H   H7506     1.0  0.98362  0.97048  0.22174  1.0000
  H   H7507     1.0  0.91259  0.81060  0.17363  1.0000
  H   H7508     1.0  0.84444  0.82276  0.18806  1.0000
  C   C4718     1.0  0.71402  0.92502  0.20147  1.0000
  H   H7509     1.0  0.59922  0.90272  0.01614  1.0000
  C   C4719     1.0  0.85257  0.82856  0.17878  1.0000
  S   S1896     1.0  0.91688  0.83585  0.97378  1.0000
  H   H7510     1.0  0.93145  0.90163  0.19013  1.0000
  H   H7511     1.0  0.96780  0.92894  0.21319  1.0000
  H   H7512     1.0  0.85943  0.76757  0.03541  1.0000
  C   C4720     1.0  0.65393  0.92667  0.21035  1.0000
  H   H7513     1.0  0.91489  0.84009  0.04793  1.0000
  C   C4721     1.0  0.86187  0.83647  0.18235  1.0000
  S   S1897     1.0  0.88393  0.78403  0.01565  1.0000
  Fe  Fe951     1.0  0.51942  0.88854  0.98565  1.0000
  C   C4722     1.0  0.56263  0.91550  0.00912  1.0000
  C   C4723     1.0  0.83413  0.76132  0.05692  1.0000
  H   H7514     1.0  0.87531  0.79844  0.18121  1.0000
  H   H7515     1.0  0.98181  0.89402  0.04863  1.0000
  H   H7516     1.0  0.50875  0.79276  0.14776  1.0000
  S   S1898     1.0  0.89580  0.97766  0.01512  1.0000
  H   H7517     1.0  0.98410  0.95031  0.15662  1.0000
  Fe  Fe952     1.0  0.92696  0.81341  0.98886  1.0000
  C   C4724     1.0  0.81819  0.86213  0.15547  1.0000
  H   H7518     1.0  0.88507  0.77815  0.20300  1.0000
  S   S1899     1.0  0.56951  0.74925  0.20668  1.0000
  C   C4725     1.0  0.96106  0.93656  0.19114  1.0000
  H   H7519     1.0  0.62283  0.88338  0.19838  1.0000
  H   H7520     1.0  0.91959  0.79650  0.18952  1.0000
  H   H7521     1.0  0.71987  0.73223  0.05569  1.0000
  H   H7522     1.0  0.95898  0.87459  0.19115  1.0000
  H   H7523     1.0  0.81020  0.83467  0.16044  1.0000
  C   C4726     1.0  0.79084  0.87087  0.16645  1.0000
  H   H7524     1.0  0.91254  0.86798  0.03262  1.0000
  H   H7525     1.0  0.65536  0.96615  0.06975  1.0000
  H   H7526     1.0  0.81626  0.86725  0.14344  1.0000
  H   H7527     1.0  0.93407  0.75162  0.99616  1.0000
  C   C4727     1.0  0.95541  0.88004  0.17985  1.0000
  C   C4728     1.0  0.92777  0.83895  0.04523  1.0000
  H   H7528     1.0  0.64614  0.95447  0.04599  1.0000
  H   H7529     1.0  0.86406  0.74690  0.07570  1.0000
  C   C4729     1.0  0.64532  0.95451  0.20852  1.0000
  Fe  Fe953     1.0  0.89696  0.83731  0.99460  1.0000
  C   C4730     1.0  0.55341  0.94530  0.97677  1.0000
  N   N468      1.0  0.95458  0.89706  0.17566  1.0000
  C   C4731     1.0  0.96203  0.84696  0.98539  1.0000
  H   H7530     1.0  0.66773  0.96218  0.05155  1.0000
  H   H7531     1.0  0.86081  0.83681  0.19430  1.0000
  Fe  Fe954     1.0  0.90931  0.85497  0.21691  1.0000
  H   H7532     1.0  0.67536  0.94166  0.21029  1.0000
  N   N469      1.0  0.64506  0.97698  0.04985  1.0000
  N   N470      1.0  0.85055  0.75447  0.05809  1.0000
  H   H7533     1.0  0.67245  0.87415  0.19244  1.0000
  H   H7534     1.0  0.50628  0.81549  0.17662  1.0000
  H   H7535     1.0  0.97960  0.92062  0.07434  1.0000
  H   H7536     1.0  0.82622  0.75372  0.06491  1.0000
  Fe  Fe955     1.0  0.98431  0.96681  0.11049  1.0000
  H   H7537     1.0  0.73227  0.75449  0.07642  1.0000
  S   S1900     1.0  0.53674  0.93710  0.98327  1.0000
  C   C4732     1.0  0.86047  0.76522  0.04771  1.0000
  C   C4733     1.0  0.55306  0.95889  0.98133  1.0000
  H   H7538     1.0  0.66004  0.88473  0.20678  1.0000
  C   C4734     1.0  0.93021  0.76293  0.22015  1.0000
  H   H7539     1.0  0.95822  0.86945  0.21904  1.0000
  S   S1901     1.0  0.87244  0.83986  0.22082  1.0000
  H   H7540     1.0  0.57748  0.85210  0.97365  1.0000
  H   H7541     1.0  0.64949  0.85549  0.19234  1.0000
  H   H7542     1.0  0.84209  0.97089  0.03785  1.0000
  C   C4735     1.0  0.65876  0.97128  0.05707  1.0000
  H   H7543     1.0  0.98373  0.89155  0.98995  1.0000
  H   H7544     1.0  0.68661  0.90306  0.21465  1.0000
  H   H7545     1.0  0.92346  0.80218  0.21737  1.0000
  H   H7546     1.0  0.53828  0.74371  0.21379  1.0000
  C   C4736     1.0  0.97899  0.90460  0.05356  1.0000
  H   H7547     1.0  0.62743  0.96774  0.04627  1.0000
  N   N471      1.0  0.65140  0.93942  0.21840  1.0000
  C   C4737     1.0  0.98054  0.94560  0.16891  1.0000
  H   H7548     1.0  0.95987  0.88791  0.98442  1.0000
  H   H7549     1.0  0.95341  0.92342  0.97393  1.0000
  H   H7550     1.0  0.97487  0.96043  0.21345  1.0000
  H   H7551     1.0  0.84296  0.73803  0.01725  1.0000
  H   H7552     1.0  0.95698  0.85911  0.98114  1.0000
  H   H7553     1.0  0.59472  0.81637  0.21850  1.0000
  H   H7554     1.0  0.66068  0.86436  0.20970  1.0000
  C   C4738     1.0  0.96399  0.91713  0.97869  1.0000
  H   H7555     1.0  0.63229  0.86940  0.21290  1.0000
  S   S1902     1.0  0.93207  0.86205  0.21354  1.0000
  H   H7556     1.0  0.65859  0.91510  0.21742  1.0000
  H   H7557     1.0  0.90750  0.97898  0.04397  1.0000
  H   H7558     1.0  0.98447  0.93150  0.05472  1.0000
  C   C4739     1.0  0.84947  0.97901  0.03129  1.0000
  H   H7559     1.0  0.98536  0.97505  0.13605  1.0000
  H   H7560     1.0  0.48804  0.76411  0.18017  1.0000
  H   H7561     1.0  0.60512  0.83952  0.97289  1.0000
  C   C4740     1.0  0.66568  0.97981  0.09033  1.0000
  C   C4741     1.0  0.98627  0.93686  0.19467  1.0000
  C   C4742     1.0  0.68146  0.97986  0.08375  1.0000
  H   H7562     1.0  0.78473  0.83389  0.35996  1.0000
  N   N472      1.0  0.63364  0.76155  0.42560  1.0000
  H   H7563     1.0  0.83212  0.94922  0.24192  1.0000
  S   S1903     1.0  0.49237  0.94577  0.31097  1.0000
  Fe  Fe956     1.0  0.60385  0.85087  0.27984  1.0000
  S   S1904     1.0  0.62030  0.84695  0.25732  1.0000
  S   S1905     1.0  0.60650  0.83451  0.30291  1.0000
  Fe  Fe957     1.0  0.58469  0.88084  0.26449  1.0000
  S   S1906     1.0  0.59970  0.87945  0.24056  1.0000
  S   S1907     1.0  0.56480  0.90192  0.26667  1.0000
  Fe  Fe958     1.0  0.59880  0.85406  0.24756  1.0000
  Fe  Fe959     1.0  0.61986  0.87253  0.25227  1.0000
  S   S1908     1.0  0.64244  0.88046  0.23994  1.0000
  S   S1909     1.0  0.58216  0.85591  0.27064  1.0000
  S   S1910     1.0  0.60500  0.87598  0.27565  1.0000
  H   H7564     1.0  0.49230  0.93363  0.27985  1.0000
  C   C4743     1.0  0.55017  0.75089  0.46967  1.0000
  H   H7565     1.0  0.81018  0.76380  0.43422  1.0000
  S   S1911     1.0  0.86566  0.95850  0.37425  1.0000
  H   H7566     1.0  0.67795  0.75000  0.31438  1.0000
  C   C4744     1.0  0.49945  0.90889  0.39972  1.0000
  H   H7567     1.0  0.64251  0.79041  0.30907  1.0000
  Fe  Fe960     1.0  0.82074  0.94133  0.32294  1.0000
  S   S1912     1.0  0.82815  0.93721  0.29867  1.0000
  N   N473      1.0  0.96140  0.76008  0.24906  1.0000
  Fe  Fe961     1.0  0.80543  0.91355  0.33547  1.0000
  S   S1913     1.0  0.81137  0.90686  0.31238  1.0000
  S   S1914     1.0  0.79034  0.90239  0.35736  1.0000
  Fe  Fe962     1.0  0.83478  0.91184  0.30994  1.0000
  S   S1915     1.0  0.85790  0.89814  0.29868  1.0000
  Fe  Fe963     1.0  0.80436  0.93256  0.30270  1.0000
  S   S1916     1.0  0.79171  0.94286  0.28304  1.0000
  S   S1917     1.0  0.82948  0.91628  0.33411  1.0000
  S   S1918     1.0  0.79624  0.93891  0.32599  1.0000
  Fe  Fe964     1.0  0.70205  0.95603  0.25581  1.0000
  S   S1919     1.0  0.69910  0.93639  0.27672  1.0000
  Fe  Fe965     1.0  0.71570  0.93382  0.23388  1.0000
  S   S1920     1.0  0.71416  0.91219  0.25293  1.0000
  Fe  Fe966     1.0  0.48888  0.88767  0.45023  1.0000
  Fe  Fe967     1.0  0.69043  0.92586  0.26224  1.0000
  S   S1921     1.0  0.66889  0.91588  0.27378  1.0000
  Fe  Fe968     1.0  0.72301  0.92437  0.26583  1.0000
  S   S1922     1.0  0.73898  0.91097  0.28226  1.0000
  S   S1923     1.0  0.69120  0.94662  0.24220  1.0000
  S   S1924     1.0  0.72671  0.94487  0.24591  1.0000
  C   C4745     1.0  0.78874  0.83658  0.34706  1.0000
  Fe  Fe969     1.0  0.67550  0.79161  0.33310  1.0000
  S   S1925     1.0  0.66052  0.77474  0.33639  1.0000
  S   S1926     1.0  0.67605  0.81089  0.31150  1.0000
  Fe  Fe970     1.0  0.68307  0.77802  0.36490  1.0000
  S   S1927     1.0  0.66823  0.76040  0.37100  1.0000
  S   S1928     1.0  0.69424  0.77808  0.38387  1.0000
  Fe  Fe971     1.0  0.67922  0.75677  0.34679  1.0000
  H   H7568     1.0  0.63804  0.94590  0.23997  1.0000
  Fe  Fe972     1.0  0.65091  0.77994  0.36014  1.0000
  S   S1929     1.0  0.62494  0.78316  0.36929  1.0000
  S   S1930     1.0  0.69545  0.77305  0.34127  1.0000
  S   S1931     1.0  0.66461  0.79808  0.35625  1.0000
  H   H7569     1.0  0.64496  0.77142  0.43697  1.0000
  H   H7570     1.0  0.78672  0.86719  0.34340  1.0000
  C   C4746     1.0  0.90922  0.78697  0.23380  1.0000
  S   S1932     1.0  0.87301  0.97885  0.43473  1.0000
  S   S1933     1.0  0.52067  0.90849  0.33262  1.0000
  H   H7571     1.0  0.94883  0.94493  0.32643  1.0000
  C   C4747     1.0  0.77543  0.86363  0.34578  1.0000
  Fe  Fe973     1.0  0.58386  0.80851  0.44325  1.0000
  S   S1934     1.0  0.59712  0.82207  0.42168  1.0000
  H   H7572     1.0  0.70205  0.91513  0.22437  1.0000
  H   H7573     1.0  0.79137  0.94298  0.36415  1.0000
  S   S1935     1.0  0.57263  0.78988  0.44259  1.0000
  C   C4748     1.0  0.83648  0.93818  0.23757  1.0000
  Fe  Fe974     1.0  0.79221  0.81528  0.38829  1.0000
  S   S1936     1.0  0.76625  0.82481  0.39296  1.0000
  S   S1937     1.0  0.81088  0.82875  0.37533  1.0000
  Fe  Fe975     1.0  0.78935  0.78136  0.40092  1.0000
  C   C4749     1.0  0.64201  0.76015  0.43774  1.0000
  Fe  Fe976     1.0  0.76566  0.80501  0.38325  1.0000
  S   S1938     1.0  0.75306  0.80863  0.36418  1.0000
  Fe  Fe977     1.0  0.76612  0.80700  0.41566  1.0000
  H   H7574     1.0  0.98234  0.74439  0.25507  1.0000
  S   S1939     1.0  0.79163  0.79668  0.37695  1.0000
  S   S1940     1.0  0.79219  0.79922  0.41183  1.0000
  C   C4750     1.0  0.94771  0.87585  0.22546  1.0000
  C   C4751     1.0  0.50282  0.88275  0.39634  1.0000
  Fe  Fe978     1.0  0.89446  0.82676  0.22894  1.0000
  S   S1941     1.0  0.89548  0.80176  0.24213  1.0000
  N   N474      1.0  0.72776  0.96520  0.29410  1.0000
  H   H7575     1.0  0.74608  0.76103  0.39551  1.0000
  S   S1942     1.0  0.85250  0.87200  0.24387  1.0000
  H   H7576     1.0  0.77991  0.76361  0.38507  1.0000
  H   H7577     1.0  0.87720  0.97047  0.46610  1.0000
  H   H7578     1.0  0.56653  0.84966  0.24597  1.0000
  H   H7579     1.0  0.90821  0.88070  0.23378  1.0000
  H   H7580     1.0  0.96363  0.94662  0.34489  1.0000
  S   S1943     1.0  0.89528  0.84529  0.24027  1.0000
  H   H7581     1.0  0.52568  0.89898  0.28264  1.0000
  C   C4752     1.0  0.64002  0.93667  0.23341  1.0000
  Fe  Fe979     1.0  0.58352  0.77606  0.46274  1.0000
  H   H7582     1.0  0.80922  0.93477  0.23413  1.0000
  S   S1944     1.0  0.50902  0.87554  0.43416  1.0000
  H   H7583     1.0  0.62319  0.74716  0.41834  1.0000
  H   H7584     1.0  0.52509  0.93059  0.30296  1.0000
  H   H7585     1.0  0.80775  0.78256  0.43831  1.0000
  S   S1945     1.0  0.53830  0.81809  0.23335  1.0000
  H   H7586     1.0  0.51491  0.88541  0.28246  1.0000
  S   S1946     1.0  0.96843  0.90794  0.27418  1.0000
  H   H7587     1.0  0.51252  0.92732  0.28071  1.0000
  C   C4753     1.0  0.91772  0.97755  0.42192  1.0000
  C   C4754     1.0  0.54146  0.74219  0.45160  1.0000
  H   H7588     1.0  0.96685  0.73506  0.25685  1.0000
  Fe  Fe980     1.0  0.96011  0.91127  0.25231  1.0000
  S   S1947     1.0  0.93656  0.90689  0.25334  1.0000
  S   S1948     1.0  0.96414  0.93568  0.24315  1.0000
  H   H7589     1.0  0.49919  0.80000  0.24206  1.0000
  H   H7590     1.0  0.97971  0.75900  0.22840  1.0000
  S   S1949     1.0  0.76326  0.78800  0.40628  1.0000
  C   C4755     1.0  0.62993  0.74638  0.42705  1.0000
  H   H7591     1.0  0.77897  0.78541  0.44320  1.0000
  C   C4756     1.0  0.81247  0.75346  0.37825  1.0000
  H   H7592     1.0  0.89761  0.76889  0.24886  1.0000
  H   H7593     1.0  0.80587  0.94340  0.25051  1.0000
  H   H7594     1.0  0.49472  0.89404  0.30534  1.0000
  N   N475      1.0  0.50133  0.90879  0.28284  1.0000
  H   H7595     1.0  0.79496  0.85656  0.31954  1.0000
  H   H7596     1.0  0.48876  0.90800  0.40916  1.0000
  H   H7597     1.0  0.51362  0.87838  0.40104  1.0000
  H   H7598     1.0  0.84925  0.73463  0.32136  1.0000
  C   C4757     1.0  0.83361  0.91189  0.24090  1.0000
  H   H7599     1.0  0.48932  0.97925  0.35106  1.0000
  S   S1950     1.0  0.88617  0.97877  0.39131  1.0000
  C   C4758     1.0  0.61899  0.77357  0.42765  1.0000
  C   C4759     1.0  0.94891  0.88594  0.23397  1.0000
  C   C4760     1.0  0.93545  0.89418  0.24245  1.0000
  C   C4761     1.0  0.92077  0.89215  0.24244  1.0000
  H   H7600     1.0  0.49057  0.85376  0.45516  1.0000
  H   H7601     1.0  0.52014  0.89982  0.26514  1.0000
  H   H7602     1.0  0.96025  0.88726  0.23402  1.0000
  H   H7603     1.0  0.91028  0.89848  0.24894  1.0000
  H   H7604     1.0  0.88844  0.73874  0.32231  1.0000
  H   H7605     1.0  0.71584  0.96363  0.27763  1.0000
  H   H7606     1.0  0.77081  0.86144  0.35862  1.0000
  H   H7607     1.0  0.76715  0.87379  0.34039  1.0000
  Fe  Fe981     1.0  0.97472  0.93131  0.26370  1.0000
  H   H7608     1.0  0.62288  0.83043  0.36505  1.0000
  H   H7609     1.0  0.76959  0.77123  0.45756  1.0000
  H   H7610     1.0  0.77424  0.82519  0.43668  1.0000
  H   H7611     1.0  0.76340  0.83463  0.33891  1.0000
  H   H7612     1.0  0.90646  0.97401  0.42812  1.0000
  C   C4762     1.0  0.51330  0.85517  0.44036  1.0000
  C   C4763     1.0  0.52829  0.84676  0.43494  1.0000
  C   C4764     1.0  0.53249  0.83065  0.44086  1.0000
  H   H7613     1.0  0.75758  0.84219  0.35619  1.0000
  C   C4765     1.0  0.76231  0.84515  0.34337  1.0000
  S   S1951     1.0  0.59632  0.79397  0.46214  1.0000
  H   H7614     1.0  0.53684  0.85276  0.42655  1.0000
  H   H7615     1.0  0.54421  0.82427  0.43685  1.0000
  H   H7616     1.0  0.49859  0.92148  0.39405  1.0000
  H   H7617     1.0  0.62737  0.77495  0.33199  1.0000
  C   C4766     1.0  0.71042  0.78682  0.37814  1.0000
  C   C4767     1.0  0.71756  0.78747  0.38956  1.0000
  C   C4768     1.0  0.73051  0.79434  0.38536  1.0000
  C   C4769     1.0  0.73645  0.80052  0.36971  1.0000
  C   C4770     1.0  0.72933  0.79988  0.35826  1.0000
  C   C4771     1.0  0.71632  0.79304  0.36247  1.0000
  H   H7618     1.0  0.71293  0.78280  0.40171  1.0000
  H   H7619     1.0  0.73568  0.79507  0.39429  1.0000
  H   H7620     1.0  0.94126  0.75113  0.25147  1.0000
  H   H7621     1.0  0.71585  0.94886  0.31183  1.0000
  C   C4772     1.0  0.60472  0.81136  0.40709  1.0000
  C   C4773     1.0  0.59546  0.80349  0.40361  1.0000
  C   C4774     1.0  0.60175  0.79484  0.39194  1.0000
  C   C4775     1.0  0.61735  0.79388  0.38392  1.0000
  C   C4776     1.0  0.62661  0.80168  0.38748  1.0000
  C   C4777     1.0  0.62023  0.81062  0.39888  1.0000
  H   H7622     1.0  0.58339  0.80427  0.40972  1.0000
  H   H7623     1.0  0.59454  0.78882  0.38920  1.0000
  H   H7624     1.0  0.63868  0.80089  0.38146  1.0000
  H   H7625     1.0  0.62743  0.81668  0.40159  1.0000
  H   H7626     1.0  0.51387  0.91396  0.36916  1.0000
  H   H7627     1.0  0.62275  0.74243  0.43881  1.0000
  H   H7628     1.0  0.61130  0.77053  0.43931  1.0000
  Fe  Fe982     1.0  0.87456  0.85923  0.23022  1.0000
  H   H7629     1.0  0.52579  0.89808  0.38023  1.0000
  C   C4778     1.0  0.74293  0.95815  0.29867  1.0000
  C   C4779     1.0  0.55423  0.83535  0.24075  1.0000
  H   H7630     1.0  0.96449  0.74934  0.22995  1.0000
  H   H7631     1.0  0.73388  0.80464  0.34613  1.0000
  H   H7632     1.0  0.84115  0.91791  0.26452  1.0000
  C   C4780     1.0  0.81913  0.74509  0.36639  1.0000
  C   C4781     1.0  0.85686  0.88933  0.28428  1.0000
  C   C4782     1.0  0.87012  0.88569  0.27259  1.0000
  C   C4783     1.0  0.86909  0.87970  0.26044  1.0000
  C   C4784     1.0  0.85478  0.87735  0.25995  1.0000
  C   C4785     1.0  0.84166  0.88056  0.27184  1.0000
  C   C4786     1.0  0.84274  0.88642  0.28401  1.0000
  H   H7633     1.0  0.88112  0.88783  0.27266  1.0000
  H   H7634     1.0  0.87925  0.87733  0.25122  1.0000
  H   H7635     1.0  0.83061  0.87859  0.27159  1.0000
  H   H7636     1.0  0.83261  0.88865  0.29317  1.0000
  C   C4787     1.0  0.79637  0.88200  0.36271  1.0000
  C   C4788     1.0  0.81044  0.87414  0.35470  1.0000
  C   C4789     1.0  0.81493  0.85779  0.35890  1.0000
  C   C4790     1.0  0.80527  0.84924  0.37095  1.0000
  C   C4791     1.0  0.79120  0.85710  0.37897  1.0000
  C   C4792     1.0  0.78682  0.87348  0.37493  1.0000
  H   H7637     1.0  0.81789  0.88064  0.34529  1.0000
  H   H7638     1.0  0.82584  0.85173  0.35270  1.0000
  H   H7639     1.0  0.78379  0.85058  0.38839  1.0000
  H   H7640     1.0  0.77595  0.87955  0.38118  1.0000
  C   C4793     1.0  0.77786  0.93316  0.28254  1.0000
  C   C4794     1.0  0.77056  0.93821  0.26990  1.0000
  C   C4795     1.0  0.75893  0.93115  0.26951  1.0000
  C   C4796     1.0  0.75443  0.91911  0.28184  1.0000
  C   C4797     1.0  0.76195  0.91385  0.29435  1.0000
  C   C4798     1.0  0.77365  0.92087  0.29471  1.0000
  H   H7641     1.0  0.77378  0.94773  0.26046  1.0000
  H   H7642     1.0  0.75341  0.93507  0.25971  1.0000
  H   H7643     1.0  0.75850  0.90452  0.30391  1.0000
  H   H7644     1.0  0.77916  0.91699  0.30455  1.0000
  H   H7645     1.0  0.61324  0.79822  0.31625  1.0000
  C   C4799     1.0  0.49692  0.90598  0.30003  1.0000
  H   H7646     1.0  0.74476  0.94519  0.30242  1.0000
  H   H7647     1.0  0.92053  0.97541  0.40997  1.0000
  H   H7648     1.0  0.96571  0.74566  0.27109  1.0000
  H   H7649     1.0  0.49218  0.90763  0.26406  1.0000
  H   H7650     1.0  0.64164  0.79051  0.28976  1.0000
  C   C4800     1.0  0.54310  0.91801  0.28720  1.0000
  H   H7651     1.0  0.82175  0.91429  0.27098  1.0000
  C   C4801     1.0  0.58341  0.82171  0.22469  1.0000
  C   C4802     1.0  0.50332  0.92504  0.27641  1.0000
  H   H7652     1.0  0.84616  0.90704  0.24124  1.0000
  C   C4803     1.0  0.85410  0.96018  0.36114  1.0000
  C   C4804     1.0  0.85570  0.94732  0.35481  1.0000
  C   C4805     1.0  0.84626  0.94812  0.34472  1.0000
  C   C4806     1.0  0.91956  0.88207  0.23388  1.0000
  H   H7653     1.0  0.54292  0.84073  0.24692  1.0000
  H   H7654     1.0  0.86425  0.93671  0.35774  1.0000
  H   H7655     1.0  0.84759  0.93820  0.33984  1.0000
  C   C4807     1.0  0.62588  0.82863  0.30510  1.0000
  C   C4808     1.0  0.63819  0.83281  0.29290  1.0000
  C   C4809     1.0  0.65366  0.82733  0.29480  1.0000
  C   C4810     1.0  0.65677  0.81811  0.30907  1.0000
  C   C4811     1.0  0.64439  0.81437  0.32137  1.0000
  C   C4812     1.0  0.62904  0.81937  0.31930  1.0000
  H   H7656     1.0  0.63587  0.84005  0.28193  1.0000
  H   H7657     1.0  0.66317  0.83004  0.28512  1.0000
  H   H7658     1.0  0.64659  0.80743  0.33248  1.0000
  H   H7659     1.0  0.61964  0.81587  0.32869  1.0000
  C   C4813     1.0  0.64983  0.88986  0.24974  1.0000
  C   C4814     1.0  0.66519  0.89199  0.24409  1.0000
  C   C4815     1.0  0.67119  0.90012  0.25123  1.0000
  C   C4816     1.0  0.66186  0.90595  0.26422  1.0000
  C   C4817     1.0  0.64662  0.90351  0.27007  1.0000
  C   C4818     1.0  0.64058  0.89557  0.26281  1.0000
  H   H7660     1.0  0.67247  0.88723  0.23421  1.0000
  H   H7661     1.0  0.68305  0.90173  0.24679  1.0000
  H   H7662     1.0  0.63936  0.90797  0.28015  1.0000
  H   H7663     1.0  0.62870  0.89410  0.26720  1.0000
  C   C4819     1.0  0.55374  0.90387  0.28542  1.0000
  C   C4820     1.0  0.55468  0.89139  0.29834  1.0000
  C   C4821     1.0  0.54473  0.89300  0.31291  1.0000
  C   C4822     1.0  0.53380  0.90704  0.31457  1.0000
  C   C4823     1.0  0.66339  0.73790  0.30934  1.0000
  H   H7664     1.0  0.61227  0.77483  0.41880  1.0000
  H   H7665     1.0  0.56285  0.88042  0.29703  1.0000
  H   H7666     1.0  0.54530  0.88324  0.32282  1.0000
  H   H7667     1.0  0.82717  0.90259  0.24783  1.0000
  H   H7668     1.0  0.66491  0.94946  0.22723  1.0000
  H   H7669     1.0  0.70332  0.96682  0.30441  1.0000
  C   C4824     1.0  0.82882  0.92286  0.26338  1.0000
  C   C4825     1.0  0.58705  0.74961  0.43882  1.0000
  C   C4826     1.0  0.71490  0.96170  0.30758  1.0000
  C   C4827     1.0  0.83364  0.97468  0.34721  1.0000
  C   C4828     1.0  0.80950  0.74551  0.39384  1.0000
  H   H7670     1.0  0.57900  0.74894  0.41908  1.0000
  H   H7671     1.0  0.58841  0.76149  0.43430  1.0000
  C   C4829     1.0  0.84309  0.97390  0.35726  1.0000
  H   H7672     1.0  0.62626  0.83507  0.34417  1.0000
  H   H7673     1.0  0.86100  0.74853  0.31841  1.0000
  H   H7674     1.0  0.49619  0.80417  0.26079  1.0000
  H   H7675     1.0  0.78476  0.82957  0.45700  1.0000
  H   H7676     1.0  0.74711  0.76665  0.36734  1.0000
  S   S1952     1.0  0.56328  0.81969  0.45955  1.0000
  C   C4830     1.0  0.58219  0.83370  0.23208  1.0000
  C   C4831     1.0  0.77804  0.73799  0.37705  1.0000
  S   S1953     1.0  0.96994  0.95089  0.27607  1.0000
  H   H7677     1.0  0.62129  0.78521  0.42661  1.0000
  N   N476      1.0  0.76580  0.75242  0.37842  1.0000
  H   H7678     1.0  0.65170  0.77332  0.30131  1.0000
  H   H7679     1.0  0.65485  0.75749  0.40813  1.0000
  S   S1954     1.0  0.75042  0.80865  0.43925  1.0000
  H   H7680     1.0  0.50364  0.81740  0.24346  1.0000
  H   H7681     1.0  0.72665  0.97728  0.24643  1.0000
  H   H7682     1.0  0.64635  0.77769  0.40839  1.0000
  C   C4832     1.0  0.51613  0.89776  0.27805  1.0000
  C   C4833     1.0  0.96690  0.75965  0.23236  1.0000
  H   H7683     1.0  0.66237  0.74582  0.29827  1.0000
  C   C4834     1.0  0.48888  0.90642  0.27691  1.0000
  H   H7684     1.0  0.80487  0.95459  0.36294  1.0000
  C   C4835     1.0  0.93714  0.96831  0.34158  1.0000
  H   H7685     1.0  0.72825  0.94569  0.28502  1.0000
  H   H7686     1.0  0.61471  0.76304  0.30265  1.0000
  H   H7687     1.0  0.78632  0.73927  0.36547  1.0000
  C   C4836     1.0  0.95110  0.95654  0.31961  1.0000
  H   H7688     1.0  0.65313  0.75114  0.43662  1.0000
  Fe  Fe983     1.0  0.49882  0.92763  0.33174  1.0000
  C   C4837     1.0  0.59041  0.74137  0.45327  1.0000
  H   H7689     1.0  0.96278  0.97513  0.22374  1.0000
  H   H7690     1.0  0.80043  0.83940  0.34442  1.0000
  H   H7691     1.0  0.82456  0.93358  0.26822  1.0000
  C   C4838     1.0  0.67227  0.74022  0.31840  1.0000
  C   C4839     1.0  0.72713  0.95858  0.28136  1.0000
  H   H7692     1.0  0.74962  0.74046  0.39640  1.0000
  H   H7693     1.0  0.82129  0.75133  0.35435  1.0000
  C   C4840     1.0  0.62659  0.76798  0.32411  1.0000
  N   N477      1.0  0.80765  0.93231  0.37915  1.0000
  C   C4841     1.0  0.80552  0.91642  0.38077  1.0000
  C   C4842     1.0  0.79738  0.93889  0.39249  1.0000
  C   C4843     1.0  0.80357  0.94243  0.36453  1.0000
  C   C4844     1.0  0.82411  0.93154  0.37879  1.0000
  H   H7694     1.0  0.81286  0.91124  0.37070  1.0000
  H   H7695     1.0  0.79318  0.91653  0.38121  1.0000
  H   H7696     1.0  0.80870  0.90834  0.39154  1.0000
  H   H7697     1.0  0.80008  0.93150  0.40374  1.0000
  H   H7698     1.0  0.79883  0.95085  0.39162  1.0000
  H   H7699     1.0  0.78486  0.93975  0.39302  1.0000
  H   H7700     1.0  0.81133  0.93802  0.35421  1.0000
  H   H7701     1.0  0.82624  0.94340  0.37717  1.0000
  H   H7702     1.0  0.97645  0.95664  0.32902  1.0000
  H   H7703     1.0  0.82755  0.92429  0.38976  1.0000
  H   H7704     1.0  0.96092  0.77462  0.26412  1.0000
  H   H7705     1.0  0.51662  0.89444  0.36700  1.0000
  H   H7706     1.0  0.79033  0.82567  0.34307  1.0000
  N   N478      1.0  0.82743  0.92632  0.24701  1.0000
  H   H7707     1.0  0.78528  0.84275  0.31767  1.0000
  N   N479      1.0  0.62662  0.77744  0.30810  1.0000
  H   H7708     1.0  0.54915  0.73036  0.45405  1.0000
  C   C4845     1.0  0.77618  0.82244  0.46032  1.0000
  C   C4846     1.0  0.96940  0.74569  0.25844  1.0000
  S   S1955     1.0  0.80007  0.75582  0.40877  1.0000
  C   C4847     1.0  0.90734  0.77153  0.23939  1.0000
  H   H7709     1.0  0.75071  0.74615  0.36798  1.0000
  C   C4848     1.0  0.98599  0.96496  0.28717  1.0000
  H   H7710     1.0  0.50956  0.90489  0.40547  1.0000
  H   H7711     1.0  0.75343  0.85474  0.33818  1.0000
  H   H7712     1.0  0.83218  0.92635  0.36903  1.0000
  C   C4849     1.0  0.52610  0.86389  0.46936  1.0000
  C   C4850     1.0  0.49521  0.80958  0.24853  1.0000
  C   C4851     1.0  0.52612  0.76490  0.46167  1.0000
  H   H7713     1.0  0.78182  0.76643  0.43957  1.0000
  H   H7714     1.0  0.62544  0.77451  0.28597  1.0000
  C   C4852     1.0  0.51496  0.90155  0.37568  1.0000
  H   H7715     1.0  0.92692  0.96957  0.42798  1.0000
  S   S1956     1.0  0.49164  0.78417  0.22316  1.0000
  H   H7716     1.0  0.96602  0.96528  0.34543  1.0000
  H   H7717     1.0  0.91604  0.74770  0.23671  1.0000
  H   H7718     1.0  0.50672  0.92761  0.26346  1.0000
  H   H7719     1.0  0.81917  0.76558  0.44861  1.0000
  H   H7720     1.0  0.83572  0.94109  0.22514  1.0000
  H   H7721     1.0  0.63764  0.76707  0.40057  1.0000
  C   C4853     1.0  0.64126  0.78316  0.30175  1.0000
  C   C4854     1.0  0.56758  0.84039  0.24026  1.0000
  S   S1957     1.0  0.53394  0.77794  0.22815  1.0000
  C   C4855     1.0  0.53317  0.91960  0.30172  1.0000
  N   N480      1.0  0.68147  0.86097  0.29081  1.0000
  C   C4856     1.0  0.66576  0.86599  0.28728  1.0000
  C   C4857     1.0  0.68002  0.85493  0.30778  1.0000
  C   C4858     1.0  0.68904  0.87446  0.28561  1.0000
  C   C4859     1.0  0.69103  0.84847  0.28256  1.0000
  H   H7722     1.0  0.65936  0.85636  0.29170  1.0000
  H   H7723     1.0  0.66645  0.86984  0.27451  1.0000
  H   H7724     1.0  0.65850  0.87597  0.29265  1.0000
  H   H7725     1.0  0.67280  0.86402  0.31439  1.0000
  H   H7726     1.0  0.67446  0.84464  0.31202  1.0000
  H   H7727     1.0  0.69166  0.85103  0.31086  1.0000
  H   H7728     1.0  0.68208  0.88418  0.29152  1.0000
  H   H7729     1.0  0.69027  0.87933  0.27286  1.0000
  H   H7730     1.0  0.70091  0.87120  0.28810  1.0000
  H   H7731     1.0  0.70303  0.84455  0.28480  1.0000
  H   H7732     1.0  0.69211  0.85249  0.26973  1.0000
  H   H7733     1.0  0.68582  0.83798  0.28647  1.0000
  S   S1958     1.0  0.82255  0.96301  0.32904  1.0000
  C   C4860     1.0  0.61311  0.79092  0.30842  1.0000
  C   C4861     1.0  0.91778  0.75953  0.23254  1.0000
  C   C4862     1.0  0.83512  0.96178  0.34100  1.0000
  H   H7734     1.0  0.89032  0.90364  0.31529  1.0000
  H   H7735     1.0  0.61310  0.79873  0.29664  1.0000
  H   H7736     1.0  0.88169  0.73572  0.29897  1.0000
  H   H7737     1.0  0.60184  0.78707  0.31263  1.0000
  C   C4863     1.0  0.96498  0.77385  0.25166  1.0000
  H   H7738     1.0  0.97769  0.97564  0.28380  1.0000
  N   N481      1.0  0.95193  0.96621  0.32976  1.0000
  H   H7739     1.0  0.78143  0.76738  0.36444  1.0000
  H   H7740     1.0  0.88590  0.88875  0.30907  1.0000
  C   C4864     1.0  0.77322  0.76559  0.37601  1.0000
  C   C4865     1.0  0.62551  0.76773  0.29812  1.0000
  C   C4866     1.0  0.93306  0.87398  0.22527  1.0000
  H   H7741     1.0  0.63551  0.75746  0.29755  1.0000
  C   C4867     1.0  0.50226  0.84734  0.45117  1.0000
  N   N482      1.0  0.60218  0.84126  0.35595  1.0000
  C   C4868     1.0  0.59158  0.83512  0.37045  1.0000
  C   C4869     1.0  0.60302  0.85719  0.35596  1.0000
  C   C4870     1.0  0.59620  0.84179  0.34235  1.0000
  H   H7742     1.0  0.57953  0.84252  0.37152  1.0000
  H   H7743     1.0  0.59569  0.83467  0.38095  1.0000
  H   H7744     1.0  0.59082  0.82304  0.37089  1.0000
  H   H7745     1.0  0.61774  0.81874  0.35529  1.0000
  H   H7746     1.0  0.61096  0.86216  0.34516  1.0000
  H   H7747     1.0  0.60747  0.85722  0.36610  1.0000
  H   H7748     1.0  0.59132  0.86530  0.35662  1.0000
  H   H7749     1.0  0.58439  0.84959  0.34252  1.0000
  H   H7750     1.0  0.59526  0.82999  0.34201  1.0000
  H   H7751     1.0  0.60401  0.84620  0.33117  1.0000
  C   C4871     1.0  0.75374  0.80444  0.46888  1.0000
  H   H7752     1.0  0.49798  0.82513  0.46553  1.0000
  H   H7753     1.0  0.93793  0.77205  0.24709  1.0000
  H   H7754     1.0  0.77530  0.86290  0.31670  1.0000
  H   H7755     1.0  0.61578  0.76336  0.32924  1.0000
  H   H7756     1.0  0.63668  0.75774  0.32430  1.0000
  H   H7757     1.0  0.76435  0.77669  0.37664  1.0000
  C   C4872     1.0  0.80849  0.76991  0.44375  1.0000
  S   S1959     1.0  0.68583  0.73207  0.34345  1.0000
  N   N483      1.0  0.79432  0.76739  0.45592  1.0000
  H   H7758     1.0  0.54246  0.92774  0.27726  1.0000
  C   C4873     1.0  0.57007  0.81656  0.22531  1.0000
  S   S1960     1.0  0.49235  0.90779  0.45735  1.0000
  S   S1961     1.0  0.98329  0.89996  0.23915  1.0000
  H   H7759     1.0  0.95919  0.78492  0.24465  1.0000
  H   H7760     1.0  0.63475  0.75677  0.44964  1.0000
  S   S1962     1.0  0.59895  0.84065  0.23010  1.0000
  C   C4874     1.0  0.75650  0.75585  0.36654  1.0000
  N   N484      1.0  0.90640  0.89684  0.29489  1.0000
  C   C4875     1.0  0.89792  0.90961  0.28430  1.0000
  C   C4876     1.0  0.89566  0.89314  0.31016  1.0000
  C   C4877     1.0  0.91960  0.90182  0.29698  1.0000
  C   C4878     1.0  0.91238  0.88279  0.28813  1.0000
  H   H7761     1.0  0.89332  0.92044  0.28896  1.0000
  H   H7762     1.0  0.88777  0.90634  0.28260  1.0000
  H   H7763     1.0  0.90563  0.91259  0.27260  1.0000
  C   C4879     1.0  0.96506  0.95834  0.33761  1.0000
  H   H7764     1.0  0.90178  0.88393  0.31863  1.0000
  H   H7765     1.0  0.76392  0.75769  0.35454  1.0000
  H   H7766     1.0  0.91549  0.91237  0.30210  1.0000
  H   H7767     1.0  0.92787  0.90482  0.28565  1.0000
  H   H7768     1.0  0.92642  0.89242  0.30473  1.0000
  H   H7769     1.0  0.92057  0.88513  0.27662  1.0000
  H   H7770     1.0  0.90272  0.87880  0.28629  1.0000
  H   H7771     1.0  0.91882  0.87290  0.29581  1.0000
  H   H7772     1.0  0.54819  0.74940  0.44145  1.0000
  H   H7773     1.0  0.94173  0.96234  0.31301  1.0000
  C   C4880     1.0  0.75544  0.75032  0.39412  1.0000
  H   H7774     1.0  0.84907  0.93395  0.23799  1.0000
  C   C4881     1.0  0.78058  0.77279  0.44878  1.0000
  C   C4882     1.0  0.79603  0.75056  0.46321  1.0000
  H   H7775     1.0  0.80969  0.76606  0.37530  1.0000
  C   C4883     1.0  0.94435  0.76115  0.25372  1.0000
  N   N485      1.0  0.50106  0.89943  0.38838  1.0000
  H   H7776     1.0  0.71083  0.79262  0.35360  1.0000
  C   C4884     1.0  0.78351  0.85311  0.32264  1.0000
  H   H7777     1.0  0.67119  0.92876  0.22894  1.0000
  C   C4885     1.0  0.77027  0.81995  0.44883  1.0000
  C   C4886     1.0  0.75879  0.81123  0.45315  1.0000
  S   S1963     1.0  0.49060  0.94431  0.34786  1.0000
  H   H7778     1.0  0.93979  0.76117  0.26632  1.0000
  H   H7779     1.0  0.79772  0.74356  0.45442  1.0000
  C   C4887     1.0  0.61795  0.83095  0.35506  1.0000
  Fe  Fe984     1.0  0.55311  0.79965  0.46069  1.0000
  C   C4888     1.0  0.64355  0.76614  0.41001  1.0000
  H   H7780     1.0  0.50623  0.90725  0.30494  1.0000
  C   C4889     1.0  0.81081  0.93235  0.24624  1.0000
  H   H7781     1.0  0.62853  0.93635  0.23171  1.0000
  H   H7782     1.0  0.85457  0.73733  0.33761  1.0000
  C   C4890     1.0  0.52166  0.82288  0.45205  1.0000
  N   N486      1.0  0.77749  0.84962  0.33970  1.0000
  H   H7783     1.0  0.83271  0.91397  0.22860  1.0000
  H   H7784     1.0  0.80360  0.92383  0.25365  1.0000
  C   C4891     1.0  0.55541  0.82353  0.23316  1.0000
  H   H7785     1.0  0.96225  0.95431  0.31088  1.0000
  H   H7786     1.0  0.97779  0.77331  0.24829  1.0000
  H   H7787     1.0  0.74506  0.79744  0.47218  1.0000
  C   C4892     1.0  0.58192  0.74242  0.43009  1.0000
  H   H7788     1.0  0.93736  0.97573  0.34925  1.0000
  H   H7789     1.0  0.80625  0.74607  0.46879  1.0000
  H   H7790     1.0  0.94365  0.96959  0.38576  1.0000
  H   H7791     1.0  0.93496  0.95693  0.34918  1.0000
  S   S1964     1.0  0.97381  0.97582  0.37015  1.0000
  H   H7792     1.0  0.64424  0.92530  0.24101  1.0000
  H   H7793     1.0  0.51554  0.76423  0.45838  1.0000
  H   H7794     1.0  0.55700  0.75842  0.45997  1.0000
  H   H7795     1.0  0.73667  0.96093  0.27097  1.0000
  H   H7796     1.0  0.78512  0.73501  0.38601  1.0000
  H   H7797     1.0  0.50351  0.87530  0.38831  1.0000
  C   C4893     1.0  0.85892  0.73682  0.32507  1.0000
  H   H7798     1.0  0.53233  0.77285  0.45180  1.0000
  H   H7799     1.0  0.64072  0.73708  0.42523  1.0000
  H   H7800     1.0  0.92696  0.97411  0.33608  1.0000
  C   C4894     1.0  0.79216  0.77630  0.46788  1.0000
  H   H7801     1.0  0.49284  0.88085  0.40644  1.0000
  C   C4895     1.0  0.50640  0.83114  0.45691  1.0000
  H   H7802     1.0  0.75287  0.96079  0.28880  1.0000
  H   H7803     1.0  0.71493  0.96654  0.31745  1.0000
  S   S1965     1.0  0.59536  0.75062  0.46503  1.0000
  N   N487      1.0  0.53636  0.74928  0.46537  1.0000
  H   H7804     1.0  0.53446  0.85820  0.46003  1.0000
  H   H7805     1.0  0.74377  0.96265  0.30844  1.0000
  C   C4896     1.0  0.98534  0.95104  0.28399  1.0000
  H   H7806     1.0  0.76208  0.74786  0.40336  1.0000
  H   H7807     1.0  0.53138  0.74081  0.44797  1.0000
  H   H7808     1.0  0.51437  0.86725  0.46651  1.0000
  H   H7809     1.0  0.52950  0.87489  0.46866  1.0000
  H   H7810     1.0  0.96099  0.77024  0.22493  1.0000
  S   S1966     1.0  0.52774  0.80330  0.46108  1.0000
  H   H7811     1.0  0.79101  0.78904  0.46269  1.0000
  Fe  Fe985     1.0  0.86539  0.97999  0.38215  1.0000
  H   H7812     1.0  0.48780  0.89774  0.37309  1.0000
  H   H7813     1.0  0.52214  0.77068  0.47176  1.0000
  Fe  Fe986     1.0  0.80679  0.91392  0.57160  1.0000
  S   S1967     1.0  0.80814  0.90425  0.59670  1.0000
  S   S1968     1.0  0.80624  0.93890  0.55834  1.0000
  Fe  Fe987     1.0  0.80312  0.88310  0.56738  1.0000
  S   S1969     1.0  0.80442  0.87079  0.59197  1.0000
  S   S1970     1.0  0.79908  0.87308  0.54928  1.0000
  Fe  Fe988     1.0  0.78870  0.89297  0.59820  1.0000
  S   S1971     1.0  0.76893  0.89022  0.61925  1.0000
  Fe  Fe989     1.0  0.82372  0.88300  0.58832  1.0000
  S   S1972     1.0  0.84660  0.87143  0.59553  1.0000
  S   S1973     1.0  0.78595  0.90445  0.57383  1.0000
  S   S1974     1.0  0.82389  0.89354  0.56298  1.0000
  Fe  Fe990     1.0  0.68848  0.93759  0.64031  1.0000
  S   S1975     1.0  0.66314  0.94952  0.64489  1.0000
  S   S1976     1.0  0.70201  0.93346  0.61667  1.0000
  Fe  Fe991     1.0  0.69162  0.93571  0.67254  1.0000
  S   S1977     1.0  0.66661  0.94732  0.68041  1.0000
  Fe  Fe992     1.0  0.66131  0.93234  0.66782  1.0000
  S   S1978     1.0  0.63967  0.92313  0.68010  1.0000
  S   S1979     1.0  0.68606  0.91890  0.66222  1.0000
  S   S1980     1.0  0.69564  0.95361  0.65031  1.0000
  Fe  Fe993     1.0  0.58870  0.89578  0.64591  1.0000
  S   S1981     1.0  0.58126  0.87545  0.66408  1.0000
  S   S1982     1.0  0.61383  0.89763  0.63700  1.0000
  Fe  Fe994     1.0  0.55633  0.90977  0.63925  1.0000
  S   S1983     1.0  0.54598  0.89076  0.65695  1.0000
  S   S1984     1.0  0.54343  0.92985  0.62352  1.0000
  Fe  Fe995     1.0  0.56012  0.89323  0.67220  1.0000
  S   S1985     1.0  0.54759  0.89212  0.69733  1.0000
  Fe  Fe996     1.0  0.56777  0.87457  0.64754  1.0000
  S   S1986     1.0  0.56707  0.85103  0.64504  1.0000
  S   S1987     1.0  0.56863  0.91388  0.65535  1.0000
  S   S1988     1.0  0.57712  0.89326  0.62848  1.0000
  H   H7814     1.0  0.66424  0.74383  0.59795  1.0000
  H   H7815     1.0  0.65426  0.92460  0.71352  1.0000
  Fe  Fe997     1.0  0.86687  0.83930  0.69924  1.0000
  S   S1989     1.0  0.86443  0.81629  0.69688  1.0000
  H   H7816     1.0  0.74343  0.91438  0.66871  1.0000
  Fe  Fe998     1.0  0.88745  0.84602  0.66698  1.0000
  S   S1990     1.0  0.88700  0.82379  0.66153  1.0000
  S   S1991     1.0  0.90000  0.86401  0.65022  1.0000
  Fe  Fe999     1.0  0.86155  0.82908  0.67271  1.0000
  S   S1992     1.0  0.84345  0.82621  0.66205  1.0000
  Fe  Fe1000    1.0  0.89013  0.81277  0.68590  1.0000
  S   S1993     1.0  0.90852  0.79044  0.68788  1.0000
  S   S1994     1.0  0.86161  0.85244  0.67601  1.0000
  S   S1995     1.0  0.89288  0.83464  0.69042  1.0000
  C   C4897     1.0  0.95950  0.79907  0.68865  1.0000
  Fe  Fe1001    1.0  0.64216  0.81630  0.56950  1.0000
  S   S1996     1.0  0.64290  0.79290  0.56569  1.0000
  S   S1997     1.0  0.66292  0.82308  0.57227  1.0000
  Fe  Fe1002    1.0  0.60744  0.82733  0.57117  1.0000
  S   S1998     1.0  0.60490  0.80492  0.56756  1.0000
  S   S1999     1.0  0.58795  0.84842  0.57414  1.0000
  Fe  Fe1003    1.0  0.62087  0.79328  0.58405  1.0000
  S   S2000     1.0  0.61664  0.77206  0.60283  1.0000
  Fe  Fe1004    1.0  0.62707  0.80631  0.54938  1.0000
  S   S2001     1.0  0.63167  0.79850  0.52703  1.0000
  S   S2002     1.0  0.62139  0.81560  0.58949  1.0000
  S   S2003     1.0  0.62834  0.82981  0.55144  1.0000
  Fe  Fe1005    1.0  0.76804  0.80370  0.54916  1.0000
  S   S2004     1.0  0.76261  0.77981  0.55630  1.0000
  S   S2005     1.0  0.77007  0.81320  0.56862  1.0000
  Fe  Fe1006    1.0  0.77218  0.80522  0.51466  1.0000
  S   S2006     1.0  0.76784  0.78133  0.51896  1.0000
  Fe  Fe1007    1.0  0.74819  0.78900  0.53822  1.0000
  S   S2007     1.0  0.72545  0.78315  0.53961  1.0000
  Fe  Fe1008    1.0  0.78270  0.77436  0.53652  1.0000
  S   S2008     1.0  0.80242  0.75302  0.53717  1.0000
  S   S2009     1.0  0.75155  0.81355  0.53285  1.0000
  S   S2010     1.0  0.78901  0.79768  0.53042  1.0000
  H   H7817     1.0  0.60339  0.76853  0.57537  1.0000
  C   C4898     1.0  0.68052  0.81322  0.56211  1.0000
  C   C4899     1.0  0.69481  0.81339  0.56484  1.0000
  C   C4900     1.0  0.70881  0.80447  0.55767  1.0000
  C   C4901     1.0  0.70846  0.79525  0.54793  1.0000
  C   C4902     1.0  0.69423  0.79539  0.54492  1.0000
  C   C4903     1.0  0.68033  0.80454  0.55181  1.0000
  H   H7818     1.0  0.69501  0.82015  0.57276  1.0000
  H   H7819     1.0  0.71980  0.80439  0.56001  1.0000
  H   H7820     1.0  0.69395  0.78841  0.53723  1.0000
  H   H7821     1.0  0.66946  0.80482  0.54916  1.0000
  H   H7822     1.0  0.86714  0.92087  0.50585  1.0000
  C   C4904     1.0  0.58802  0.81591  0.51910  1.0000
  C   C4905     1.0  0.60131  0.81286  0.52520  1.0000
  C   C4906     1.0  0.61516  0.80314  0.51905  1.0000
  C   C4907     1.0  0.61569  0.79652  0.50679  1.0000
  C   C4908     1.0  0.60239  0.79957  0.50070  1.0000
  C   C4909     1.0  0.83144  0.94411  0.51620  1.0000
  H   H7823     1.0  0.60086  0.81815  0.53455  1.0000
  H   H7824     1.0  0.62638  0.78898  0.50201  1.0000
  H   H7825     1.0  0.66700  0.75555  0.60935  1.0000
  H   H7826     1.0  0.60953  0.74782  0.57680  1.0000
  H   H7827     1.0  0.61796  0.74102  0.62161  1.0000
  C   C4910     1.0  0.52419  0.90238  0.57003  1.0000
  C   C4911     1.0  0.85561  0.92861  0.50432  1.0000
  H   H7828     1.0  0.77991  0.74963  0.56683  1.0000
  C   C4912     1.0  0.90170  0.77356  0.69843  1.0000
  H   H7829     1.0  0.81149  0.96982  0.54456  1.0000
  C   C4913     1.0  0.54161  0.84942  0.48836  1.0000
  H   H7830     1.0  0.62087  0.95879  0.68350  1.0000
  C   C4914     1.0  0.90439  0.74561  0.70232  1.0000
  C   C4915     1.0  0.91039  0.75907  0.69529  1.0000
  H   H7831     1.0  0.72465  0.94682  0.66024  1.0000
  C   C4916     1.0  0.97293  0.96613  0.62150  1.0000
  C   C4917     1.0  0.80272  0.73924  0.55494  1.0000
  H   H7832     1.0  0.92153  0.75828  0.68704  1.0000
  C   C4918     1.0  0.91821  0.86092  0.65473  1.0000
  C   C4919     1.0  0.92516  0.87354  0.65220  1.0000
  C   C4920     1.0  0.93930  0.87115  0.65664  1.0000
  C   C4921     1.0  0.94667  0.85608  0.66326  1.0000
  C   C4922     1.0  0.93990  0.84344  0.66545  1.0000
  C   C4923     1.0  0.92563  0.84586  0.66131  1.0000
  H   H7833     1.0  0.91943  0.88520  0.64717  1.0000
  H   H7834     1.0  0.94549  0.83187  0.67072  1.0000
  H   H7835     1.0  0.92037  0.83607  0.66318  1.0000
  H   H7836     1.0  0.53524  0.83137  0.71194  1.0000
  C   C4924     1.0  0.57125  0.85015  0.62542  1.0000
  C   C4925     1.0  0.57734  0.83570  0.62114  1.0000
  C   C4926     1.0  0.58220  0.83505  0.60535  1.0000
  C   C4927     1.0  0.58082  0.84884  0.59387  1.0000
  C   C4928     1.0  0.57428  0.86323  0.59816  1.0000
  C   C4929     1.0  0.56944  0.86389  0.61393  1.0000
  H   H7837     1.0  0.57870  0.82504  0.63001  1.0000
  H   H7838     1.0  0.58703  0.82387  0.60207  1.0000
  H   H7839     1.0  0.57351  0.87390  0.58926  1.0000
  H   H7840     1.0  0.56440  0.87502  0.61719  1.0000
  C   C4930     1.0  0.55392  0.87477  0.71034  1.0000
  C   C4931     1.0  0.56925  0.86607  0.70721  1.0000
  H   H7841     1.0  0.74041  0.82912  0.50194  1.0000
  H   H7842     1.0  0.57769  0.87055  0.69726  1.0000
  C   C4932     1.0  0.52812  0.92635  0.61787  1.0000
  C   C4933     1.0  0.52219  0.91293  0.62518  1.0000
  C   C4934     1.0  0.50978  0.91050  0.62066  1.0000
  H   H7843     1.0  0.63690  0.97649  0.64233  1.0000
  C   C4935     1.0  0.50936  0.93472  0.60124  1.0000
  C   C4936     1.0  0.52168  0.93724  0.60589  1.0000
  H   H7844     1.0  0.52706  0.90450  0.63442  1.0000
  C   C4937     1.0  0.64453  0.73786  0.58088  1.0000
  H   H7845     1.0  0.50464  0.94303  0.59183  1.0000
  H   H7846     1.0  0.52636  0.94756  0.60011  1.0000
  C   C4938     1.0  0.63262  0.91594  0.66811  1.0000
  C   C4939     1.0  0.64134  0.91439  0.65320  1.0000
  C   C4940     1.0  0.63550  0.90875  0.64371  1.0000
  C   C4941     1.0  0.62084  0.90481  0.64903  1.0000
  C   C4942     1.0  0.61204  0.90655  0.66388  1.0000
  C   C4943     1.0  0.61796  0.91203  0.67344  1.0000
  H   H7847     1.0  0.65266  0.91739  0.64901  1.0000
  H   H7848     1.0  0.64233  0.90744  0.63223  1.0000
  H   H7849     1.0  0.60074  0.90350  0.66806  1.0000
  H   H7850     1.0  0.61116  0.91324  0.68496  1.0000
  C   C4944     1.0  0.79194  0.85584  0.55473  1.0000
  C   C4945     1.0  0.78782  0.85099  0.54347  1.0000
  C   C4946     1.0  0.78142  0.83771  0.54756  1.0000
  C   C4947     1.0  0.77900  0.82927  0.56297  1.0000
  C   C4948     1.0  0.78335  0.83393  0.57422  1.0000
  C   C4949     1.0  0.78988  0.84715  0.57009  1.0000
  H   H7851     1.0  0.78948  0.85762  0.53155  1.0000
  H   H7852     1.0  0.77816  0.83417  0.53880  1.0000
  H   H7853     1.0  0.78159  0.82737  0.58615  1.0000
  H   H7854     1.0  0.79325  0.85066  0.57878  1.0000
  C   C4950     1.0  0.84542  0.85767  0.61336  1.0000
  C   C4951     1.0  0.83099  0.85574  0.62321  1.0000
  C   C4952     1.0  0.83041  0.84571  0.63802  1.0000
  C   C4953     1.0  0.84423  0.83796  0.64317  1.0000
  C   C4954     1.0  0.85863  0.83980  0.63325  1.0000
  C   C4955     1.0  0.85922  0.84940  0.61829  1.0000
  H   H7855     1.0  0.82027  0.86216  0.61954  1.0000
  H   H7856     1.0  0.81924  0.84431  0.64567  1.0000
  H   H7857     1.0  0.86934  0.83368  0.63700  1.0000
  H   H7858     1.0  0.87041  0.85059  0.61059  1.0000
  C   C4956     1.0  0.75037  0.90199  0.61791  1.0000
  C   C4957     1.0  0.74799  0.91390  0.60480  1.0000
  C   C4958     1.0  0.73299  0.92328  0.60428  1.0000
  C   C4959     1.0  0.72047  0.92107  0.61703  1.0000
  C   C4960     1.0  0.72286  0.90911  0.63007  1.0000
  C   C4961     1.0  0.73773  0.89945  0.63040  1.0000
  H   H7859     1.0  0.75771  0.91611  0.59520  1.0000
  H   H7860     1.0  0.73118  0.93258  0.59419  1.0000
  H   H7861     1.0  0.71321  0.90716  0.63982  1.0000
  H   H7862     1.0  0.73947  0.89012  0.64048  1.0000
  C   C4962     1.0  0.82029  0.94812  0.55945  1.0000
  C   C4963     1.0  0.83187  0.94001  0.56779  1.0000
  S   S2011     1.0  0.94893  0.89207  0.68541  1.0000
  C   C4964     1.0  0.82048  0.96349  0.55098  1.0000
  H   H7863     1.0  0.83183  0.92814  0.57431  1.0000
  C   C4965     1.0  0.86805  0.78515  0.67970  1.0000
  H   H7864     1.0  0.86709  0.93539  0.52506  1.0000
  H   H7865     1.0  0.73048  0.80520  0.51067  1.0000
  Fe  Fe1009    1.0  0.96690  0.89053  0.69844  1.0000
  C   C4966     1.0  0.58854  0.80933  0.50680  1.0000
  C   C4967     1.0  0.94600  0.79878  0.66960  1.0000
  H   H7866     1.0  0.63719  0.76289  0.57481  1.0000
  H   H7867     1.0  0.49842  0.96709  0.60597  1.0000
  H   H7868     1.0  0.65197  0.73696  0.56952  1.0000
  S   S2012     1.0  0.77804  0.81958  0.49033  1.0000
  H   H7869     1.0  0.83719  0.92375  0.54258  1.0000
  S   S2013     1.0  0.70931  0.92634  0.68744  1.0000
  H   H7870     1.0  0.51526  0.91101  0.57630  1.0000
  S   S2014     1.0  0.96429  0.85283  0.66897  1.0000
  N   N488      1.0  0.68095  0.75821  0.58592  1.0000
  N   N489      1.0  0.71665  0.82816  0.50374  1.0000
  C   C4968     1.0  0.62593  0.96705  0.67308  1.0000
  H   H7871     1.0  0.98526  0.90496  0.71022  1.0000
  C   C4969     1.0  0.97893  0.94996  0.62455  1.0000
  H   H7872     1.0  0.92457  0.95857  0.70865  1.0000
  H   H7873     1.0  0.50516  0.90015  0.62646  1.0000
  H   H7874     1.0  0.70815  0.84374  0.51959  1.0000
  H   H7875     1.0  0.51650  0.87603  0.58904  1.0000
  C   C4970     1.0  0.98031  0.90693  0.72185  1.0000
  C   C4971     1.0  0.95011  0.96238  0.64226  1.0000
  H   H7876     1.0  0.95715  0.76886  0.69885  1.0000
  H   H7877     1.0  0.93489  0.80489  0.67630  1.0000
  H   H7878     1.0  0.93805  0.78138  0.69843  1.0000
  H   H7879     1.0  0.94279  0.79149  0.66357  1.0000
  H   H7880     1.0  0.93361  0.90969  0.71043  1.0000
  H   H7881     1.0  0.85756  0.95331  0.51395  1.0000
  H   H7882     1.0  0.85753  0.90119  0.64850  1.0000
  H   H7883     1.0  0.85786  0.93871  0.49449  1.0000
  N   N490      1.0  0.60596  0.76121  0.55419  1.0000
  H   H7884     1.0  0.83700  0.91336  0.52876  1.0000
  H   H7885     1.0  0.85505  0.91213  0.53379  1.0000
  C   C4972     1.0  0.53308  0.84928  0.67446  1.0000
  H   H7886     1.0  0.51346  0.86176  0.69763  1.0000
  H   H7887     1.0  0.52153  0.83056  0.49661  1.0000
  H   H7888     1.0  0.62405  0.77294  0.55207  1.0000
  H   H7889     1.0  0.72449  0.80850  0.49276  1.0000
  Fe  Fe1010    1.0  0.96724  0.87493  0.67289  1.0000
  N   N491      1.0  0.74748  0.87290  0.58962  1.0000
  C   C4973     1.0  0.74519  0.86484  0.57877  1.0000
  C   C4974     1.0  0.73227  0.88208  0.59658  1.0000
  C   C4975     1.0  0.75815  0.88349  0.58102  1.0000
  C   C4976     1.0  0.75437  0.86128  0.60212  1.0000
  H   H7890     1.0  0.75649  0.85817  0.57299  1.0000
  H   H7891     1.0  0.73981  0.87331  0.56934  1.0000
  H   H7892     1.0  0.73755  0.85639  0.58490  1.0000
  H   H7893     1.0  0.73359  0.88816  0.60496  1.0000
  H   H7894     1.0  0.72690  0.89126  0.58754  1.0000
  H   H7895     1.0  0.72384  0.87451  0.60304  1.0000
  H   H7896     1.0  0.76038  0.88942  0.58899  1.0000
  H   H7897     1.0  0.75330  0.89270  0.57168  1.0000
  H   H7898     1.0  0.76969  0.87705  0.57538  1.0000
  H   H7899     1.0  0.74669  0.85303  0.60890  1.0000
  H   H7900     1.0  0.75631  0.86707  0.61044  1.0000
  H   H7901     1.0  0.76592  0.85426  0.59728  1.0000
  H   H7902     1.0  0.55570  0.84581  0.69948  1.0000
  C   C4977     1.0  0.86137  0.90369  0.61781  1.0000
  C   C4978     1.0  0.70347  0.93407  0.70415  1.0000
  H   H7903     1.0  0.49761  0.96834  0.63286  1.0000
  H   H7904     1.0  0.83830  0.89237  0.64060  1.0000
  S   S2015     1.0  0.97843  0.74173  0.68323  1.0000
  N   N492      1.0  0.52591  0.85339  0.48492  1.0000
  H   H7905     1.0  0.94265  0.96166  0.61248  1.0000
  C   C4979     1.0  0.97158  0.78213  0.67049  1.0000
  H   H7906     1.0  0.69357  0.83081  0.50049  1.0000
  H   H7907     1.0  0.85193  0.91317  0.62223  1.0000
  C   C4980     1.0  0.66575  0.91660  0.71478  1.0000
  H   H7908     1.0  0.82433  0.94826  0.52689  1.0000
  H   H7909     1.0  0.53176  0.90904  0.56021  1.0000
  H   H7910     1.0  0.52885  0.87236  0.68982  1.0000
  C   C4981     1.0  0.69442  0.74602  0.59043  1.0000
  H   H7911     1.0  0.62620  0.97760  0.67677  1.0000
  H   H7912     1.0  0.89699  0.76972  0.66847  1.0000
  H   H7913     1.0  0.86523  0.77681  0.69099  1.0000
  H   H7914     1.0  0.51733  0.73748  0.47561  1.0000
  H   H7915     1.0  0.55062  0.84352  0.47955  1.0000
  H   H7916     1.0  0.84922  0.92193  0.50074  1.0000
  H   H7917     1.0  0.96986  0.77433  0.66397  1.0000
  H   H7918     1.0  0.67094  0.97748  0.68204  1.0000
  H   H7919     1.0  0.53928  0.87336  0.56659  1.0000
  C   C4982     1.0  0.84794  0.88386  0.63492  1.0000
  C   C4983     1.0  0.88739  0.77445  0.70924  1.0000
  H   H7920     1.0  0.70554  0.74779  0.58194  1.0000
  S   S2016     1.0  0.85953  0.97066  0.55820  1.0000
  H   H7921     1.0  0.50237  0.86442  0.49461  1.0000
  H   H7922     1.0  0.60287  0.79437  0.49129  1.0000
  H   H7923     1.0  0.51780  0.89699  0.56497  1.0000
  C   C4984     1.0  0.84389  0.92017  0.53149  1.0000
  C   C4985     1.0  0.52772  0.73913  0.47852  1.0000
  H   H7924     1.0  0.96505  0.80865  0.68063  1.0000
  H   H7925     1.0  0.84916  0.94662  0.53407  1.0000
  S   S2017     1.0  0.48832  0.91757  0.60289  1.0000
  H   H7926     1.0  0.97533  0.92755  0.63881  1.0000
  H   H7927     1.0  0.94694  0.76888  0.68483  1.0000
  H   H7928     1.0  0.56078  0.83875  0.68187  1.0000
  H   H7929     1.0  0.88083  0.78555  0.71200  1.0000
  H   H7930     1.0  0.50965  0.84145  0.48279  1.0000
  C   C4986     1.0  0.62227  0.76309  0.54831  1.0000
  S   S2018     1.0  0.85640  0.85148  0.71921  1.0000
  N   N493      1.0  0.74604  0.93353  0.64886  1.0000
  C   C4987     1.0  0.74200  0.93906  0.63341  1.0000
  C   C4988     1.0  0.73749  0.94510  0.65857  1.0000
  C   C4989     1.0  0.76304  0.93159  0.64690  1.0000
  C   C4990     1.0  0.74167  0.91835  0.65656  1.0000
  H   H7931     1.0  0.72936  0.94006  0.63433  1.0000
  H   H7932     1.0  0.74868  0.93086  0.62565  1.0000
  H   H7933     1.0  0.74003  0.94119  0.67042  1.0000
  H   H7934     1.0  0.49205  0.94523  0.62875  1.0000
  H   H7935     1.0  0.97739  0.79121  0.66190  1.0000
  C   C4991     1.0  0.93502  0.96495  0.60395  1.0000
  H   H7936     1.0  0.76650  0.92734  0.65834  1.0000
  H   H7937     1.0  0.76678  0.94281  0.64110  1.0000
  H   H7938     1.0  0.76981  0.92293  0.63958  1.0000
  H   H7939     1.0  0.96740  0.79214  0.69663  1.0000
  N   N494      1.0  0.61719  0.97118  0.66064  1.0000
  S   S2019     1.0  0.98404  0.87152  0.68778  1.0000
  C   C4992     1.0  0.52602  0.86097  0.69679  1.0000
  C   C4993     1.0  0.84367  0.94722  0.56753  1.0000
  S   S2020     1.0  0.94528  0.93385  0.65985  1.0000
  C   C4994     1.0  0.60193  0.75865  0.57138  1.0000
  C   C4995     1.0  0.69180  0.94769  0.70501  1.0000
  H   H7940     1.0  0.68720  0.95426  0.69489  1.0000
  H   H7941     1.0  0.75602  0.80131  0.49239  1.0000
  H   H7942     1.0  0.86759  0.88111  0.65284  1.0000
  H   H7943     1.0  0.53559  0.86034  0.66635  1.0000
  C   C4996     1.0  0.95611  0.94620  0.64527  1.0000
  H   H7944     1.0  0.72912  0.91910  0.65726  1.0000
  H   H7945     1.0  0.88498  0.75606  0.67939  1.0000
  H   H7946     1.0  0.85268  0.94088  0.57392  1.0000
  H   H7947     1.0  0.59500  0.97113  0.67677  1.0000
  Fe  Fe1011    1.0  0.96039  0.91029  0.66756  1.0000
  C   C4997     1.0  0.63622  0.75255  0.58388  1.0000
  H   H7948     1.0  0.58555  0.84481  0.71447  1.0000
  Fe  Fe1012    1.0  0.67001  0.96379  0.65715  1.0000
  H   H7949     1.0  0.94841  0.80463  0.69584  1.0000
  N   N495      1.0  0.95661  0.78914  0.67994  1.0000
  H   H7950     1.0  0.66972  0.76661  0.56653  1.0000
  N   N496      1.0  0.80896  0.77367  0.57802  1.0000
  C   C4998     1.0  0.82530  0.77498  0.57534  1.0000
  C   C4999     1.0  0.80738  0.75767  0.58657  1.0000
  C   C5000     1.0  0.80465  0.77702  0.56286  1.0000
  C   C5001     1.0  0.79848  0.78508  0.58720  1.0000
  H   H7951     1.0  0.83347  0.76650  0.56843  1.0000
  H   H7952     1.0  0.82896  0.77261  0.58653  1.0000
  H   H7953     1.0  0.82687  0.78691  0.56879  1.0000
  H   H7954     1.0  0.79508  0.75646  0.58912  1.0000
  H   H7955     1.0  0.81468  0.74880  0.57969  1.0000
  H   H7956     1.0  0.81096  0.75449  0.59789  1.0000
  H   H7957     1.0  0.79252  0.77577  0.56442  1.0000
  H   H7958     1.0  0.81246  0.76888  0.55540  1.0000
  H   H7959     1.0  0.80526  0.78918  0.55629  1.0000
  H   H7960     1.0  0.78601  0.78461  0.58912  1.0000
  H   H7961     1.0  0.79940  0.79729  0.58106  1.0000
  H   H7962     1.0  0.80123  0.78287  0.59881  1.0000
  H   H7963     1.0  0.61213  0.73665  0.55434  1.0000
  H   H7964     1.0  0.55538  0.85933  0.68110  1.0000
  H   H7965     1.0  0.70080  0.84848  0.49408  1.0000
  C   C5002     1.0  0.70424  0.83563  0.49488  1.0000
  H   H7966     1.0  0.87806  0.89534  0.64022  1.0000
  C   C5003     1.0  0.88986  0.74656  0.71272  1.0000
  S   S2021     1.0  0.57171  0.81335  0.49941  1.0000
  H   H7967     1.0  0.74875  0.90907  0.65016  1.0000
  H   H7968     1.0  0.87245  0.90792  0.61374  1.0000
  H   H7969     1.0  0.54201  0.84124  0.49989  1.0000
  C   C5004     1.0  0.94936  0.77655  0.69103  1.0000
  H   H7970     1.0  0.87335  0.87504  0.61277  1.0000
  C   C5005     1.0  0.94773  0.93381  0.70347  1.0000
  C   C5006     1.0  0.50335  0.92138  0.60869  1.0000
  H   H7971     1.0  0.83300  0.95464  0.50675  1.0000
  H   H7972     1.0  0.95174  0.94261  0.70682  1.0000
  C   C5007     1.0  0.52151  0.83892  0.48515  1.0000
  H   H7973     1.0  0.84433  0.88249  0.62483  1.0000
  C   C5008     1.0  0.88150  0.76091  0.71646  1.0000
  H   H7974     1.0  0.52071  0.84926  0.67534  1.0000
  H   H7975     1.0  0.71903  0.91551  0.71642  1.0000
  H   H7976     1.0  0.62951  0.95060  0.65164  1.0000
  H   H7977     1.0  0.51713  0.87249  0.49678  1.0000
  H   H7978     1.0  0.55192  0.86982  0.57959  1.0000
  H   H7979     1.0  0.92851  0.92353  0.69340  1.0000
  H   H7980     1.0  0.71986  0.82512  0.52684  1.0000
  H   H7981     1.0  0.97988  0.77483  0.67796  1.0000
  H   H7982     1.0  0.60736  0.74918  0.53657  1.0000
  H   H7983     1.0  0.70818  0.83369  0.48276  1.0000
  H   H7984     1.0  0.62554  0.76573  0.53533  1.0000
  H   H7985     1.0  0.94981  0.93648  0.69051  1.0000
  H   H7986     1.0  0.65607  0.76451  0.59448  1.0000
  S   S2022     1.0  0.98329  0.97820  0.60598  1.0000
  C   C5009     1.0  0.62674  0.75376  0.59861  1.0000
  C   C5010     1.0  0.60431  0.74763  0.54949  1.0000
  H   H7987     1.0  0.87649  0.86549  0.63204  1.0000
  C   C5011     1.0  0.55273  0.84789  0.68801  1.0000
  C   C5012     1.0  0.95862  0.97235  0.63053  1.0000
  H   H7988     1.0  0.62412  0.73287  0.70262  1.0000
  H   H7989     1.0  0.80222  0.77246  0.47367  1.0000
  H   H7990     1.0  0.85854  0.90192  0.60743  1.0000
  N   N497      1.0  0.53342  0.89047  0.58059  1.0000
  C   C5013     1.0  0.54158  0.89825  0.58703  1.0000
  C   C5014     1.0  0.54501  0.87920  0.57189  1.0000
  C   C5015     1.0  0.68320  0.77376  0.58547  1.0000
  C   C5016     1.0  0.52284  0.88206  0.59347  1.0000
  H   H7991     1.0  0.82435  0.93781  0.51306  1.0000
  N   N498      1.0  0.93116  0.93368  0.71083  1.0000
  H   H7992     1.0  0.93899  0.96720  0.64917  1.0000
  H   H7993     1.0  0.69406  0.77627  0.57695  1.0000
  S   S2023     1.0  0.56282  0.78413  0.48095  1.0000
  C   C5017     1.0  0.66645  0.75540  0.59742  1.0000
  H   H7994     1.0  0.91411  0.92122  0.71142  1.0000
  H   H7995     1.0  0.55347  0.88502  0.56230  1.0000
  H   H7996     1.0  0.71069  0.80561  0.51107  1.0000
  H   H7997     1.0  0.59799  0.77769  0.53457  1.0000
  H   H7998     1.0  0.63066  0.75236  0.55263  1.0000
  C   C5018     1.0  0.68590  0.95273  0.71908  1.0000
  N   N499      1.0  0.62133  0.85922  0.60649  1.0000
  C   C5019     1.0  0.62410  0.87318  0.60957  1.0000
  C   C5020     1.0  0.63635  0.84789  0.60326  1.0000
  C   C5021     1.0  0.61411  0.86390  0.59287  1.0000
  C   C5022     1.0  0.61073  0.85191  0.62029  1.0000
  H   H7999     1.0  0.61302  0.88203  0.61195  1.0000
  H   H8000     1.0  0.63216  0.87898  0.59951  1.0000
  H   H8001     1.0  0.62929  0.87017  0.61996  1.0000
  H   H8002     1.0  0.64458  0.85292  0.59278  1.0000
  H   H8003     1.0  0.64221  0.84416  0.61323  1.0000
  H   H8004     1.0  0.63466  0.83718  0.60095  1.0000
  H   H8005     1.0  0.61181  0.85365  0.59025  1.0000
  H   H8006     1.0  0.62179  0.86941  0.58221  1.0000
  H   H8007     1.0  0.60276  0.87245  0.59490  1.0000
  H   H8008     1.0  0.60816  0.84147  0.61834  1.0000
  H   H8009     1.0  0.59936  0.86021  0.62316  1.0000
  H   H8010     1.0  0.61582  0.84813  0.63080  1.0000
  H   H8011     1.0  0.57735  0.82350  0.52384  1.0000
  H   H8012     1.0  0.74464  0.95073  0.62745  1.0000
  H   H8013     1.0  0.95138  0.80789  0.66055  1.0000
  C   C5023     1.0  0.71097  0.83105  0.51968  1.0000
  Fe  Fe1013    1.0  0.57457  0.80345  0.47858  1.0000
  H   H8014     1.0  0.67808  0.74603  0.57025  1.0000
  H   H8015     1.0  0.68410  0.77467  0.59703  1.0000
  H   H8016     1.0  0.52359  0.74413  0.48911  1.0000
  H   H8017     1.0  0.69049  0.75983  0.56135  1.0000
  H   H8018     1.0  0.58293  0.77466  0.55185  1.0000
  C   C5024     1.0  0.87546  0.87690  0.62345  1.0000
  H   H8019     1.0  0.53329  0.90755  0.59276  1.0000
  H   H8020     1.0  0.63825  0.96124  0.66902  1.0000
  H   H8021     1.0  0.52981  0.83276  0.47613  1.0000
  H   H8022     1.0  0.94451  0.88095  0.65492  1.0000
  C   C5025     1.0  0.62537  0.74018  0.61022  1.0000
  C   C5026     1.0  0.84406  0.96247  0.55881  1.0000
  C   C5027     1.0  0.51438  0.86134  0.49679  1.0000
  H   H8023     1.0  0.87745  0.79035  0.68032  1.0000
  N   N500      1.0  0.84662  0.93389  0.51878  1.0000
  H   H8024     1.0  0.52745  0.85971  0.70875  1.0000
  C   C5028     1.0  0.53292  0.83287  0.70023  1.0000
  C   C5029     1.0  0.57371  0.85157  0.71703  1.0000
  C   C5030     1.0  0.86662  0.89188  0.64344  1.0000
  S   S2024     1.0  0.97726  0.90982  0.68136  1.0000
  H   H8025     1.0  0.54678  0.75632  0.47995  1.0000
  H   H8026     1.0  0.59660  0.78601  0.55055  1.0000
  H   H8027     1.0  0.59721  0.73229  0.71841  1.0000
  N   N501      1.0  0.53618  0.84776  0.68987  1.0000
  H   H8028     1.0  0.88704  0.88006  0.62031  1.0000
  H   H8029     1.0  0.92286  0.95197  0.69257  1.0000
  C   C5031     1.0  0.85552  0.94268  0.52310  1.0000
  N   N502      1.0  0.87301  0.77734  0.66645  1.0000
  C   C5032     1.0  0.86032  0.77044  0.66612  1.0000
  C   C5033     1.0  0.87649  0.78896  0.65178  1.0000
  H   H8030     1.0  0.85749  0.79476  0.67867  1.0000
  H   H8031     1.0  0.86368  0.76437  0.65629  1.0000
  H   H8032     1.0  0.85742  0.76165  0.67708  1.0000
  H   H8033     1.0  0.84947  0.77958  0.66480  1.0000
  H   H8034     1.0  0.89118  0.75852  0.65861  1.0000
  H   H8035     1.0  0.88609  0.79431  0.65169  1.0000
  H   H8036     1.0  0.86610  0.79870  0.65022  1.0000
  H   H8037     1.0  0.88013  0.78357  0.64147  1.0000
  C   C5034     1.0  0.88716  0.76487  0.66827  1.0000
  H   H8038     1.0  0.70023  0.82652  0.52587  1.0000
  H   H8039     1.0  0.52937  0.87309  0.60179  1.0000
  H   H8040     1.0  0.52051  0.83237  0.70200  1.0000
  H   H8041     1.0  0.84890  0.87234  0.64336  1.0000
  S   S2025     1.0  0.97717  0.89323  0.65365  1.0000
  H   H8042     1.0  0.74051  0.95670  0.65318  1.0000
  C   C5035     1.0  0.67976  0.75763  0.57033  1.0000
  C   C5036     1.0  0.92138  0.94914  0.70549  1.0000
  C   C5037     1.0  0.92662  0.92153  0.70631  1.0000
  H   H8043     1.0  0.69305  0.73413  0.59090  1.0000
  N   N503      1.0  0.86284  0.88909  0.62992  1.0000
  C   C5038     1.0  0.97061  0.94002  0.63652  1.0000
  H   H8044     1.0  0.67327  0.78325  0.58202  1.0000
  H   H8045     1.0  0.73505  0.83304  0.48364  1.0000
  C   C5039     1.0  0.79023  0.74048  0.56782  1.0000
  H   H8046     1.0  0.51385  0.89021  0.60020  1.0000
  H   H8047     1.0  0.54766  0.88987  0.59598  1.0000
  H   H8048     1.0  0.54044  0.82267  0.69535  1.0000
  H   H8049     1.0  0.95536  0.92226  0.70708  1.0000
  H   H8050     1.0  0.72811  0.84753  0.49525  1.0000
  H   H8051     1.0  0.55039  0.90390  0.57778  1.0000
  C   C5040     1.0  0.73063  0.83476  0.49581  1.0000
  H   H8052     1.0  0.94718  0.73703  0.69396  1.0000
  H   H8053     1.0  0.58961  0.75748  0.57625  1.0000
  H   H8054     1.0  0.54064  0.83956  0.66884  1.0000
  C   C5041     1.0  0.83240  0.97064  0.55056  1.0000
  C   C5042     1.0  0.60087  0.97894  0.66648  1.0000
  H   H8055     1.0  0.90877  0.94948  0.71077  1.0000
  C   C5043     1.0  0.72074  0.81114  0.50457  1.0000
  C   C5044     1.0  0.59538  0.77548  0.54753  1.0000
  H   H8056     1.0  0.78136  0.73076  0.59203  1.0000
  C   C5045     1.0  0.61738  0.95682  0.65603  1.0000
  H   H8057     1.0  0.61090  0.95941  0.64667  1.0000
  H   H8058     1.0  0.67463  0.92388  0.71114  1.0000
  H   H8059     1.0  0.91099  0.73451  0.69964  1.0000
  H   H8060     1.0  0.61206  0.94837  0.66608  1.0000
  H   H8061     1.0  0.51396  0.85386  0.50872  1.0000
  H   H8062     1.0  0.92479  0.95948  0.60966  1.0000
  C   C5046     1.0  0.75996  0.80656  0.48030  1.0000
  H   H8063     1.0  0.66882  0.90895  0.70630  1.0000
  C   C5047     1.0  0.70986  0.92596  0.71710  1.0000
  H   H8064     1.0  0.67650  0.96298  0.71985  1.0000
  H   H8065     1.0  0.94175  0.95952  0.59389  1.0000
  H   H8066     1.0  0.54528  0.86002  0.48846  1.0000
  C   C5048     1.0  0.77097  0.81583  0.47609  1.0000
  H   H8067     1.0  0.59212  0.74589  0.55367  1.0000
  H   H8068     1.0  0.69574  0.74611  0.60211  1.0000
  H   H8069     1.0  0.78142  0.77493  0.47713  1.0000
  H   H8070     1.0  0.55820  0.73935  0.47256  1.0000
  H   H8071     1.0  0.78548  0.74826  0.47240  1.0000
  S   S2026     1.0  0.88172  0.73003  0.72034  1.0000
  Fe  Fe1014    1.0  0.82123  0.83144  0.80400  1.0000
  S   S2027     1.0  0.79572  0.83642  0.81515  1.0000
  S   S2028     1.0  0.82915  0.81605  0.78653  1.0000
  Fe  Fe1015    1.0  0.82907  0.84792  0.82440  1.0000
  S   S2029     1.0  0.80424  0.85436  0.83735  1.0000
  S   S2030     1.0  0.84937  0.85255  0.83028  1.0000
  Fe  Fe1016    1.0  0.80341  0.82996  0.83768  1.0000
  S   S2031     1.0  0.79083  0.81441  0.85802  1.0000
  Fe  Fe1017    1.0  0.79863  0.86040  0.81372  1.0000
  S   S2032     1.0  0.78229  0.88313  0.80565  1.0000
  S   S2033     1.0  0.82873  0.82290  0.82666  1.0000
  S   S2034     1.0  0.82367  0.85604  0.80063  1.0000
  Fe  Fe1018    1.0  0.84545  0.91202  0.87425  1.0000
  S   S2035     1.0  0.86355  0.89127  0.88252  1.0000
  S   S2036     1.0  0.83399  0.91443  0.85470  1.0000
  Fe  Fe1019    1.0  0.84270  0.92809  0.90003  1.0000
  S   S2037     1.0  0.86040  0.90874  0.91070  1.0000
  S   S2038     1.0  0.83143  0.94849  0.91162  1.0000
  Fe  Fe1020    1.0  0.87394  0.90921  0.88614  1.0000
  S   S2039     1.0  0.89964  0.90777  0.88203  1.0000
  Fe  Fe1021    1.0  0.84858  0.89252  0.90629  1.0000
  S   S2040     1.0  0.84298  0.87128  0.92440  1.0000
  S   S2041     1.0  0.85724  0.93001  0.87565  1.0000
  S   S2042     1.0  0.82947  0.91181  0.89789  1.0000
  Fe  Fe1022    1.0  0.95999  0.95301  0.79649  1.0000
  H   H8072     1.0  0.70800  0.91960  0.84147  1.0000
  H   H8073     1.0  0.73530  0.92059  0.80272  1.0000
  H   H8074     1.0  0.51429  0.88390  0.91234  1.0000
  S   S2043     1.0  0.93363  0.90811  0.81172  1.0000
  H   H8075     1.0  0.49868  0.76487  0.73437  1.0000
  Fe  Fe1023    1.0  0.68680  0.92726  0.76904  1.0000
  S   S2044     1.0  0.70589  0.92099  0.78207  1.0000
  S   S2045     1.0  0.68271  0.94891  0.75037  1.0000
  Fe  Fe1024    1.0  0.67349  0.89867  0.78686  1.0000
  S   S2046     1.0  0.69142  0.88987  0.80155  1.0000
  S   S2047     1.0  0.65362  0.88811  0.78776  1.0000
  Fe  Fe1025    1.0  0.68711  0.91482  0.80301  1.0000
  S   S2048     1.0  0.68427  0.92124  0.82570  1.0000
  Fe  Fe1026    1.0  0.70843  0.89669  0.77932  1.0000
  S   S2049     1.0  0.73111  0.87985  0.77342  1.0000
  S   S2050     1.0  0.66772  0.92318  0.79022  1.0000
  S   S2051     1.0  0.69092  0.90343  0.76443  1.0000
  H   H8076     1.0  0.64161  0.90526  0.73454  1.0000
  H   H8077     1.0  0.83623  0.80787  0.75679  1.0000
  Fe  Fe1027    1.0  0.54850  0.81614  0.75661  1.0000
  S   S2052     1.0  0.53145  0.82521  0.77673  1.0000
  H   H8078     1.0  0.84075  0.78362  0.83533  1.0000
  Fe  Fe1028    1.0  0.53641  0.78640  0.76404  1.0000
  S   S2053     1.0  0.51840  0.79284  0.78482  1.0000
  H   H8079     1.0  0.84054  0.75131  0.83217  1.0000
  Fe  Fe1029    1.0  0.51408  0.81683  0.76950  1.0000
  Fe  Fe1030    1.0  0.53733  0.80043  0.79017  1.0000
  S   S2054     1.0  0.54443  0.79099  0.81326  1.0000
  S   S2055     1.0  0.53081  0.80979  0.74817  1.0000
  S   S2056     1.0  0.55569  0.79204  0.77051  1.0000
  Fe  Fe1031    1.0  0.61275  0.83572  0.85995  1.0000
  S   S2057     1.0  0.58695  0.84585  0.86450  1.0000
  S   S2058     1.0  0.63130  0.84924  0.85528  1.0000
  Fe  Fe1032    1.0  0.60887  0.80225  0.86782  1.0000
  S   S2059     1.0  0.58267  0.80959  0.87267  1.0000
  S   S2060     1.0  0.61967  0.77631  0.87091  1.0000
  Fe  Fe1033    1.0  0.58631  0.82863  0.85128  1.0000
  S   S2061     1.0  0.57166  0.83735  0.83307  1.0000
  Fe  Fe1034    1.0  0.58551  0.82598  0.88545  1.0000
  S   S2062     1.0  0.57151  0.82583  0.91014  1.0000
  S   S2063     1.0  0.61239  0.81994  0.84519  1.0000
  S   S2064     1.0  0.61139  0.81734  0.88207  1.0000
  H   H8080     1.0  0.53143  0.87603  0.72627  1.0000
  H   H8081     1.0  0.87411  0.86961  0.95065  1.0000
  H   H8082     1.0  0.96360  0.91315  0.76412  1.0000
  C   C5049     1.0  0.63318  0.76813  0.88303  1.0000
  C   C5050     1.0  0.63882  0.77759  0.88883  1.0000
  C   C5051     1.0  0.64844  0.77082  0.89959  1.0000
  H   H8083     1.0  0.52869  0.74664  0.82840  1.0000
  H   H8084     1.0  0.63574  0.79014  0.88510  1.0000
  H   H8085     1.0  0.65255  0.77824  0.90421  1.0000
  H   H8086     1.0  0.67870  0.97055  0.84046  1.0000
  C   C5052     1.0  0.56761  0.84336  0.91643  1.0000
  C   C5053     1.0  0.55930  0.84416  0.93170  1.0000
  C   C5054     1.0  0.56923  0.87045  0.91162  1.0000
  C   C5055     1.0  0.57266  0.85651  0.90644  1.0000
  H   H8087     1.0  0.72254  0.90874  0.85245  1.0000
  H   H8088     1.0  0.57304  0.88063  0.90375  1.0000
  H   H8089     1.0  0.57911  0.85600  0.89467  1.0000
  C   C5056     1.0  0.55144  0.80386  0.81941  1.0000
  C   C5057     1.0  0.54662  0.82003  0.81449  1.0000
  C   C5058     1.0  0.55253  0.83015  0.81924  1.0000
  C   C5059     1.0  0.56347  0.82420  0.82870  1.0000
  C   C5060     1.0  0.56815  0.80802  0.83380  1.0000
  C   C5061     1.0  0.56204  0.79787  0.82925  1.0000
  H   H8090     1.0  0.53816  0.82475  0.80725  1.0000
  H   H8091     1.0  0.54859  0.84266  0.81558  1.0000
  H   H8092     1.0  0.57657  0.80335  0.84112  1.0000
  H   H8093     1.0  0.56574  0.78537  0.83317  1.0000
  H   H8094     1.0  0.50368  0.76383  0.77355  1.0000
  C   C5062     1.0  0.55260  0.74893  0.76007  1.0000
  C   C5063     1.0  0.56607  0.75159  0.76230  1.0000
  H   H8095     1.0  0.52117  0.86593  0.92522  1.0000
  H   H8096     1.0  0.56684  0.76327  0.76184  1.0000
  H   H8097     1.0  0.49395  0.86872  0.94166  1.0000
  H   H8098     1.0  0.61313  0.78204  0.91694  1.0000
  C   C5064     1.0  0.60083  0.75928  0.91550  1.0000
  C   C5065     1.0  0.81953  0.79778  0.86326  1.0000
  H   H8099     1.0  0.52691  0.88034  0.94869  1.0000
  C   C5066     1.0  0.87677  0.88030  0.94191  1.0000
  C   C5067     1.0  0.54324  0.86919  0.72366  1.0000
  H   H8100     1.0  0.55537  0.83400  0.93948  1.0000
  H   H8101     1.0  0.89490  0.89509  0.91671  1.0000
  H   H8102     1.0  0.79593  0.86181  0.78380  1.0000
  H   H8103     1.0  0.80545  0.78222  0.82396  1.0000
  C   C5068     1.0  0.51536  0.87762  0.95040  1.0000
  H   H8104     1.0  0.53083  0.88183  0.92021  1.0000
  H   H8105     1.0  0.82424  0.76783  0.80448  1.0000
  H   H8106     1.0  0.70878  0.92452  0.74122  1.0000
  H   H8107     1.0  0.98564  0.90255  0.94700  1.0000
  C   C5069     1.0  0.68182  0.94158  0.82222  1.0000
  C   C5070     1.0  0.68102  0.94873  0.83419  1.0000
  H   H8108     1.0  0.92366  0.78395  0.95262  1.0000
  S   S2065     1.0  0.95188  0.94104  0.78291  1.0000
  C   C5071     1.0  0.51917  0.87890  0.92297  1.0000
  C   C5072     1.0  0.68087  0.95069  0.80733  1.0000
  H   H8109     1.0  0.68171  0.94175  0.84575  1.0000
  H   H8110     1.0  0.84487  0.76359  0.80369  1.0000
  C   C5073     1.0  0.96823  0.91153  0.75230  1.0000
  H   H8111     1.0  0.68150  0.94530  0.79802  1.0000
  C   C5074     1.0  0.64802  0.87557  0.80578  1.0000
  C   C5075     1.0  0.65787  0.86995  0.81628  1.0000
  C   C5076     1.0  0.65281  0.86131  0.83123  1.0000
  C   C5077     1.0  0.63790  0.85812  0.83578  1.0000
  C   C5078     1.0  0.62821  0.86310  0.82511  1.0000
  C   C5079     1.0  0.63328  0.87187  0.81010  1.0000
  H   H8112     1.0  0.66940  0.87220  0.81292  1.0000
  H   H8113     1.0  0.66045  0.85716  0.83935  1.0000
  H   H8114     1.0  0.61666  0.86063  0.82859  1.0000
  H   H8115     1.0  0.62561  0.87613  0.80202  1.0000
  C   C5080     1.0  0.90941  0.90648  0.86284  1.0000
  C   C5081     1.0  0.90154  0.90490  0.85247  1.0000
  C   C5082     1.0  0.90924  0.90486  0.83689  1.0000
  C   C5083     1.0  0.92475  0.90655  0.83160  1.0000
  C   C5084     1.0  0.93268  0.90783  0.84205  1.0000
  C   C5085     1.0  0.92503  0.90776  0.85766  1.0000
  H   H8116     1.0  0.88947  0.90394  0.85638  1.0000
  H   H8117     1.0  0.90307  0.90383  0.82885  1.0000
  H   H8118     1.0  0.94476  0.90873  0.83815  1.0000
  H   H8119     1.0  0.93118  0.90886  0.86567  1.0000
  C   C5086     1.0  0.81597  0.96134  0.90363  1.0000
  H   H8120     1.0  0.48751  0.88727  0.92931  1.0000
  S   S2066     1.0  0.53620  0.76426  0.75787  1.0000
  C   C5087     1.0  0.60235  0.78598  0.91225  1.0000
  H   H8121     1.0  0.56314  0.73438  0.83023  1.0000
  H   H8122     1.0  0.49932  0.90719  0.94319  1.0000
  H   H8123     1.0  0.90196  0.85693  0.94442  1.0000
  H   H8124     1.0  0.69840  0.73566  0.90191  1.0000
  H   H8125     1.0  0.84263  0.78405  0.86488  1.0000
  H   H8126     1.0  0.82058  0.95085  0.88398  1.0000
  C   C5088     1.0  0.85953  0.85733  0.92910  1.0000
  C   C5089     1.0  0.85860  0.84800  0.94418  1.0000
  C   C5090     1.0  0.87196  0.83754  0.94850  1.0000
  C   C5091     1.0  0.88620  0.83606  0.93762  1.0000
  C   C5092     1.0  0.88699  0.84491  0.92235  1.0000
  C   C5093     1.0  0.87373  0.85574  0.91815  1.0000
  H   H8127     1.0  0.84760  0.84916  0.95265  1.0000
  Fe  Fe1035    1.0  0.97729  0.93108  0.77456  1.0000
  H   H8128     1.0  0.89797  0.84373  0.91385  1.0000
  H   H8129     1.0  0.87456  0.86287  0.90647  1.0000
  C   C5094     1.0  0.84582  0.87069  0.83515  1.0000
  C   C5095     1.0  0.83165  0.88150  0.83424  1.0000
  C   C5096     1.0  0.82833  0.89520  0.83979  1.0000
  C   C5097     1.0  0.83908  0.89804  0.84639  1.0000
  C   C5098     1.0  0.85342  0.88745  0.84689  1.0000
  C   C5099     1.0  0.85681  0.87382  0.84121  1.0000
  H   H8130     1.0  0.82317  0.87921  0.82946  1.0000
  H   H8131     1.0  0.81727  0.90344  0.83929  1.0000
  H   H8132     1.0  0.86194  0.88979  0.85156  1.0000
  H   H8133     1.0  0.86784  0.86554  0.84178  1.0000
  C   C5100     1.0  0.80390  0.79750  0.86507  1.0000
  C   C5101     1.0  0.79905  0.78333  0.87123  1.0000
  H   H8134     1.0  0.78694  0.78309  0.87274  1.0000
  H   H8135     1.0  0.82323  0.80875  0.85902  1.0000
  C   C5102     1.0  0.76751  0.88208  0.79748  1.0000
  C   C5103     1.0  0.76433  0.86774  0.79829  1.0000
  C   C5104     1.0  0.75320  0.86710  0.79079  1.0000
  C   C5105     1.0  0.74476  0.88087  0.78296  1.0000
  C   C5106     1.0  0.74759  0.89530  0.78248  1.0000
  C   C5107     1.0  0.75911  0.89588  0.78956  1.0000
  H   H8136     1.0  0.77045  0.85710  0.80464  1.0000
  H   H8137     1.0  0.75094  0.85594  0.79125  1.0000
  H   H8138     1.0  0.74126  0.90594  0.77620  1.0000
  H   H8139     1.0  0.76173  0.90699  0.78865  1.0000
  C   C5108     1.0  0.83914  0.82438  0.76804  1.0000
  C   C5109     1.0  0.84478  0.83772  0.76587  1.0000
  C   C5110     1.0  0.84052  0.81825  0.75516  1.0000
  H   H8140     1.0  0.84425  0.84221  0.77577  1.0000
  C   C5111     1.0  0.55196  0.73374  0.76019  1.0000
  H   H8141     1.0  0.54148  0.75810  0.82916  1.0000
  C   C5112     1.0  0.85162  0.83981  0.73786  1.0000
  S   S2067     1.0  0.49045  0.83105  0.76551  1.0000
  Fe  Fe1036    1.0  0.95329  0.92077  0.80339  1.0000
  C   C5113     1.0  0.64749  0.74501  0.89827  1.0000
  N   N504      1.0  0.55073  0.74421  0.81176  1.0000
  N   N505      1.0  0.50868  0.88504  0.93649  1.0000
  H   H8142     1.0  0.61165  0.86104  0.93143  1.0000
  H   H8143     1.0  0.61099  0.87130  0.95452  1.0000
  N   N506      1.0  0.89283  0.88182  0.94039  1.0000
  H   H8144     1.0  0.89998  0.97899  0.83737  1.0000
  H   H8145     1.0  0.53140  0.76400  0.81365  1.0000
  C   C5114     1.0  0.70079  0.73899  0.88899  1.0000
  H   H8146     1.0  0.59151  0.87078  0.93219  1.0000
  C   C5115     1.0  0.81536  0.78649  0.82484  1.0000
  H   H8147     1.0  0.90640  0.95312  0.80993  1.0000
  C   C5116     1.0  0.82930  0.76012  0.83353  1.0000
  N   N507      1.0  0.70574  0.75404  0.88318  1.0000
  H   H8148     1.0  0.90540  0.79342  0.93498  1.0000
  C   C5117     1.0  0.59872  0.86985  0.95888  1.0000
  H   H8149     1.0  0.55650  0.76422  0.79443  1.0000
  C   C5118     1.0  0.90369  0.75647  0.95584  1.0000
  C   C5119     1.0  0.57871  0.73907  0.76500  1.0000
  H   H8150     1.0  0.53916  0.74870  0.79299  1.0000
  H   H8151     1.0  0.93281  0.93878  0.73182  1.0000
  H   H8152     1.0  0.67823  0.97391  0.79290  1.0000
  S   S2068     1.0  0.56833  0.82691  0.74118  1.0000
  H   H8153     1.0  0.90654  0.88426  0.95486  1.0000
  C   C5120     1.0  0.56090  0.87128  0.92686  1.0000
  N   N508      1.0  0.91030  0.95699  0.83055  1.0000
  C   C5121     1.0  0.89764  0.94940  0.84092  1.0000
  N   N509      1.0  0.48969  0.77187  0.75633  1.0000
  C   C5122     1.0  0.90434  0.97410  0.82670  1.0000
  C   C5123     1.0  0.91595  0.95105  0.81605  1.0000
  C   C5124     1.0  0.59943  0.85977  0.93688  1.0000
  H   H8154     1.0  0.89317  0.95339  0.85210  1.0000
  H   H8155     1.0  0.90182  0.93650  0.84391  1.0000
  H   H8156     1.0  0.96872  0.91828  0.94827  1.0000
  H   H8157     1.0  0.97964  0.97172  0.79790  1.0000
  H   H8158     1.0  0.92533  0.95670  0.80782  1.0000
  H   H8159     1.0  0.97087  0.88371  0.96596  1.0000
  H   H8160     1.0  0.89505  0.79297  0.96285  1.0000
  H   H8161     1.0  0.65623  0.88954  0.72744  1.0000
  H   H8162     1.0  0.57228  0.74729  0.79534  1.0000
  H   H8163     1.0  0.81955  0.85047  0.74739  1.0000
  Fe  Fe1037    1.0  0.83039  0.73055  0.88096  1.0000
  N   N510      1.0  0.83175  0.85896  0.88871  1.0000
  C   C5125     1.0  0.84897  0.85611  0.88560  1.0000
  C   C5126     1.0  0.82496  0.87565  0.88892  1.0000
  C   C5127     1.0  0.82597  0.84921  0.90399  1.0000
  C   C5128     1.0  0.82714  0.85488  0.87638  1.0000
  H   H8164     1.0  0.85454  0.84368  0.88518  1.0000
  H   H8165     1.0  0.85282  0.85901  0.89476  1.0000
  H   H8166     1.0  0.85373  0.86340  0.87423  1.0000
  H   H8167     1.0  0.81201  0.87837  0.89084  1.0000
  H   H8168     1.0  0.82792  0.87902  0.89832  1.0000
  H   H8169     1.0  0.82941  0.88339  0.87772  1.0000
  H   H8170     1.0  0.81300  0.85120  0.90682  1.0000
  H   H8171     1.0  0.82938  0.85195  0.91354  1.0000
  H   H8172     1.0  0.83082  0.83654  0.90420  1.0000
  H   H8173     1.0  0.81425  0.85647  0.87853  1.0000
  H   H8174     1.0  0.83256  0.84255  0.87537  1.0000
  H   H8175     1.0  0.83087  0.86240  0.86483  1.0000
  N   N511      1.0  0.59211  0.77470  0.91888  1.0000
  H   H8176     1.0  0.85484  0.85608  0.74914  1.0000
  H   H8177     1.0  0.57176  0.86572  0.95684  1.0000
  H   H8178     1.0  0.71770  0.74910  0.86070  1.0000
  H   H8179     1.0  0.51868  0.90514  0.93115  1.0000
  H   H8180     1.0  0.82004  0.75494  0.83256  1.0000
  C   C5129     1.0  0.55597  0.85807  0.93692  1.0000
  H   H8181     1.0  0.60442  0.75988  0.90271  1.0000
  C   C5130     1.0  0.69171  0.94411  0.73226  1.0000
  H   H8182     1.0  0.59741  0.85022  0.93284  1.0000
  H   H8183     1.0  0.54955  0.85852  0.94869  1.0000
  H   H8184     1.0  0.63342  0.74441  0.88316  1.0000
  C   C5131     1.0  0.83045  0.78384  0.86677  1.0000
  H   H8185     1.0  0.72993  0.97671  0.87892  1.0000
  H   H8186     1.0  0.98644  0.91984  0.95202  1.0000
  N   N512      1.0  0.58281  0.83959  0.77591  1.0000
  C   C5132     1.0  0.57500  0.82632  0.78036  1.0000
  C   C5133     1.0  0.58101  0.84862  0.76014  1.0000
  C   C5134     1.0  0.59958  0.83354  0.77598  1.0000
  C   C5135     1.0  0.57566  0.84982  0.78719  1.0000
  H   H8187     1.0  0.57635  0.81907  0.79210  1.0000
  H   H8188     1.0  0.57984  0.81857  0.77186  1.0000
  H   H8189     1.0  0.56226  0.83045  0.78073  1.0000
  H   H8190     1.0  0.58624  0.85906  0.75657  1.0000
  H   H8191     1.0  0.58677  0.84140  0.75125  1.0000
  H   H8192     1.0  0.56846  0.85275  0.75952  1.0000
  H   H8193     1.0  0.60129  0.82675  0.78778  1.0000
  H   H8194     1.0  0.60586  0.84323  0.77264  1.0000
  H   H8195     1.0  0.60534  0.82567  0.76768  1.0000
  H   H8196     1.0  0.57731  0.84351  0.79911  1.0000
  H   H8197     1.0  0.56287  0.85416  0.78791  1.0000
  H   H8198     1.0  0.58097  0.86017  0.78400  1.0000
  N   N513      1.0  0.64145  0.90747  0.83955  1.0000
  C   C5136     1.0  0.64334  0.92382  0.83486  1.0000
  C   C5137     1.0  0.65690  0.89674  0.83970  1.0000
  C   C5138     1.0  0.63429  0.90448  0.82836  1.0000
  C   C5139     1.0  0.63127  0.90479  0.85531  1.0000
  H   H8199     1.0  0.63193  0.93230  0.83473  1.0000
  H   H8200     1.0  0.65095  0.92620  0.82301  1.0000
  H   H8201     1.0  0.64898  0.92641  0.84290  1.0000
  H   H8202     1.0  0.65588  0.88433  0.84380  1.0000
  H   H8203     1.0  0.66468  0.89800  0.82787  1.0000
  H   H8204     1.0  0.66297  0.89914  0.84748  1.0000
  H   H8205     1.0  0.63222  0.89240  0.83187  1.0000
  H   H8206     1.0  0.64194  0.90575  0.81643  1.0000
  H   H8207     1.0  0.62282  0.91267  0.82756  1.0000
  H   H8208     1.0  0.61948  0.91266  0.85565  1.0000
  H   H8209     1.0  0.63635  0.90687  0.86406  1.0000
  H   H8210     1.0  0.62962  0.89252  0.85914  1.0000
  S   S2069     1.0  0.97809  0.90968  0.79385  1.0000
  C   C5140     1.0  0.82579  0.76957  0.87207  1.0000
  H   H8211     1.0  0.68076  0.88960  0.74387  1.0000
  H   H8212     1.0  0.92814  0.94057  0.84148  1.0000
  H   H8213     1.0  0.91656  0.93028  0.73393  1.0000
  C   C5141     1.0  0.49962  0.76059  0.74676  1.0000
  S   S2070     1.0  0.84009  0.75215  0.87334  1.0000
  C   C5142     1.0  0.83369  0.77226  0.80614  1.0000
  H   H8214     1.0  0.69765  0.75943  0.86202  1.0000
  H   H8215     1.0  0.71553  0.92682  0.81261  1.0000
  H   H8216     1.0  0.57920  0.76496  0.94133  1.0000
  H   H8217     1.0  0.59715  0.76928  0.94156  1.0000
  N   N514      1.0  0.90579  0.77257  0.95318  1.0000
  N   N515      1.0  0.80266  0.86768  0.75886  1.0000
  C   C5143     1.0  0.80875  0.85951  0.74582  1.0000
  C   C5144     1.0  0.79980  0.85613  0.77369  1.0000
  C   C5145     1.0  0.78788  0.87901  0.75674  1.0000
  C   C5146     1.0  0.81418  0.87606  0.75927  1.0000
  H   H8218     1.0  0.60568  0.83188  0.95660  1.0000
  H   H8219     1.0  0.69661  0.77787  0.88572  1.0000
  H   H8220     1.0  0.80811  0.97385  0.92211  1.0000
  H   H8221     1.0  0.59104  0.88105  0.95429  1.0000
  H   H8222     1.0  0.79070  0.84997  0.77418  1.0000
  H   H8223     1.0  0.81058  0.84708  0.77539  1.0000
  S   S2071     1.0  0.55670  0.88911  0.93271  1.0000
  H   H8224     1.0  0.77857  0.87306  0.75729  1.0000
  H   H8225     1.0  0.61172  0.75504  0.92006  1.0000
  H   H8226     1.0  0.72259  0.92871  0.84242  1.0000
  H   H8227     1.0  0.81690  0.88469  0.74817  1.0000
  H   H8228     1.0  0.82536  0.86785  0.76116  1.0000
  H   H8229     1.0  0.53909  0.84996  0.74317  1.0000
  C   C5147     1.0  0.89453  0.88319  0.95550  1.0000
  H   H8230     1.0  0.61962  0.84303  0.95518  1.0000
  C   C5148     1.0  0.56276  0.84557  0.72979  1.0000
  H   H8231     1.0  0.51217  0.75855  0.74698  1.0000
  H   H8232     1.0  0.90323  0.86657  0.92431  1.0000
  H   H8233     1.0  0.84422  0.79235  0.81487  1.0000
  S   S2072     1.0  0.90322  0.82360  0.94301  1.0000
  H   H8234     1.0  0.82642  0.76184  0.84561  1.0000
  C   C5149     1.0  0.85091  0.84548  0.75080  1.0000
  C   C5150     1.0  0.92163  0.77198  0.95472  1.0000
  H   H8235     1.0  0.85448  0.77278  0.82179  1.0000
  C   C5151     1.0  0.67933  0.96501  0.83122  1.0000
  H   H8236     1.0  0.72445  0.76372  0.88381  1.0000
  S   S2073     1.0  0.52472  0.90814  0.96525  1.0000
  C   C5152     1.0  0.69334  0.76631  0.88978  1.0000
  C   C5153     1.0  0.81327  0.96006  0.88979  1.0000
  H   H8237     1.0  0.91635  0.86846  0.93467  1.0000
  N   N516      1.0  0.97352  0.90466  0.97039  1.0000
  C   C5154     1.0  0.96802  0.90007  0.73138  1.0000
  C   C5155     1.0  0.68078  0.89701  0.73193  1.0000
  H   H8238     1.0  0.81571  0.79785  0.81633  1.0000
  H   H8239     1.0  0.66032  0.91143  0.75404  1.0000
  H   H8240     1.0  0.68993  0.90388  0.72906  1.0000
  H   H8241     1.0  0.50217  0.90818  0.92277  1.0000
  C   C5156     1.0  0.89590  0.89589  0.92832  1.0000
  H   H8242     1.0  0.90788  0.89753  0.92688  1.0000
  H   H8243     1.0  0.93082  0.76580  0.94624  1.0000
  C   C5157     1.0  0.70847  0.75822  0.86600  1.0000
  N   N517      1.0  0.83034  0.77501  0.82202  1.0000
  H   H8244     1.0  0.83473  0.78323  0.79715  1.0000
  H   H8245     1.0  0.68979  0.73965  0.88560  1.0000
  H   H8246     1.0  0.50698  0.78562  0.75074  1.0000
  H   H8247     1.0  0.49630  0.74905  0.75108  1.0000
  H   H8248     1.0  0.87503  0.87951  0.93065  1.0000
  H   H8249     1.0  0.78947  0.88748  0.74535  1.0000
  C   C5158     1.0  0.67830  0.97411  0.81630  1.0000
  C   C5159     1.0  0.80635  0.97320  0.91115  1.0000
  H   H8250     1.0  0.89191  0.75641  0.95465  1.0000
  H   H8251     1.0  0.93595  0.91840  0.73229  1.0000
  H   H8252     1.0  0.88761  0.95179  0.83535  1.0000
  H   H8253     1.0  0.89215  0.87279  0.96487  1.0000
  H   H8254     1.0  0.88743  0.90667  0.93120  1.0000
  H   H8255     1.0  0.56751  0.92795  0.96381  1.0000
  H   H8256     1.0  0.80014  0.85345  0.74493  1.0000
  C   C5160     1.0  0.89405  0.78065  0.96482  1.0000
  H   H8257     1.0  0.91248  0.74994  0.94738  1.0000
  H   H8258     1.0  0.67001  0.92517  0.73903  1.0000
  C   C5161     1.0  0.97878  0.91165  0.95372  1.0000
  C   C5162     1.0  0.53748  0.75358  0.82118  1.0000
  C   C5163     1.0  0.57834  0.78027  0.91175  1.0000
  H   H8259     1.0  0.57013  0.77225  0.91666  1.0000
  H   H8260     1.0  0.57178  0.79214  0.91362  1.0000
  H   H8261     1.0  0.58188  0.78113  0.89892  1.0000
  H   H8262     1.0  0.60604  0.78747  0.89940  1.0000
  H   H8263     1.0  0.59628  0.79773  0.91471  1.0000
  H   H8264     1.0  0.95348  0.89915  0.96701  1.0000
  N   N518      1.0  0.73080  0.91216  0.82759  1.0000
  C   C5164     1.0  0.74732  0.90930  0.82842  1.0000
  C   C5165     1.0  0.72737  0.89753  0.82680  1.0000
  C   C5166     1.0  0.72791  0.92431  0.81354  1.0000
  C   C5167     1.0  0.72056  0.91753  0.84161  1.0000
  H   H8265     1.0  0.75541  0.90552  0.81790  1.0000
  H   H8266     1.0  0.75005  0.89989  0.83864  1.0000
  H   H8267     1.0  0.75027  0.92000  0.82931  1.0000
  H   H8268     1.0  0.71503  0.89931  0.82602  1.0000
  H   H8269     1.0  0.73494  0.89307  0.81642  1.0000
  H   H8270     1.0  0.72936  0.88811  0.83724  1.0000
  H   H8271     1.0  0.73041  0.93551  0.81370  1.0000
  C   C5168     1.0  0.67903  0.96692  0.80441  1.0000
  S   S2074     1.0  0.66469  0.74651  0.91799  1.0000
  C   C5169     1.0  0.96207  0.90228  0.74665  1.0000
  S   S2075     1.0  0.98550  0.94487  0.78625  1.0000
  Fe  Fe1038    1.0  0.54671  0.89079  0.95787  1.0000
  C   C5170     1.0  0.81001  0.76934  0.87470  1.0000
  C   C5171     1.0  0.65276  0.75453  0.90437  1.0000
  H   H8272     1.0  0.91250  0.77545  0.92826  1.0000
  H   H8273     1.0  0.95262  0.89691  0.75412  1.0000
  H   H8274     1.0  0.59114  0.93895  0.95627  1.0000
  H   H8275     1.0  0.59366  0.75030  0.92071  1.0000
  H   H8276     1.0  0.65073  0.73243  0.90194  1.0000
  H   H8277     1.0  0.80632  0.75835  0.87894  1.0000
  H   H8278     1.0  0.68552  0.97530  0.75913  1.0000
  H   H8279     1.0  0.81178  0.86770  0.73446  1.0000
  H   H8280     1.0  0.79927  0.96997  0.87249  1.0000
  C   C5172     1.0  0.58016  0.85480  0.96069  1.0000
  C   C5173     1.0  0.66113  0.91803  0.74170  1.0000
  H   H8281     1.0  0.90501  0.74967  0.96771  1.0000
  C   C5174     1.0  0.49314  0.88152  0.93939  1.0000
  S   S2076     1.0  0.95941  0.93351  0.81771  1.0000
  H   H8282     1.0  0.78342  0.88586  0.76600  1.0000
  H   H8283     1.0  0.84724  0.82156  0.73008  1.0000
  H   H8284     1.0  0.48960  0.90949  0.97151  1.0000
  H   H8285     1.0  0.80985  0.88242  0.76897  1.0000
  C   C5175     1.0  0.49462  0.78695  0.75026  1.0000
  C   C5176     1.0  0.84302  0.78120  0.82355  1.0000
  C   C5177     1.0  0.58698  0.77338  0.93590  1.0000
  C   C5178     1.0  0.63771  0.75181  0.88763  1.0000
  H   H8286     1.0  0.68214  0.76762  0.88645  1.0000
  H   H8287     1.0  0.58039  0.78489  0.93872  1.0000
  H   H8288     1.0  0.81260  0.78896  0.83666  1.0000
  C   C5179     1.0  0.90409  0.86784  0.93577  1.0000
  H   H8289     1.0  0.87115  0.83049  0.96018  1.0000
  C   C5180     1.0  0.84680  0.82594  0.74005  1.0000
  S   S2077     1.0  0.95952  0.88924  0.72428  1.0000
  C   C5181     1.0  0.92331  0.95339  0.83849  1.0000
  H   H8290     1.0  0.49360  0.79196  0.73795  1.0000
  H   H8291     1.0  0.89197  0.78199  0.93581  1.0000
  H   H8292     1.0  0.88624  0.89366  0.95932  1.0000
  H   H8293     1.0  0.69086  0.76339  0.90276  1.0000
  H   H8294     1.0  0.51694  0.86469  0.95317  1.0000
  N   N519      1.0  0.66527  0.90737  0.73092  1.0000
  H   H8295     1.0  0.65273  0.89077  0.74746  1.0000
  C   C5182     1.0  0.80120  0.97088  0.88330  1.0000
  H   H8296     1.0  0.92347  0.76566  0.96659  1.0000
  C   C5183     1.0  0.50713  0.90215  0.93323  1.0000
  N   N520      1.0  0.59641  0.85662  0.95408  1.0000
  H   H8297     1.0  0.58909  0.74117  0.76679  1.0000
  H   H8298     1.0  0.71867  0.74938  0.90090  1.0000
  C   C5184     1.0  0.60721  0.84211  0.95992  1.0000
  H   H8299     1.0  0.64967  0.92628  0.74099  1.0000
  C   C5185     1.0  0.70394  0.93095  0.73117  1.0000
  C   C5186     1.0  0.56201  0.75398  0.80249  1.0000
  C   C5187     1.0  0.54754  0.85444  0.73320  1.0000
  H   H8300     1.0  0.86790  0.89055  0.94553  1.0000
  C   C5188     1.0  0.65344  0.89780  0.73528  1.0000
  Fe  Fe1039    1.0  0.98420  0.92427  0.80639  1.0000
  H   H8301     1.0  0.50772  0.88186  0.96086  1.0000
  C   C5189     1.0  0.92899  0.93020  0.72796  1.0000
  C   C5190     1.0  0.90383  0.78122  0.93736  1.0000
  H   H8302     1.0  0.89459  0.97722  0.82060  1.0000
  C   C5191     1.0  0.98633  0.91633  0.72741  1.0000
  H   H8303     1.0  0.56637  0.75869  0.81006  1.0000
  H   H8304     1.0  0.92092  0.93826  0.81848  1.0000
  C   C5192     1.0  0.72033  0.75258  0.88798  1.0000
  C   C5193     1.0  0.49136  0.76569  0.77265  1.0000
  H   H8305     1.0  0.72993  0.74335  0.88324  1.0000
  C   C5194     1.0  0.98033  0.91860  0.74265  1.0000
  H   H8306     1.0  0.71227  0.76951  0.86119  1.0000
  Fe  Fe1040    1.0  0.90405  0.82144  0.96782  1.0000
  H   H8307     1.0  0.65584  0.97393  0.91737  1.0000
  H   H8308     1.0  0.54158  0.73160  0.75843  1.0000
  H   H8309     1.0  0.57784  0.84518  0.95705  1.0000
  S   S2078     1.0  0.59763  0.96472  0.96326  1.0000
  S   S2079     1.0  0.94657  0.97724  0.79939  1.0000
  H   H8310     1.0  0.88195  0.78098  0.96431  1.0000
  H   H8311     1.0  0.69417  0.97777  0.73045  1.0000
  H   H8312     1.0  0.87031  0.76165  0.72464  1.0000
  H   H8313     1.0  0.91947  0.95761  0.84953  1.0000
  C   C5195     1.0  0.58051  0.94455  0.96327  1.0000
  H   H8314     1.0  0.93307  0.95895  0.83097  1.0000
  C   C5196     1.0  0.55855  0.73060  0.82215  1.0000
  C   C5197     1.0  0.54490  0.73871  0.80119  1.0000
  C   C5198     1.0  0.56716  0.93823  0.96762  1.0000
  C   C5199     1.0  0.58023  0.95800  0.96800  1.0000
  S   S2080     1.0  0.56072  0.89757  0.97044  1.0000
  H   H8315     1.0  0.55459  0.73146  0.79401  1.0000
  H   H8316     1.0  0.53622  0.73143  0.80775  1.0000
  H   H8317     1.0  0.68446  0.88906  0.72366  1.0000
  H   H8318     1.0  0.48775  0.75432  0.77763  1.0000
  H   H8319     1.0  0.48732  0.79574  0.75716  1.0000
  C   C5200     1.0  0.96402  0.89338  0.97196  1.0000
  H   H8320     1.0  0.59591  0.86813  0.97182  1.0000
